version 2
run General-622-20160901-15:40:30-8710
attr a 0.9
attr cd ffc0.25
attr configname General
attr cr lru
attr datetime 20160901-15:40:30
attr experiment General
attr fsize 1
attr inifile hw5115/scenario_Y/omnetp.ini
attr iterationvars "$name=tree_4_3, $un=10, $rep=8, $cd=ffc0.25, $cr=lru, $fsize=1, $a=0.9, $sl=nrr, $ttl=1000, $variance=0.05"
attr iterationvars2 "$name=tree_4_3, $un=10, $rep=8, $cd=ffc0.25, $cr=lru, $fsize=1, $a=0.9, $sl=nrr, $ttl=1000, $variance=0.05, $repetition=0"
attr measurement "$name=tree_4_3, $un=10, $rep=8, $cd=ffc0.25, $cr=lru, $fsize=1, $a=0.9, $sl=nrr, $ttl=1000, $variance=0.05"
attr name tree_4_3
attr network networks.${name}_u${un}_r${rep}_network
attr processid 8710
attr rep 8
attr repetition 0
attr replication #0
attr resultdir results
attr runnumber 622
attr seedset 8
attr sl nrr
attr ttl 1000
attr un 10
attr variance 0.05

scalar . 	a 	0.9
scalar . 	fsize 	1
scalar . 	rep 	8
scalar . 	ttl 	1000
scalar . 	un 	10
scalar . 	variance 	0.05
scalar tree_4_3_u10_r8_network.content_distribution 	repo-0 	0
scalar tree_4_3_u10_r8_network.content_distribution 	client-0 	13
scalar tree_4_3_u10_r8_network.content_distribution 	client-1 	14
scalar tree_4_3_u10_r8_network.content_distribution 	client-2 	15
scalar tree_4_3_u10_r8_network.content_distribution 	client-3 	16
scalar tree_4_3_u10_r8_network.content_distribution 	client-4 	17
scalar tree_4_3_u10_r8_network.content_distribution 	client-5 	18
scalar tree_4_3_u10_r8_network.content_distribution 	client-6 	19
scalar tree_4_3_u10_r8_network.content_distribution 	client-7 	20
scalar tree_4_3_u10_r8_network.content_distribution 	client-8 	21
scalar tree_4_3_u10_r8_network.content_distribution 	client-9 	22
scalar tree_4_3_u10_r8_network.content_distribution 	client-10 	23
scalar tree_4_3_u10_r8_network.content_distribution 	client-11 	24
scalar tree_4_3_u10_r8_network.content_distribution 	client-12 	25
scalar tree_4_3_u10_r8_network.content_distribution 	client-13 	26
scalar tree_4_3_u10_r8_network.content_distribution 	client-14 	27
scalar tree_4_3_u10_r8_network.content_distribution 	client-15 	28
scalar tree_4_3_u10_r8_network.content_distribution 	client-16 	29
scalar tree_4_3_u10_r8_network.content_distribution 	client-17 	30
scalar tree_4_3_u10_r8_network.content_distribution 	client-18 	31
scalar tree_4_3_u10_r8_network.content_distribution 	client-19 	32
scalar tree_4_3_u10_r8_network.content_distribution 	client-20 	33
scalar tree_4_3_u10_r8_network.content_distribution 	client-21 	34
scalar tree_4_3_u10_r8_network.content_distribution 	client-22 	35
scalar tree_4_3_u10_r8_network.content_distribution 	client-23 	36
scalar tree_4_3_u10_r8_network.content_distribution 	client-24 	37
scalar tree_4_3_u10_r8_network.content_distribution 	client-25 	38
scalar tree_4_3_u10_r8_network.content_distribution 	client-26 	39
scalar tree_4_3_u10_r8_network.content_distribution 	repo-0_card 	100000
scalar tree_4_3_u10_r8_network.content_distribution 	repo-0_price 	0
scalar tree_4_3_u10_r8_network.statistics 	stabilization_time 	1963.6
scalar tree_4_3_u10_r8_network.statistics 	p_hit 	0.24705508685251
scalar tree_4_3_u10_r8_network.statistics 	interests 	24508
scalar tree_4_3_u10_r8_network.statistics 	data 	16421
scalar tree_4_3_u10_r8_network.statistics 	hdistance 	2.5793281703565
scalar tree_4_3_u10_r8_network.statistics 	avg_time 	0.004061191303
scalar tree_4_3_u10_r8_network.statistics 	downloads 	323484
scalar tree_4_3_u10_r8_network.statistics 	total_cost 	0
scalar tree_4_3_u10_r8_network.statistics 	total_replicas 	100000
scalar tree_4_3_u10_r8_network.statistics 	inner_hit 	0.4513144390449
scalar tree_4_3_u10_r8_network.node[0].core_layer 	interests[0] 	180328
scalar tree_4_3_u10_r8_network.node[0].core_layer 	repo_load[0] 	177491
scalar tree_4_3_u10_r8_network.node[0].core_layer 	data[0] 	0
scalar tree_4_3_u10_r8_network.node[0].core_layer 	repo_int[0] 	177491
scalar tree_4_3_u10_r8_network.node[0].content_store 	p_hit[0] 	0.015732443103678
scalar tree_4_3_u10_r8_network.node[0].content_store 	hits[0] 	2837
scalar tree_4_3_u10_r8_network.node[0].content_store 	misses[0] 	177491
scalar tree_4_3_u10_r8_network.node[0].content_store 	decision_yes[0] 	172
scalar tree_4_3_u10_r8_network.node[0].content_store 	decision_no[0] 	177319
scalar tree_4_3_u10_r8_network.node[0].content_store 	decision_ratio[0] 	0.00096906322010693
scalar tree_4_3_u10_r8_network.node[1].core_layer 	interests[1] 	136577
scalar tree_4_3_u10_r8_network.node[1].core_layer 	data[1] 	133315
scalar tree_4_3_u10_r8_network.node[1].content_store 	p_hit[1] 	0.023876641015691
scalar tree_4_3_u10_r8_network.node[1].content_store 	hits[1] 	3261
scalar tree_4_3_u10_r8_network.node[1].content_store 	misses[1] 	133316
scalar tree_4_3_u10_r8_network.node[1].content_store 	decision_yes[1] 	147
scalar tree_4_3_u10_r8_network.node[1].content_store 	decision_no[1] 	133168
scalar tree_4_3_u10_r8_network.node[1].content_store 	decision_ratio[1] 	0.001102651614597
scalar tree_4_3_u10_r8_network.node[2].core_layer 	interests[2] 	55644
scalar tree_4_3_u10_r8_network.node[2].core_layer 	data[2] 	52071
scalar tree_4_3_u10_r8_network.node[2].content_store 	p_hit[2] 	0.064193803464884
scalar tree_4_3_u10_r8_network.node[2].content_store 	hits[2] 	3572
scalar tree_4_3_u10_r8_network.node[2].content_store 	misses[2] 	52072
scalar tree_4_3_u10_r8_network.node[2].content_store 	decision_yes[2] 	83
scalar tree_4_3_u10_r8_network.node[2].content_store 	decision_no[2] 	51988
scalar tree_4_3_u10_r8_network.node[2].content_store 	decision_ratio[2] 	0.0015939774538611
scalar tree_4_3_u10_r8_network.node[3].core_layer 	interests[3] 	13648
scalar tree_4_3_u10_r8_network.node[3].core_layer 	data[3] 	10031
scalar tree_4_3_u10_r8_network.node[3].content_store 	p_hit[3] 	0.26502051582649
scalar tree_4_3_u10_r8_network.node[3].content_store 	hits[3] 	3617
scalar tree_4_3_u10_r8_network.node[3].content_store 	misses[3] 	10031
scalar tree_4_3_u10_r8_network.node[3].content_store 	decision_yes[3] 	67
scalar tree_4_3_u10_r8_network.node[3].content_store 	decision_no[3] 	9964
scalar tree_4_3_u10_r8_network.node[3].content_store 	decision_ratio[3] 	0.0066792941880171
scalar tree_4_3_u10_r8_network.node[4].core_layer 	interests[4] 	41605
scalar tree_4_3_u10_r8_network.node[4].core_layer 	data[4] 	38773
scalar tree_4_3_u10_r8_network.node[4].content_store 	p_hit[4] 	0.068068741737772
scalar tree_4_3_u10_r8_network.node[4].content_store 	hits[4] 	2832
scalar tree_4_3_u10_r8_network.node[4].content_store 	misses[4] 	38773
scalar tree_4_3_u10_r8_network.node[4].content_store 	decision_yes[4] 	60
scalar tree_4_3_u10_r8_network.node[4].content_store 	decision_no[4] 	38713
scalar tree_4_3_u10_r8_network.node[4].content_store 	decision_ratio[4] 	0.001547468599283
scalar tree_4_3_u10_r8_network.node[5].core_layer 	interests[5] 	29336
scalar tree_4_3_u10_r8_network.node[5].core_layer 	data[5] 	25664
scalar tree_4_3_u10_r8_network.node[5].content_store 	p_hit[5] 	0.125170439051
scalar tree_4_3_u10_r8_network.node[5].content_store 	hits[5] 	3672
scalar tree_4_3_u10_r8_network.node[5].content_store 	misses[5] 	25664
scalar tree_4_3_u10_r8_network.node[5].content_store 	decision_yes[5] 	68
scalar tree_4_3_u10_r8_network.node[5].content_store 	decision_no[5] 	25596
scalar tree_4_3_u10_r8_network.node[5].content_store 	decision_ratio[5] 	0.0026496259351621
scalar tree_4_3_u10_r8_network.node[6].core_layer 	interests[6] 	13671
scalar tree_4_3_u10_r8_network.node[6].core_layer 	data[6] 	10389
scalar tree_4_3_u10_r8_network.node[6].content_store 	p_hit[6] 	0.24007022163704
scalar tree_4_3_u10_r8_network.node[6].content_store 	hits[6] 	3282
scalar tree_4_3_u10_r8_network.node[6].content_store 	misses[6] 	10389
scalar tree_4_3_u10_r8_network.node[6].content_store 	decision_yes[6] 	75
scalar tree_4_3_u10_r8_network.node[6].content_store 	decision_no[6] 	10314
scalar tree_4_3_u10_r8_network.node[6].content_store 	decision_ratio[6] 	0.0072191741264799
scalar tree_4_3_u10_r8_network.node[7].core_layer 	interests[7] 	43649
scalar tree_4_3_u10_r8_network.node[7].core_layer 	data[7] 	40277
scalar tree_4_3_u10_r8_network.node[7].content_store 	p_hit[7] 	0.077252628926207
scalar tree_4_3_u10_r8_network.node[7].content_store 	hits[7] 	3372
scalar tree_4_3_u10_r8_network.node[7].content_store 	misses[7] 	40277
scalar tree_4_3_u10_r8_network.node[7].content_store 	decision_yes[7] 	83
scalar tree_4_3_u10_r8_network.node[7].content_store 	decision_no[7] 	40194
scalar tree_4_3_u10_r8_network.node[7].content_store 	decision_ratio[7] 	0.0020607294485687
scalar tree_4_3_u10_r8_network.node[8].core_layer 	interests[8] 	26720
scalar tree_4_3_u10_r8_network.node[8].core_layer 	data[8] 	23953
scalar tree_4_3_u10_r8_network.node[8].content_store 	p_hit[8] 	0.10351796407186
scalar tree_4_3_u10_r8_network.node[8].content_store 	hits[8] 	2766
scalar tree_4_3_u10_r8_network.node[8].content_store 	misses[8] 	23954
scalar tree_4_3_u10_r8_network.node[8].content_store 	decision_yes[8] 	55
scalar tree_4_3_u10_r8_network.node[8].content_store 	decision_no[8] 	23898
scalar tree_4_3_u10_r8_network.node[8].content_store 	decision_ratio[8] 	0.0022961633198347
scalar tree_4_3_u10_r8_network.node[9].core_layer 	interests[9] 	13564
scalar tree_4_3_u10_r8_network.node[9].core_layer 	data[9] 	10223
scalar tree_4_3_u10_r8_network.node[9].content_store 	p_hit[9] 	0.24631377174875
scalar tree_4_3_u10_r8_network.node[9].content_store 	hits[9] 	3341
scalar tree_4_3_u10_r8_network.node[9].content_store 	misses[9] 	10223
scalar tree_4_3_u10_r8_network.node[9].content_store 	decision_yes[9] 	77
scalar tree_4_3_u10_r8_network.node[9].content_store 	decision_no[9] 	10146
scalar tree_4_3_u10_r8_network.node[9].content_store 	decision_ratio[9] 	0.0075320356059865
scalar tree_4_3_u10_r8_network.node[10].core_layer 	interests[10] 	43408
scalar tree_4_3_u10_r8_network.node[10].core_layer 	data[10] 	40213
scalar tree_4_3_u10_r8_network.node[10].content_store 	p_hit[10] 	0.0735809067453
scalar tree_4_3_u10_r8_network.node[10].content_store 	hits[10] 	3194
scalar tree_4_3_u10_r8_network.node[10].content_store 	misses[10] 	40214
scalar tree_4_3_u10_r8_network.node[10].content_store 	decision_yes[10] 	73
scalar tree_4_3_u10_r8_network.node[10].content_store 	decision_no[10] 	40140
scalar tree_4_3_u10_r8_network.node[10].content_store 	decision_ratio[10] 	0.0018153333499117
scalar tree_4_3_u10_r8_network.node[11].core_layer 	interests[11] 	28698
scalar tree_4_3_u10_r8_network.node[11].core_layer 	data[11] 	25435
scalar tree_4_3_u10_r8_network.node[11].content_store 	p_hit[11] 	0.11373614886055
scalar tree_4_3_u10_r8_network.node[11].content_store 	hits[11] 	3264
scalar tree_4_3_u10_r8_network.node[11].content_store 	misses[11] 	25434
scalar tree_4_3_u10_r8_network.node[11].content_store 	decision_yes[11] 	64
scalar tree_4_3_u10_r8_network.node[11].content_store 	decision_no[11] 	25371
scalar tree_4_3_u10_r8_network.node[11].content_store 	decision_ratio[11] 	0.0025162178101042
scalar tree_4_3_u10_r8_network.node[12].core_layer 	interests[12] 	11928
scalar tree_4_3_u10_r8_network.node[12].core_layer 	data[12] 	9004
scalar tree_4_3_u10_r8_network.node[12].content_store 	p_hit[12] 	0.24522132796781
scalar tree_4_3_u10_r8_network.node[12].content_store 	hits[12] 	2925
scalar tree_4_3_u10_r8_network.node[12].content_store 	misses[12] 	9003
scalar tree_4_3_u10_r8_network.node[12].content_store 	decision_yes[12] 	41
scalar tree_4_3_u10_r8_network.node[12].content_store 	decision_no[12] 	8963
scalar tree_4_3_u10_r8_network.node[12].content_store 	decision_ratio[12] 	0.0045535317636606
scalar tree_4_3_u10_r8_network.node[13].core_layer 	interests[13] 	12313
scalar tree_4_3_u10_r8_network.node[13].core_layer 	data[13] 	8790
scalar tree_4_3_u10_r8_network.node[13].content_store 	p_hit[13] 	0.28612036059449
scalar tree_4_3_u10_r8_network.node[13].content_store 	hits[13] 	3523
scalar tree_4_3_u10_r8_network.node[13].content_store 	misses[13] 	8790
scalar tree_4_3_u10_r8_network.node[13].content_store 	decision_yes[13] 	42
scalar tree_4_3_u10_r8_network.node[13].content_store 	decision_no[13] 	8748
scalar tree_4_3_u10_r8_network.node[13].content_store 	decision_ratio[13] 	0.004778156996587
scalar tree_4_3_u10_r8_network.node[14].core_layer 	interests[14] 	12908
scalar tree_4_3_u10_r8_network.node[14].core_layer 	data[14] 	8849
scalar tree_4_3_u10_r8_network.node[14].content_store 	p_hit[14] 	0.31445615122405
scalar tree_4_3_u10_r8_network.node[14].content_store 	hits[14] 	4059
scalar tree_4_3_u10_r8_network.node[14].content_store 	misses[14] 	8849
scalar tree_4_3_u10_r8_network.node[14].content_store 	decision_yes[14] 	37
scalar tree_4_3_u10_r8_network.node[14].content_store 	decision_no[14] 	8812
scalar tree_4_3_u10_r8_network.node[14].content_store 	decision_ratio[14] 	0.0041812634195954
scalar tree_4_3_u10_r8_network.node[15].core_layer 	interests[15] 	13018
scalar tree_4_3_u10_r8_network.node[15].core_layer 	data[15] 	8948
scalar tree_4_3_u10_r8_network.node[15].content_store 	p_hit[15] 	0.31264403134122
scalar tree_4_3_u10_r8_network.node[15].content_store 	hits[15] 	4070
scalar tree_4_3_u10_r8_network.node[15].content_store 	misses[15] 	8948
scalar tree_4_3_u10_r8_network.node[15].content_store 	decision_yes[15] 	33
scalar tree_4_3_u10_r8_network.node[15].content_store 	decision_no[15] 	8915
scalar tree_4_3_u10_r8_network.node[15].content_store 	decision_ratio[15] 	0.003687974966473
scalar tree_4_3_u10_r8_network.node[16].core_layer 	interests[16] 	13007
scalar tree_4_3_u10_r8_network.node[16].core_layer 	data[16] 	8756
scalar tree_4_3_u10_r8_network.node[16].content_store 	p_hit[16] 	0.32682401783655
scalar tree_4_3_u10_r8_network.node[16].content_store 	hits[16] 	4251
scalar tree_4_3_u10_r8_network.node[16].content_store 	misses[16] 	8756
scalar tree_4_3_u10_r8_network.node[16].content_store 	decision_yes[16] 	25
scalar tree_4_3_u10_r8_network.node[16].content_store 	decision_no[16] 	8731
scalar tree_4_3_u10_r8_network.node[16].content_store 	decision_ratio[16] 	0.002855185015989
scalar tree_4_3_u10_r8_network.node[17].core_layer 	interests[17] 	12262
scalar tree_4_3_u10_r8_network.node[17].core_layer 	data[17] 	8676
scalar tree_4_3_u10_r8_network.node[17].content_store 	p_hit[17] 	0.29244821399445
scalar tree_4_3_u10_r8_network.node[17].content_store 	hits[17] 	3586
scalar tree_4_3_u10_r8_network.node[17].content_store 	misses[17] 	8676
scalar tree_4_3_u10_r8_network.node[17].content_store 	decision_yes[17] 	34
scalar tree_4_3_u10_r8_network.node[17].content_store 	decision_no[17] 	8642
scalar tree_4_3_u10_r8_network.node[17].content_store 	decision_ratio[17] 	0.0039188566159521
scalar tree_4_3_u10_r8_network.node[18].core_layer 	interests[18] 	12829
scalar tree_4_3_u10_r8_network.node[18].core_layer 	data[18] 	8843
scalar tree_4_3_u10_r8_network.node[18].content_store 	p_hit[18] 	0.31070231506743
scalar tree_4_3_u10_r8_network.node[18].content_store 	hits[18] 	3986
scalar tree_4_3_u10_r8_network.node[18].content_store 	misses[18] 	8843
scalar tree_4_3_u10_r8_network.node[18].content_store 	decision_yes[18] 	33
scalar tree_4_3_u10_r8_network.node[18].content_store 	decision_no[18] 	8810
scalar tree_4_3_u10_r8_network.node[18].content_store 	decision_ratio[18] 	0.0037317652380414
scalar tree_4_3_u10_r8_network.node[19].core_layer 	interests[19] 	12801
scalar tree_4_3_u10_r8_network.node[19].core_layer 	data[19] 	8840
scalar tree_4_3_u10_r8_network.node[19].content_store 	p_hit[19] 	0.30942895086321
scalar tree_4_3_u10_r8_network.node[19].content_store 	hits[19] 	3961
scalar tree_4_3_u10_r8_network.node[19].content_store 	misses[19] 	8840
scalar tree_4_3_u10_r8_network.node[19].content_store 	decision_yes[19] 	36
scalar tree_4_3_u10_r8_network.node[19].content_store 	decision_no[19] 	8804
scalar tree_4_3_u10_r8_network.node[19].content_store 	decision_ratio[19] 	0.0040723981900452
scalar tree_4_3_u10_r8_network.node[20].core_layer 	interests[20] 	12926
scalar tree_4_3_u10_r8_network.node[20].core_layer 	data[20] 	8879
scalar tree_4_3_u10_r8_network.node[20].content_store 	p_hit[20] 	0.31308989633297
scalar tree_4_3_u10_r8_network.node[20].content_store 	hits[20] 	4047
scalar tree_4_3_u10_r8_network.node[20].content_store 	misses[20] 	8879
scalar tree_4_3_u10_r8_network.node[20].content_store 	decision_yes[20] 	28
scalar tree_4_3_u10_r8_network.node[20].content_store 	decision_no[20] 	8851
scalar tree_4_3_u10_r8_network.node[20].content_store 	decision_ratio[20] 	0.0031535082779592
scalar tree_4_3_u10_r8_network.node[21].core_layer 	interests[21] 	12245
scalar tree_4_3_u10_r8_network.node[21].core_layer 	data[21] 	8623
scalar tree_4_3_u10_r8_network.node[21].content_store 	p_hit[21] 	0.29579420171499
scalar tree_4_3_u10_r8_network.node[21].content_store 	hits[21] 	3622
scalar tree_4_3_u10_r8_network.node[21].content_store 	misses[21] 	8623
scalar tree_4_3_u10_r8_network.node[21].content_store 	decision_yes[21] 	36
scalar tree_4_3_u10_r8_network.node[21].content_store 	decision_no[21] 	8587
scalar tree_4_3_u10_r8_network.node[21].content_store 	decision_ratio[21] 	0.0041748811318567
scalar tree_4_3_u10_r8_network.node[22].core_layer 	interests[22] 	12381
scalar tree_4_3_u10_r8_network.node[22].core_layer 	data[22] 	8747
scalar tree_4_3_u10_r8_network.node[22].content_store 	p_hit[22] 	0.2935142557144
scalar tree_4_3_u10_r8_network.node[22].content_store 	hits[22] 	3634
scalar tree_4_3_u10_r8_network.node[22].content_store 	misses[22] 	8747
scalar tree_4_3_u10_r8_network.node[22].content_store 	decision_yes[22] 	35
scalar tree_4_3_u10_r8_network.node[22].content_store 	decision_no[22] 	8712
scalar tree_4_3_u10_r8_network.node[22].content_store 	decision_ratio[22] 	0.0040013718989368
scalar tree_4_3_u10_r8_network.node[23].core_layer 	interests[23] 	12755
scalar tree_4_3_u10_r8_network.node[23].core_layer 	data[23] 	8694
scalar tree_4_3_u10_r8_network.node[23].content_store 	p_hit[23] 	0.31830654645237
scalar tree_4_3_u10_r8_network.node[23].content_store 	hits[23] 	4060
scalar tree_4_3_u10_r8_network.node[23].content_store 	misses[23] 	8695
scalar tree_4_3_u10_r8_network.node[23].content_store 	decision_yes[23] 	29
scalar tree_4_3_u10_r8_network.node[23].content_store 	decision_no[23] 	8665
scalar tree_4_3_u10_r8_network.node[23].content_store 	decision_ratio[23] 	0.0033356337704164
scalar tree_4_3_u10_r8_network.node[24].core_layer 	interests[24] 	12944
scalar tree_4_3_u10_r8_network.node[24].core_layer 	data[24] 	8891
scalar tree_4_3_u10_r8_network.node[24].content_store 	p_hit[24] 	0.31304079110012
scalar tree_4_3_u10_r8_network.node[24].content_store 	hits[24] 	4052
scalar tree_4_3_u10_r8_network.node[24].content_store 	misses[24] 	8892
scalar tree_4_3_u10_r8_network.node[24].content_store 	decision_yes[24] 	32
scalar tree_4_3_u10_r8_network.node[24].content_store 	decision_no[24] 	8859
scalar tree_4_3_u10_r8_network.node[24].content_store 	decision_ratio[24] 	0.0035991452030143
scalar tree_4_3_u10_r8_network.node[25].core_layer 	interests[25] 	12715
scalar tree_4_3_u10_r8_network.node[25].core_layer 	data[25] 	8691
scalar tree_4_3_u10_r8_network.node[25].content_store 	p_hit[25] 	0.31647660243807
scalar tree_4_3_u10_r8_network.node[25].content_store 	hits[25] 	4024
scalar tree_4_3_u10_r8_network.node[25].content_store 	misses[25] 	8691
scalar tree_4_3_u10_r8_network.node[25].content_store 	decision_yes[25] 	25
scalar tree_4_3_u10_r8_network.node[25].content_store 	decision_no[25] 	8666
scalar tree_4_3_u10_r8_network.node[25].content_store 	decision_ratio[25] 	0.0028765389483374
scalar tree_4_3_u10_r8_network.node[26].core_layer 	interests[26] 	12272
scalar tree_4_3_u10_r8_network.node[26].core_layer 	data[26] 	8818
scalar tree_4_3_u10_r8_network.node[26].content_store 	p_hit[26] 	0.28145371577575
scalar tree_4_3_u10_r8_network.node[26].content_store 	hits[26] 	3454
scalar tree_4_3_u10_r8_network.node[26].content_store 	misses[26] 	8818
scalar tree_4_3_u10_r8_network.node[26].content_store 	decision_yes[26] 	30
scalar tree_4_3_u10_r8_network.node[26].content_store 	decision_no[26] 	8788
scalar tree_4_3_u10_r8_network.node[26].content_store 	decision_ratio[26] 	0.0034021320027217
scalar tree_4_3_u10_r8_network.node[27].core_layer 	interests[27] 	12830
scalar tree_4_3_u10_r8_network.node[27].core_layer 	data[27] 	8881
scalar tree_4_3_u10_r8_network.node[27].content_store 	p_hit[27] 	0.30779423226812
scalar tree_4_3_u10_r8_network.node[27].content_store 	hits[27] 	3949
scalar tree_4_3_u10_r8_network.node[27].content_store 	misses[27] 	8881
scalar tree_4_3_u10_r8_network.node[27].content_store 	decision_yes[27] 	28
scalar tree_4_3_u10_r8_network.node[27].content_store 	decision_no[27] 	8853
scalar tree_4_3_u10_r8_network.node[27].content_store 	decision_ratio[27] 	0.0031527981083211
scalar tree_4_3_u10_r8_network.node[28].core_layer 	interests[28] 	12987
scalar tree_4_3_u10_r8_network.node[28].core_layer 	data[28] 	8856
scalar tree_4_3_u10_r8_network.node[28].content_store 	p_hit[28] 	0.31808731808732
scalar tree_4_3_u10_r8_network.node[28].content_store 	hits[28] 	4131
scalar tree_4_3_u10_r8_network.node[28].content_store 	misses[28] 	8856
scalar tree_4_3_u10_r8_network.node[28].content_store 	decision_yes[28] 	30
scalar tree_4_3_u10_r8_network.node[28].content_store 	decision_no[28] 	8826
scalar tree_4_3_u10_r8_network.node[28].content_store 	decision_ratio[28] 	0.0033875338753388
scalar tree_4_3_u10_r8_network.node[29].core_layer 	interests[29] 	12599
scalar tree_4_3_u10_r8_network.node[29].core_layer 	data[29] 	8732
scalar tree_4_3_u10_r8_network.node[29].content_store 	p_hit[29] 	0.30692912135884
scalar tree_4_3_u10_r8_network.node[29].content_store 	hits[29] 	3867
scalar tree_4_3_u10_r8_network.node[29].content_store 	misses[29] 	8732
scalar tree_4_3_u10_r8_network.node[29].content_store 	decision_yes[29] 	28
scalar tree_4_3_u10_r8_network.node[29].content_store 	decision_no[29] 	8704
scalar tree_4_3_u10_r8_network.node[29].content_store 	decision_ratio[29] 	0.0032065964269354
scalar tree_4_3_u10_r8_network.node[30].core_layer 	interests[30] 	12166
scalar tree_4_3_u10_r8_network.node[30].core_layer 	data[30] 	8530
scalar tree_4_3_u10_r8_network.node[30].content_store 	p_hit[30] 	0.29886569127075
scalar tree_4_3_u10_r8_network.node[30].content_store 	hits[30] 	3636
scalar tree_4_3_u10_r8_network.node[30].content_store 	misses[30] 	8530
scalar tree_4_3_u10_r8_network.node[30].content_store 	decision_yes[30] 	27
scalar tree_4_3_u10_r8_network.node[30].content_store 	decision_no[30] 	8503
scalar tree_4_3_u10_r8_network.node[30].content_store 	decision_ratio[30] 	0.0031652989449004
scalar tree_4_3_u10_r8_network.node[31].core_layer 	interests[31] 	12506
scalar tree_4_3_u10_r8_network.node[31].core_layer 	data[31] 	8859
scalar tree_4_3_u10_r8_network.node[31].content_store 	p_hit[31] 	0.29162002238925
scalar tree_4_3_u10_r8_network.node[31].content_store 	hits[31] 	3647
scalar tree_4_3_u10_r8_network.node[31].content_store 	misses[31] 	8859
scalar tree_4_3_u10_r8_network.node[31].content_store 	decision_yes[31] 	36
scalar tree_4_3_u10_r8_network.node[31].content_store 	decision_no[31] 	8823
scalar tree_4_3_u10_r8_network.node[31].content_store 	decision_ratio[31] 	0.0040636640704368
scalar tree_4_3_u10_r8_network.node[32].core_layer 	interests[32] 	12794
scalar tree_4_3_u10_r8_network.node[32].core_layer 	data[32] 	8771
scalar tree_4_3_u10_r8_network.node[32].content_store 	p_hit[32] 	0.31444427075191
scalar tree_4_3_u10_r8_network.node[32].content_store 	hits[32] 	4023
scalar tree_4_3_u10_r8_network.node[32].content_store 	misses[32] 	8771
scalar tree_4_3_u10_r8_network.node[32].content_store 	decision_yes[32] 	20
scalar tree_4_3_u10_r8_network.node[32].content_store 	decision_no[32] 	8751
scalar tree_4_3_u10_r8_network.node[32].content_store 	decision_ratio[32] 	0.0022802417056208
scalar tree_4_3_u10_r8_network.node[33].core_layer 	interests[33] 	12682
scalar tree_4_3_u10_r8_network.node[33].core_layer 	data[33] 	8811
scalar tree_4_3_u10_r8_network.node[33].content_store 	p_hit[33] 	0.30523576722914
scalar tree_4_3_u10_r8_network.node[33].content_store 	hits[33] 	3871
scalar tree_4_3_u10_r8_network.node[33].content_store 	misses[33] 	8811
scalar tree_4_3_u10_r8_network.node[33].content_store 	decision_yes[33] 	28
scalar tree_4_3_u10_r8_network.node[33].content_store 	decision_no[33] 	8783
scalar tree_4_3_u10_r8_network.node[33].content_store 	decision_ratio[33] 	0.0031778458744751
scalar tree_4_3_u10_r8_network.node[34].core_layer 	interests[34] 	12686
scalar tree_4_3_u10_r8_network.node[34].core_layer 	data[34] 	8830
scalar tree_4_3_u10_r8_network.node[34].content_store 	p_hit[34] 	0.30395711808293
scalar tree_4_3_u10_r8_network.node[34].content_store 	hits[34] 	3856
scalar tree_4_3_u10_r8_network.node[34].content_store 	misses[34] 	8830
scalar tree_4_3_u10_r8_network.node[34].content_store 	decision_yes[34] 	40
scalar tree_4_3_u10_r8_network.node[34].content_store 	decision_no[34] 	8790
scalar tree_4_3_u10_r8_network.node[34].content_store 	decision_ratio[34] 	0.0045300113250283
scalar tree_4_3_u10_r8_network.node[35].core_layer 	interests[35] 	12491
scalar tree_4_3_u10_r8_network.node[35].core_layer 	data[35] 	8900
scalar tree_4_3_u10_r8_network.node[35].content_store 	p_hit[35] 	0.28756704827476
scalar tree_4_3_u10_r8_network.node[35].content_store 	hits[35] 	3592
scalar tree_4_3_u10_r8_network.node[35].content_store 	misses[35] 	8899
scalar tree_4_3_u10_r8_network.node[35].content_store 	decision_yes[35] 	27
scalar tree_4_3_u10_r8_network.node[35].content_store 	decision_no[35] 	8873
scalar tree_4_3_u10_r8_network.node[35].content_store 	decision_ratio[35] 	0.0030337078651685
scalar tree_4_3_u10_r8_network.node[36].core_layer 	interests[36] 	12526
scalar tree_4_3_u10_r8_network.node[36].core_layer 	data[36] 	8695
scalar tree_4_3_u10_r8_network.node[36].content_store 	p_hit[36] 	0.30584384480281
scalar tree_4_3_u10_r8_network.node[36].content_store 	hits[36] 	3831
scalar tree_4_3_u10_r8_network.node[36].content_store 	misses[36] 	8695
scalar tree_4_3_u10_r8_network.node[36].content_store 	decision_yes[36] 	19
scalar tree_4_3_u10_r8_network.node[36].content_store 	decision_no[36] 	8676
scalar tree_4_3_u10_r8_network.node[36].content_store 	decision_ratio[36] 	0.0021851638872915
scalar tree_4_3_u10_r8_network.node[37].core_layer 	interests[37] 	12707
scalar tree_4_3_u10_r8_network.node[37].core_layer 	data[37] 	8823
scalar tree_4_3_u10_r8_network.node[37].content_store 	p_hit[37] 	0.30565829857559
scalar tree_4_3_u10_r8_network.node[37].content_store 	hits[37] 	3884
scalar tree_4_3_u10_r8_network.node[37].content_store 	misses[37] 	8823
scalar tree_4_3_u10_r8_network.node[37].content_store 	decision_yes[37] 	30
scalar tree_4_3_u10_r8_network.node[37].content_store 	decision_no[37] 	8793
scalar tree_4_3_u10_r8_network.node[37].content_store 	decision_ratio[37] 	0.0034002040122407
scalar tree_4_3_u10_r8_network.node[38].core_layer 	interests[38] 	12736
scalar tree_4_3_u10_r8_network.node[38].core_layer 	data[38] 	8889
scalar tree_4_3_u10_r8_network.node[38].content_store 	p_hit[38] 	0.30205716080402
scalar tree_4_3_u10_r8_network.node[38].content_store 	hits[38] 	3847
scalar tree_4_3_u10_r8_network.node[38].content_store 	misses[38] 	8889
scalar tree_4_3_u10_r8_network.node[38].content_store 	decision_yes[38] 	29
scalar tree_4_3_u10_r8_network.node[38].content_store 	decision_no[38] 	8860
scalar tree_4_3_u10_r8_network.node[38].content_store 	decision_ratio[38] 	0.0032624592192598
scalar tree_4_3_u10_r8_network.node[39].core_layer 	interests[39] 	12458
scalar tree_4_3_u10_r8_network.node[39].core_layer 	data[39] 	8870
scalar tree_4_3_u10_r8_network.node[39].content_store 	p_hit[39] 	0.28808797559801
scalar tree_4_3_u10_r8_network.node[39].content_store 	hits[39] 	3589
scalar tree_4_3_u10_r8_network.node[39].content_store 	misses[39] 	8869
scalar tree_4_3_u10_r8_network.node[39].content_store 	decision_yes[39] 	27
scalar tree_4_3_u10_r8_network.node[39].content_store 	decision_no[39] 	8843
scalar tree_4_3_u10_r8_network.node[39].content_store 	decision_ratio[39] 	0.00304396843292
scalar tree_4_3_u10_r8_network.client[13] 	hdistance[13] 	2.6705148731777
scalar tree_4_3_u10_r8_network.client[13] 	downloads[13] 	11867
scalar tree_4_3_u10_r8_network.client[13] 	avg_time[13] 	0.004202070045
scalar tree_4_3_u10_r8_network.client[14] 	hdistance[14] 	2.5534109816972
scalar tree_4_3_u10_r8_network.client[14] 	downloads[14] 	12020
scalar tree_4_3_u10_r8_network.client[14] 	avg_time[14] 	0.004022958739
scalar tree_4_3_u10_r8_network.client[15] 	hdistance[15] 	2.5683322303111
scalar tree_4_3_u10_r8_network.client[15] 	downloads[15] 	12088
scalar tree_4_3_u10_r8_network.client[15] 	avg_time[15] 	0.00404384211
scalar tree_4_3_u10_r8_network.client[16] 	hdistance[16] 	2.5345143047239
scalar tree_4_3_u10_r8_network.client[16] 	downloads[16] 	12024
scalar tree_4_3_u10_r8_network.client[16] 	avg_time[16] 	0.003990298259
scalar tree_4_3_u10_r8_network.client[17] 	hdistance[17] 	2.6002027712065
scalar tree_4_3_u10_r8_network.client[17] 	downloads[17] 	11836
scalar tree_4_3_u10_r8_network.client[17] 	avg_time[17] 	0.004119632032
scalar tree_4_3_u10_r8_network.client[18] 	hdistance[18] 	2.5424760316799
scalar tree_4_3_u10_r8_network.client[18] 	downloads[18] 	11995
scalar tree_4_3_u10_r8_network.client[18] 	avg_time[18] 	0.004008834014
scalar tree_4_3_u10_r8_network.client[19] 	hdistance[19] 	2.5603957103666
scalar tree_4_3_u10_r8_network.client[19] 	downloads[19] 	12029
scalar tree_4_3_u10_r8_network.client[19] 	avg_time[19] 	0.004026931875
scalar tree_4_3_u10_r8_network.client[20] 	hdistance[20] 	2.5670267102068
scalar tree_4_3_u10_r8_network.client[20] 	downloads[20] 	11943
scalar tree_4_3_u10_r8_network.client[20] 	avg_time[20] 	0.004046049079
scalar tree_4_3_u10_r8_network.client[21] 	hdistance[21] 	2.58535357772
scalar tree_4_3_u10_r8_network.client[21] 	downloads[21] 	11921
scalar tree_4_3_u10_r8_network.client[21] 	avg_time[21] 	0.004083714868
scalar tree_4_3_u10_r8_network.client[22] 	hdistance[22] 	2.6270699560662
scalar tree_4_3_u10_r8_network.client[22] 	downloads[22] 	11836
scalar tree_4_3_u10_r8_network.client[22] 	avg_time[22] 	0.004163903741
scalar tree_4_3_u10_r8_network.client[23] 	hdistance[23] 	2.5428929765886
scalar tree_4_3_u10_r8_network.client[23] 	downloads[23] 	11960
scalar tree_4_3_u10_r8_network.client[23] 	avg_time[23] 	0.003998312425
scalar tree_4_3_u10_r8_network.client[24] 	hdistance[24] 	2.5539824474251
scalar tree_4_3_u10_r8_network.client[24] 	downloads[24] 	12078
scalar tree_4_3_u10_r8_network.client[24] 	avg_time[24] 	0.004018543106
scalar tree_4_3_u10_r8_network.client[25] 	hdistance[25] 	2.5567941896799
scalar tree_4_3_u10_r8_network.client[25] 	downloads[25] 	11841
scalar tree_4_3_u10_r8_network.client[25] 	avg_time[25] 	0.004023474809
scalar tree_4_3_u10_r8_network.client[26] 	hdistance[26] 	2.6879390605163
scalar tree_4_3_u10_r8_network.client[26] 	downloads[26] 	11815
scalar tree_4_3_u10_r8_network.client[26] 	avg_time[26] 	0.004221722716
scalar tree_4_3_u10_r8_network.client[27] 	hdistance[27] 	2.5517836593786
scalar tree_4_3_u10_r8_network.client[27] 	downloads[27] 	12166
scalar tree_4_3_u10_r8_network.client[27] 	avg_time[27] 	0.00400855264
scalar tree_4_3_u10_r8_network.client[28] 	hdistance[28] 	2.5425010386373
scalar tree_4_3_u10_r8_network.client[28] 	downloads[28] 	12035
scalar tree_4_3_u10_r8_network.client[28] 	avg_time[28] 	0.004008638436
scalar tree_4_3_u10_r8_network.client[29] 	hdistance[29] 	2.5561443350997
scalar tree_4_3_u10_r8_network.client[29] 	downloads[29] 	11889
scalar tree_4_3_u10_r8_network.client[29] 	avg_time[29] 	0.004015978169
scalar tree_4_3_u10_r8_network.client[30] 	hdistance[30] 	2.5787960771052
scalar tree_4_3_u10_r8_network.client[30] 	downloads[30] 	11828
scalar tree_4_3_u10_r8_network.client[30] 	avg_time[30] 	0.004060362316
scalar tree_4_3_u10_r8_network.client[31] 	hdistance[31] 	2.6133399372627
scalar tree_4_3_u10_r8_network.client[31] 	downloads[31] 	12114
scalar tree_4_3_u10_r8_network.client[31] 	avg_time[31] 	0.004136140239
scalar tree_4_3_u10_r8_network.client[32] 	hdistance[32] 	2.55536926817
scalar tree_4_3_u10_r8_network.client[32] 	downloads[32] 	11929
scalar tree_4_3_u10_r8_network.client[32] 	avg_time[32] 	0.004021289672
scalar tree_4_3_u10_r8_network.client[33] 	hdistance[33] 	2.5723453908985
scalar tree_4_3_u10_r8_network.client[33] 	downloads[33] 	11998
scalar tree_4_3_u10_r8_network.client[33] 	avg_time[33] 	0.004036349591
scalar tree_4_3_u10_r8_network.client[34] 	hdistance[34] 	2.5382440971067
scalar tree_4_3_u10_r8_network.client[34] 	downloads[34] 	12028
scalar tree_4_3_u10_r8_network.client[34] 	avg_time[34] 	0.004001826068
scalar tree_4_3_u10_r8_network.client[35] 	hdistance[35] 	2.6337690271344
scalar tree_4_3_u10_r8_network.client[35] 	downloads[35] 	12088
scalar tree_4_3_u10_r8_network.client[35] 	avg_time[35] 	0.004159659468
scalar tree_4_3_u10_r8_network.client[36] 	hdistance[36] 	2.5767062189683
scalar tree_4_3_u10_r8_network.client[36] 	downloads[36] 	11883
scalar tree_4_3_u10_r8_network.client[36] 	avg_time[36] 	0.004034836693
scalar tree_4_3_u10_r8_network.client[37] 	hdistance[37] 	2.583103764922
scalar tree_4_3_u10_r8_network.client[37] 	downloads[37] 	11979
scalar tree_4_3_u10_r8_network.client[37] 	avg_time[37] 	0.004053590806
scalar tree_4_3_u10_r8_network.client[38] 	hdistance[38] 	2.5629385059843
scalar tree_4_3_u10_r8_network.client[38] 	downloads[38] 	12115
scalar tree_4_3_u10_r8_network.client[38] 	avg_time[38] 	0.004028226421
scalar tree_4_3_u10_r8_network.client[39] 	hdistance[39] 	2.6259134575909
scalar tree_4_3_u10_r8_network.client[39] 	downloads[39] 	12179
scalar tree_4_3_u10_r8_network.client[39] 	avg_time[39] 	0.004116426869
