version 2
run General-601-20160901-14:58:03-8710
attr a 0.9
attr cd ffc0.25
attr configname General
attr cr lru
attr datetime 20160901-14:58:03
attr experiment General
attr fsize 1
attr inifile hw5115/scenario_Y/omnetp.ini
attr iterationvars "$name=tree_4_3, $un=10, $rep=1, $cd=ffc0.25, $cr=lru, $fsize=1, $a=0.9, $sl=nrr, $ttl=1000, $variance=0.05"
attr iterationvars2 "$name=tree_4_3, $un=10, $rep=1, $cd=ffc0.25, $cr=lru, $fsize=1, $a=0.9, $sl=nrr, $ttl=1000, $variance=0.05, $repetition=0"
attr measurement "$name=tree_4_3, $un=10, $rep=1, $cd=ffc0.25, $cr=lru, $fsize=1, $a=0.9, $sl=nrr, $ttl=1000, $variance=0.05"
attr name tree_4_3
attr network networks.${name}_u${un}_r${rep}_network
attr processid 8710
attr rep 1
attr repetition 0
attr replication #0
attr resultdir results
attr runnumber 601
attr seedset 1
attr sl nrr
attr ttl 1000
attr un 10
attr variance 0.05

scalar . 	a 	0.9
scalar . 	fsize 	1
scalar . 	rep 	1
scalar . 	ttl 	1000
scalar . 	un 	10
scalar . 	variance 	0.05
scalar tree_4_3_u10_r1_network.content_distribution 	repo-0 	0
scalar tree_4_3_u10_r1_network.content_distribution 	client-0 	13
scalar tree_4_3_u10_r1_network.content_distribution 	client-1 	14
scalar tree_4_3_u10_r1_network.content_distribution 	client-2 	15
scalar tree_4_3_u10_r1_network.content_distribution 	client-3 	16
scalar tree_4_3_u10_r1_network.content_distribution 	client-4 	17
scalar tree_4_3_u10_r1_network.content_distribution 	client-5 	18
scalar tree_4_3_u10_r1_network.content_distribution 	client-6 	19
scalar tree_4_3_u10_r1_network.content_distribution 	client-7 	20
scalar tree_4_3_u10_r1_network.content_distribution 	client-8 	21
scalar tree_4_3_u10_r1_network.content_distribution 	client-9 	22
scalar tree_4_3_u10_r1_network.content_distribution 	client-10 	23
scalar tree_4_3_u10_r1_network.content_distribution 	client-11 	24
scalar tree_4_3_u10_r1_network.content_distribution 	client-12 	25
scalar tree_4_3_u10_r1_network.content_distribution 	client-13 	26
scalar tree_4_3_u10_r1_network.content_distribution 	client-14 	27
scalar tree_4_3_u10_r1_network.content_distribution 	client-15 	28
scalar tree_4_3_u10_r1_network.content_distribution 	client-16 	29
scalar tree_4_3_u10_r1_network.content_distribution 	client-17 	30
scalar tree_4_3_u10_r1_network.content_distribution 	client-18 	31
scalar tree_4_3_u10_r1_network.content_distribution 	client-19 	32
scalar tree_4_3_u10_r1_network.content_distribution 	client-20 	33
scalar tree_4_3_u10_r1_network.content_distribution 	client-21 	34
scalar tree_4_3_u10_r1_network.content_distribution 	client-22 	35
scalar tree_4_3_u10_r1_network.content_distribution 	client-23 	36
scalar tree_4_3_u10_r1_network.content_distribution 	client-24 	37
scalar tree_4_3_u10_r1_network.content_distribution 	client-25 	38
scalar tree_4_3_u10_r1_network.content_distribution 	client-26 	39
scalar tree_4_3_u10_r1_network.content_distribution 	repo-0_card 	100000
scalar tree_4_3_u10_r1_network.content_distribution 	repo-0_price 	0
scalar tree_4_3_u10_r1_network.statistics 	stabilization_time 	1938.1
scalar tree_4_3_u10_r1_network.statistics 	p_hit 	0.24762085862678
scalar tree_4_3_u10_r1_network.statistics 	interests 	24537.15
scalar tree_4_3_u10_r1_network.statistics 	data 	16425.7
scalar tree_4_3_u10_r1_network.statistics 	hdistance 	2.5746081101841
scalar tree_4_3_u10_r1_network.statistics 	avg_time 	0.004050211913
scalar tree_4_3_u10_r1_network.statistics 	downloads 	324452
scalar tree_4_3_u10_r1_network.statistics 	total_cost 	0
scalar tree_4_3_u10_r1_network.statistics 	total_replicas 	100000
scalar tree_4_3_u10_r1_network.statistics 	inner_hit 	0.45052889179293
scalar tree_4_3_u10_r1_network.node[0].core_layer 	interests[0] 	181207
scalar tree_4_3_u10_r1_network.node[0].core_layer 	repo_load[0] 	178277
scalar tree_4_3_u10_r1_network.node[0].core_layer 	data[0] 	0
scalar tree_4_3_u10_r1_network.node[0].core_layer 	repo_int[0] 	178277
scalar tree_4_3_u10_r1_network.node[0].content_store 	p_hit[0] 	0.016169353281054
scalar tree_4_3_u10_r1_network.node[0].content_store 	hits[0] 	2930
scalar tree_4_3_u10_r1_network.node[0].content_store 	misses[0] 	178277
scalar tree_4_3_u10_r1_network.node[0].content_store 	decision_yes[0] 	180
scalar tree_4_3_u10_r1_network.node[0].content_store 	decision_no[0] 	178097
scalar tree_4_3_u10_r1_network.node[0].content_store 	decision_ratio[0] 	0.0010096647352154
scalar tree_4_3_u10_r1_network.node[1].core_layer 	interests[1] 	137360
scalar tree_4_3_u10_r1_network.node[1].core_layer 	data[1] 	134197
scalar tree_4_3_u10_r1_network.node[1].content_store 	p_hit[1] 	0.023019801980198
scalar tree_4_3_u10_r1_network.node[1].content_store 	hits[1] 	3162
scalar tree_4_3_u10_r1_network.node[1].content_store 	misses[1] 	134198
scalar tree_4_3_u10_r1_network.node[1].content_store 	decision_yes[1] 	146
scalar tree_4_3_u10_r1_network.node[1].content_store 	decision_no[1] 	134051
scalar tree_4_3_u10_r1_network.node[1].content_store 	decision_ratio[1] 	0.0010879527858298
scalar tree_4_3_u10_r1_network.node[2].core_layer 	interests[2] 	54928
scalar tree_4_3_u10_r1_network.node[2].core_layer 	data[2] 	51684
scalar tree_4_3_u10_r1_network.node[2].content_store 	p_hit[2] 	0.059040926303525
scalar tree_4_3_u10_r1_network.node[2].content_store 	hits[2] 	3243
scalar tree_4_3_u10_r1_network.node[2].content_store 	misses[2] 	51685
scalar tree_4_3_u10_r1_network.node[2].content_store 	decision_yes[2] 	69
scalar tree_4_3_u10_r1_network.node[2].content_store 	decision_no[2] 	51615
scalar tree_4_3_u10_r1_network.node[2].content_store 	decision_ratio[2] 	0.0013350359879266
scalar tree_4_3_u10_r1_network.node[3].core_layer 	interests[3] 	13657
scalar tree_4_3_u10_r1_network.node[3].core_layer 	data[3] 	9990
scalar tree_4_3_u10_r1_network.node[3].content_store 	p_hit[3] 	0.26850699275097
scalar tree_4_3_u10_r1_network.node[3].content_store 	hits[3] 	3667
scalar tree_4_3_u10_r1_network.node[3].content_store 	misses[3] 	9990
scalar tree_4_3_u10_r1_network.node[3].content_store 	decision_yes[3] 	80
scalar tree_4_3_u10_r1_network.node[3].content_store 	decision_no[3] 	9910
scalar tree_4_3_u10_r1_network.node[3].content_store 	decision_ratio[3] 	0.008008008008008
scalar tree_4_3_u10_r1_network.node[4].core_layer 	interests[4] 	41774
scalar tree_4_3_u10_r1_network.node[4].core_layer 	data[4] 	39076
scalar tree_4_3_u10_r1_network.node[4].content_store 	p_hit[4] 	0.064585627423756
scalar tree_4_3_u10_r1_network.node[4].content_store 	hits[4] 	2698
scalar tree_4_3_u10_r1_network.node[4].content_store 	misses[4] 	39076
scalar tree_4_3_u10_r1_network.node[4].content_store 	decision_yes[4] 	75
scalar tree_4_3_u10_r1_network.node[4].content_store 	decision_no[4] 	39001
scalar tree_4_3_u10_r1_network.node[4].content_store 	decision_ratio[4] 	0.0019193366772443
scalar tree_4_3_u10_r1_network.node[5].core_layer 	interests[5] 	28963
scalar tree_4_3_u10_r1_network.node[5].core_layer 	data[5] 	25507
scalar tree_4_3_u10_r1_network.node[5].content_store 	p_hit[5] 	0.11935918240514
scalar tree_4_3_u10_r1_network.node[5].content_store 	hits[5] 	3457
scalar tree_4_3_u10_r1_network.node[5].content_store 	misses[5] 	25506
scalar tree_4_3_u10_r1_network.node[5].content_store 	decision_yes[5] 	64
scalar tree_4_3_u10_r1_network.node[5].content_store 	decision_no[5] 	25443
scalar tree_4_3_u10_r1_network.node[5].content_store 	decision_ratio[5] 	0.0025091151448622
scalar tree_4_3_u10_r1_network.node[6].core_layer 	interests[6] 	13845
scalar tree_4_3_u10_r1_network.node[6].core_layer 	data[6] 	10389
scalar tree_4_3_u10_r1_network.node[6].content_store 	p_hit[6] 	0.24962080173348
scalar tree_4_3_u10_r1_network.node[6].content_store 	hits[6] 	3456
scalar tree_4_3_u10_r1_network.node[6].content_store 	misses[6] 	10389
scalar tree_4_3_u10_r1_network.node[6].content_store 	decision_yes[6] 	70
scalar tree_4_3_u10_r1_network.node[6].content_store 	decision_no[6] 	10319
scalar tree_4_3_u10_r1_network.node[6].content_store 	decision_ratio[6] 	0.0067378958513813
scalar tree_4_3_u10_r1_network.node[7].core_layer 	interests[7] 	43370
scalar tree_4_3_u10_r1_network.node[7].core_layer 	data[7] 	39985
scalar tree_4_3_u10_r1_network.node[7].content_store 	p_hit[7] 	0.078049342863731
scalar tree_4_3_u10_r1_network.node[7].content_store 	hits[7] 	3385
scalar tree_4_3_u10_r1_network.node[7].content_store 	misses[7] 	39985
scalar tree_4_3_u10_r1_network.node[7].content_store 	decision_yes[7] 	72
scalar tree_4_3_u10_r1_network.node[7].content_store 	decision_no[7] 	39913
scalar tree_4_3_u10_r1_network.node[7].content_store 	decision_ratio[7] 	0.00180067525322
scalar tree_4_3_u10_r1_network.node[8].core_layer 	interests[8] 	26558
scalar tree_4_3_u10_r1_network.node[8].core_layer 	data[8] 	23796
scalar tree_4_3_u10_r1_network.node[8].content_store 	p_hit[8] 	0.10392348821447
scalar tree_4_3_u10_r1_network.node[8].content_store 	hits[8] 	2760
scalar tree_4_3_u10_r1_network.node[8].content_store 	misses[8] 	23798
scalar tree_4_3_u10_r1_network.node[8].content_store 	decision_yes[8] 	53
scalar tree_4_3_u10_r1_network.node[8].content_store 	decision_no[8] 	23743
scalar tree_4_3_u10_r1_network.node[8].content_store 	decision_ratio[8] 	0.0022272650865692
scalar tree_4_3_u10_r1_network.node[9].core_layer 	interests[9] 	13932
scalar tree_4_3_u10_r1_network.node[9].core_layer 	data[9] 	10455
scalar tree_4_3_u10_r1_network.node[9].content_store 	p_hit[9] 	0.24956933677864
scalar tree_4_3_u10_r1_network.node[9].content_store 	hits[9] 	3477
scalar tree_4_3_u10_r1_network.node[9].content_store 	misses[9] 	10455
scalar tree_4_3_u10_r1_network.node[9].content_store 	decision_yes[9] 	82
scalar tree_4_3_u10_r1_network.node[9].content_store 	decision_no[9] 	10373
scalar tree_4_3_u10_r1_network.node[9].content_store 	decision_ratio[9] 	0.007843137254902
scalar tree_4_3_u10_r1_network.node[10].core_layer 	interests[10] 	43675
scalar tree_4_3_u10_r1_network.node[10].core_layer 	data[10] 	40225
scalar tree_4_3_u10_r1_network.node[10].content_store 	p_hit[10] 	0.078969662278191
scalar tree_4_3_u10_r1_network.node[10].content_store 	hits[10] 	3449
scalar tree_4_3_u10_r1_network.node[10].content_store 	misses[10] 	40226
scalar tree_4_3_u10_r1_network.node[10].content_store 	decision_yes[10] 	71
scalar tree_4_3_u10_r1_network.node[10].content_store 	decision_no[10] 	40154
scalar tree_4_3_u10_r1_network.node[10].content_store 	decision_ratio[10] 	0.0017650714729646
scalar tree_4_3_u10_r1_network.node[11].core_layer 	interests[11] 	28201
scalar tree_4_3_u10_r1_network.node[11].core_layer 	data[11] 	25063
scalar tree_4_3_u10_r1_network.node[11].content_store 	p_hit[11] 	0.11127264990603
scalar tree_4_3_u10_r1_network.node[11].content_store 	hits[11] 	3138
scalar tree_4_3_u10_r1_network.node[11].content_store 	misses[11] 	25063
scalar tree_4_3_u10_r1_network.node[11].content_store 	decision_yes[11] 	61
scalar tree_4_3_u10_r1_network.node[11].content_store 	decision_no[11] 	25002
scalar tree_4_3_u10_r1_network.node[11].content_store 	decision_ratio[11] 	0.0024338666560268
scalar tree_4_3_u10_r1_network.node[12].core_layer 	interests[12] 	11933
scalar tree_4_3_u10_r1_network.node[12].core_layer 	data[12] 	9074
scalar tree_4_3_u10_r1_network.node[12].content_store 	p_hit[12] 	0.23958769798039
scalar tree_4_3_u10_r1_network.node[12].content_store 	hits[12] 	2859
scalar tree_4_3_u10_r1_network.node[12].content_store 	misses[12] 	9074
scalar tree_4_3_u10_r1_network.node[12].content_store 	decision_yes[12] 	40
scalar tree_4_3_u10_r1_network.node[12].content_store 	decision_no[12] 	9034
scalar tree_4_3_u10_r1_network.node[12].content_store 	decision_ratio[12] 	0.0044081992506061
scalar tree_4_3_u10_r1_network.node[13].core_layer 	interests[13] 	12524
scalar tree_4_3_u10_r1_network.node[13].core_layer 	data[13] 	8833
scalar tree_4_3_u10_r1_network.node[13].content_store 	p_hit[13] 	0.29471414883424
scalar tree_4_3_u10_r1_network.node[13].content_store 	hits[13] 	3691
scalar tree_4_3_u10_r1_network.node[13].content_store 	misses[13] 	8833
scalar tree_4_3_u10_r1_network.node[13].content_store 	decision_yes[13] 	31
scalar tree_4_3_u10_r1_network.node[13].content_store 	decision_no[13] 	8802
scalar tree_4_3_u10_r1_network.node[13].content_store 	decision_ratio[13] 	0.003509566398732
scalar tree_4_3_u10_r1_network.node[14].core_layer 	interests[14] 	13037
scalar tree_4_3_u10_r1_network.node[14].core_layer 	data[14] 	8899
scalar tree_4_3_u10_r1_network.node[14].content_store 	p_hit[14] 	0.3174043108077
scalar tree_4_3_u10_r1_network.node[14].content_store 	hits[14] 	4138
scalar tree_4_3_u10_r1_network.node[14].content_store 	misses[14] 	8899
scalar tree_4_3_u10_r1_network.node[14].content_store 	decision_yes[14] 	29
scalar tree_4_3_u10_r1_network.node[14].content_store 	decision_no[14] 	8870
scalar tree_4_3_u10_r1_network.node[14].content_store 	decision_ratio[14] 	0.0032587931228228
scalar tree_4_3_u10_r1_network.node[15].core_layer 	interests[15] 	12841
scalar tree_4_3_u10_r1_network.node[15].core_layer 	data[15] 	8802
scalar tree_4_3_u10_r1_network.node[15].content_store 	p_hit[15] 	0.31453936609298
scalar tree_4_3_u10_r1_network.node[15].content_store 	hits[15] 	4039
scalar tree_4_3_u10_r1_network.node[15].content_store 	misses[15] 	8802
scalar tree_4_3_u10_r1_network.node[15].content_store 	decision_yes[15] 	28
scalar tree_4_3_u10_r1_network.node[15].content_store 	decision_no[15] 	8774
scalar tree_4_3_u10_r1_network.node[15].content_store 	decision_ratio[15] 	0.0031810952056351
scalar tree_4_3_u10_r1_network.node[16].core_layer 	interests[16] 	13023
scalar tree_4_3_u10_r1_network.node[16].core_layer 	data[16] 	8943
scalar tree_4_3_u10_r1_network.node[16].content_store 	p_hit[16] 	0.31321508101052
scalar tree_4_3_u10_r1_network.node[16].content_store 	hits[16] 	4079
scalar tree_4_3_u10_r1_network.node[16].content_store 	misses[16] 	8944
scalar tree_4_3_u10_r1_network.node[16].content_store 	decision_yes[16] 	26
scalar tree_4_3_u10_r1_network.node[16].content_store 	decision_no[16] 	8917
scalar tree_4_3_u10_r1_network.node[16].content_store 	decision_ratio[16] 	0.0029073018002907
scalar tree_4_3_u10_r1_network.node[17].core_layer 	interests[17] 	12551
scalar tree_4_3_u10_r1_network.node[17].core_layer 	data[17] 	8744
scalar tree_4_3_u10_r1_network.node[17].content_store 	p_hit[17] 	0.30332244442674
scalar tree_4_3_u10_r1_network.node[17].content_store 	hits[17] 	3807
scalar tree_4_3_u10_r1_network.node[17].content_store 	misses[17] 	8744
scalar tree_4_3_u10_r1_network.node[17].content_store 	decision_yes[17] 	28
scalar tree_4_3_u10_r1_network.node[17].content_store 	decision_no[17] 	8716
scalar tree_4_3_u10_r1_network.node[17].content_store 	decision_ratio[17] 	0.0032021957913998
scalar tree_4_3_u10_r1_network.node[18].core_layer 	interests[18] 	12773
scalar tree_4_3_u10_r1_network.node[18].core_layer 	data[18] 	8750
scalar tree_4_3_u10_r1_network.node[18].content_store 	p_hit[18] 	0.31496124637908
scalar tree_4_3_u10_r1_network.node[18].content_store 	hits[18] 	4023
scalar tree_4_3_u10_r1_network.node[18].content_store 	misses[18] 	8750
scalar tree_4_3_u10_r1_network.node[18].content_store 	decision_yes[18] 	36
scalar tree_4_3_u10_r1_network.node[18].content_store 	decision_no[18] 	8714
scalar tree_4_3_u10_r1_network.node[18].content_store 	decision_ratio[18] 	0.0041142857142857
scalar tree_4_3_u10_r1_network.node[19].core_layer 	interests[19] 	12850
scalar tree_4_3_u10_r1_network.node[19].core_layer 	data[19] 	8806
scalar tree_4_3_u10_r1_network.node[19].content_store 	p_hit[19] 	0.31470817120623
scalar tree_4_3_u10_r1_network.node[19].content_store 	hits[19] 	4044
scalar tree_4_3_u10_r1_network.node[19].content_store 	misses[19] 	8806
scalar tree_4_3_u10_r1_network.node[19].content_store 	decision_yes[19] 	37
scalar tree_4_3_u10_r1_network.node[19].content_store 	decision_no[19] 	8769
scalar tree_4_3_u10_r1_network.node[19].content_store 	decision_ratio[19] 	0.0042016806722689
scalar tree_4_3_u10_r1_network.node[20].core_layer 	interests[20] 	12832
scalar tree_4_3_u10_r1_network.node[20].core_layer 	data[20] 	8886
scalar tree_4_3_u10_r1_network.node[20].content_store 	p_hit[20] 	0.30759039900249
scalar tree_4_3_u10_r1_network.node[20].content_store 	hits[20] 	3947
scalar tree_4_3_u10_r1_network.node[20].content_store 	misses[20] 	8885
scalar tree_4_3_u10_r1_network.node[20].content_store 	decision_yes[20] 	27
scalar tree_4_3_u10_r1_network.node[20].content_store 	decision_no[20] 	8859
scalar tree_4_3_u10_r1_network.node[20].content_store 	decision_ratio[20] 	0.0030384875084402
scalar tree_4_3_u10_r1_network.node[21].core_layer 	interests[21] 	12397
scalar tree_4_3_u10_r1_network.node[21].core_layer 	data[21] 	8794
scalar tree_4_3_u10_r1_network.node[21].content_store 	p_hit[21] 	0.29055416633056
scalar tree_4_3_u10_r1_network.node[21].content_store 	hits[21] 	3602
scalar tree_4_3_u10_r1_network.node[21].content_store 	misses[21] 	8795
scalar tree_4_3_u10_r1_network.node[21].content_store 	decision_yes[21] 	30
scalar tree_4_3_u10_r1_network.node[21].content_store 	decision_no[21] 	8764
scalar tree_4_3_u10_r1_network.node[21].content_store 	decision_ratio[21] 	0.0034114168751421
scalar tree_4_3_u10_r1_network.node[22].core_layer 	interests[22] 	12307
scalar tree_4_3_u10_r1_network.node[22].core_layer 	data[22] 	8591
scalar tree_4_3_u10_r1_network.node[22].content_store 	p_hit[22] 	0.30194198423661
scalar tree_4_3_u10_r1_network.node[22].content_store 	hits[22] 	3716
scalar tree_4_3_u10_r1_network.node[22].content_store 	misses[22] 	8591
scalar tree_4_3_u10_r1_network.node[22].content_store 	decision_yes[22] 	25
scalar tree_4_3_u10_r1_network.node[22].content_store 	decision_no[22] 	8566
scalar tree_4_3_u10_r1_network.node[22].content_store 	decision_ratio[22] 	0.0029100221161681
scalar tree_4_3_u10_r1_network.node[23].core_layer 	interests[23] 	12734
scalar tree_4_3_u10_r1_network.node[23].core_layer 	data[23] 	8710
scalar tree_4_3_u10_r1_network.node[23].content_store 	p_hit[23] 	0.31592586775561
scalar tree_4_3_u10_r1_network.node[23].content_store 	hits[23] 	4023
scalar tree_4_3_u10_r1_network.node[23].content_store 	misses[23] 	8711
scalar tree_4_3_u10_r1_network.node[23].content_store 	decision_yes[23] 	22
scalar tree_4_3_u10_r1_network.node[23].content_store 	decision_no[23] 	8688
scalar tree_4_3_u10_r1_network.node[23].content_store 	decision_ratio[23] 	0.0025258323765786
scalar tree_4_3_u10_r1_network.node[24].core_layer 	interests[24] 	12692
scalar tree_4_3_u10_r1_network.node[24].core_layer 	data[24] 	8749
scalar tree_4_3_u10_r1_network.node[24].content_store 	p_hit[24] 	0.31066813740939
scalar tree_4_3_u10_r1_network.node[24].content_store 	hits[24] 	3943
scalar tree_4_3_u10_r1_network.node[24].content_store 	misses[24] 	8749
scalar tree_4_3_u10_r1_network.node[24].content_store 	decision_yes[24] 	27
scalar tree_4_3_u10_r1_network.node[24].content_store 	decision_no[24] 	8722
scalar tree_4_3_u10_r1_network.node[24].content_store 	decision_ratio[24] 	0.0030860669790833
scalar tree_4_3_u10_r1_network.node[25].core_layer 	interests[25] 	12792
scalar tree_4_3_u10_r1_network.node[25].core_layer 	data[25] 	8864
scalar tree_4_3_u10_r1_network.node[25].content_store 	p_hit[25] 	0.30706691682301
scalar tree_4_3_u10_r1_network.node[25].content_store 	hits[25] 	3928
scalar tree_4_3_u10_r1_network.node[25].content_store 	misses[25] 	8864
scalar tree_4_3_u10_r1_network.node[25].content_store 	decision_yes[25] 	33
scalar tree_4_3_u10_r1_network.node[25].content_store 	decision_no[25] 	8831
scalar tree_4_3_u10_r1_network.node[25].content_store 	decision_ratio[25] 	0.0037229241877256
scalar tree_4_3_u10_r1_network.node[26].core_layer 	interests[26] 	12359
scalar tree_4_3_u10_r1_network.node[26].core_layer 	data[26] 	8781
scalar tree_4_3_u10_r1_network.node[26].content_store 	p_hit[26] 	0.28942471073711
scalar tree_4_3_u10_r1_network.node[26].content_store 	hits[26] 	3577
scalar tree_4_3_u10_r1_network.node[26].content_store 	misses[26] 	8782
scalar tree_4_3_u10_r1_network.node[26].content_store 	decision_yes[26] 	23
scalar tree_4_3_u10_r1_network.node[26].content_store 	decision_no[26] 	8758
scalar tree_4_3_u10_r1_network.node[26].content_store 	decision_ratio[26] 	0.0026192916524314
scalar tree_4_3_u10_r1_network.node[27].core_layer 	interests[27] 	12703
scalar tree_4_3_u10_r1_network.node[27].core_layer 	data[27] 	8763
scalar tree_4_3_u10_r1_network.node[27].content_store 	p_hit[27] 	0.310162953633
scalar tree_4_3_u10_r1_network.node[27].content_store 	hits[27] 	3940
scalar tree_4_3_u10_r1_network.node[27].content_store 	misses[27] 	8763
scalar tree_4_3_u10_r1_network.node[27].content_store 	decision_yes[27] 	22
scalar tree_4_3_u10_r1_network.node[27].content_store 	decision_no[27] 	8741
scalar tree_4_3_u10_r1_network.node[27].content_store 	decision_ratio[27] 	0.0025105557457492
scalar tree_4_3_u10_r1_network.node[28].core_layer 	interests[28] 	12918
scalar tree_4_3_u10_r1_network.node[28].core_layer 	data[28] 	8908
scalar tree_4_3_u10_r1_network.node[28].content_store 	p_hit[28] 	0.31041956959282
scalar tree_4_3_u10_r1_network.node[28].content_store 	hits[28] 	4010
scalar tree_4_3_u10_r1_network.node[28].content_store 	misses[28] 	8908
scalar tree_4_3_u10_r1_network.node[28].content_store 	decision_yes[28] 	34
scalar tree_4_3_u10_r1_network.node[28].content_store 	decision_no[28] 	8874
scalar tree_4_3_u10_r1_network.node[28].content_store 	decision_ratio[28] 	0.0038167938931298
scalar tree_4_3_u10_r1_network.node[29].core_layer 	interests[29] 	12823
scalar tree_4_3_u10_r1_network.node[29].core_layer 	data[29] 	8821
scalar tree_4_3_u10_r1_network.node[29].content_store 	p_hit[29] 	0.31201746861109
scalar tree_4_3_u10_r1_network.node[29].content_store 	hits[29] 	4001
scalar tree_4_3_u10_r1_network.node[29].content_store 	misses[29] 	8822
scalar tree_4_3_u10_r1_network.node[29].content_store 	decision_yes[29] 	34
scalar tree_4_3_u10_r1_network.node[29].content_store 	decision_no[29] 	8787
scalar tree_4_3_u10_r1_network.node[29].content_store 	decision_ratio[29] 	0.0038544382723047
scalar tree_4_3_u10_r1_network.node[30].core_layer 	interests[30] 	12292
scalar tree_4_3_u10_r1_network.node[30].core_layer 	data[30] 	8780
scalar tree_4_3_u10_r1_network.node[30].content_store 	p_hit[30] 	0.28571428571429
scalar tree_4_3_u10_r1_network.node[30].content_store 	hits[30] 	3512
scalar tree_4_3_u10_r1_network.node[30].content_store 	misses[30] 	8780
scalar tree_4_3_u10_r1_network.node[30].content_store 	decision_yes[30] 	18
scalar tree_4_3_u10_r1_network.node[30].content_store 	decision_no[30] 	8762
scalar tree_4_3_u10_r1_network.node[30].content_store 	decision_ratio[30] 	0.0020501138952164
scalar tree_4_3_u10_r1_network.node[31].core_layer 	interests[31] 	12381
scalar tree_4_3_u10_r1_network.node[31].core_layer 	data[31] 	8650
scalar tree_4_3_u10_r1_network.node[31].content_store 	p_hit[31] 	0.301348840966
scalar tree_4_3_u10_r1_network.node[31].content_store 	hits[31] 	3731
scalar tree_4_3_u10_r1_network.node[31].content_store 	misses[31] 	8650
scalar tree_4_3_u10_r1_network.node[31].content_store 	decision_yes[31] 	26
scalar tree_4_3_u10_r1_network.node[31].content_store 	decision_no[31] 	8624
scalar tree_4_3_u10_r1_network.node[31].content_store 	decision_ratio[31] 	0.0030057803468208
scalar tree_4_3_u10_r1_network.node[32].core_layer 	interests[32] 	13064
scalar tree_4_3_u10_r1_network.node[32].core_layer 	data[32] 	9062
scalar tree_4_3_u10_r1_network.node[32].content_store 	p_hit[32] 	0.30626148193509
scalar tree_4_3_u10_r1_network.node[32].content_store 	hits[32] 	4001
scalar tree_4_3_u10_r1_network.node[32].content_store 	misses[32] 	9063
scalar tree_4_3_u10_r1_network.node[32].content_store 	decision_yes[32] 	29
scalar tree_4_3_u10_r1_network.node[32].content_store 	decision_no[32] 	9033
scalar tree_4_3_u10_r1_network.node[32].content_store 	decision_ratio[32] 	0.0032001765614655
scalar tree_4_3_u10_r1_network.node[33].core_layer 	interests[33] 	12766
scalar tree_4_3_u10_r1_network.node[33].core_layer 	data[33] 	8751
scalar tree_4_3_u10_r1_network.node[33].content_store 	p_hit[33] 	0.31450728497572
scalar tree_4_3_u10_r1_network.node[33].content_store 	hits[33] 	4015
scalar tree_4_3_u10_r1_network.node[33].content_store 	misses[33] 	8751
scalar tree_4_3_u10_r1_network.node[33].content_store 	decision_yes[33] 	27
scalar tree_4_3_u10_r1_network.node[33].content_store 	decision_no[33] 	8724
scalar tree_4_3_u10_r1_network.node[33].content_store 	decision_ratio[33] 	0.0030853616729517
scalar tree_4_3_u10_r1_network.node[34].core_layer 	interests[34] 	12943
scalar tree_4_3_u10_r1_network.node[34].core_layer 	data[34] 	8882
scalar tree_4_3_u10_r1_network.node[34].content_store 	p_hit[34] 	0.31376033377115
scalar tree_4_3_u10_r1_network.node[34].content_store 	hits[34] 	4061
scalar tree_4_3_u10_r1_network.node[34].content_store 	misses[34] 	8882
scalar tree_4_3_u10_r1_network.node[34].content_store 	decision_yes[34] 	34
scalar tree_4_3_u10_r1_network.node[34].content_store 	decision_no[34] 	8848
scalar tree_4_3_u10_r1_network.node[34].content_store 	decision_ratio[34] 	0.0038279666741725
scalar tree_4_3_u10_r1_network.node[35].core_layer 	interests[35] 	12280
scalar tree_4_3_u10_r1_network.node[35].core_layer 	data[35] 	8686
scalar tree_4_3_u10_r1_network.node[35].content_store 	p_hit[35] 	0.29267100977199
scalar tree_4_3_u10_r1_network.node[35].content_store 	hits[35] 	3594
scalar tree_4_3_u10_r1_network.node[35].content_store 	misses[35] 	8686
scalar tree_4_3_u10_r1_network.node[35].content_store 	decision_yes[35] 	24
scalar tree_4_3_u10_r1_network.node[35].content_store 	decision_no[35] 	8662
scalar tree_4_3_u10_r1_network.node[35].content_store 	decision_ratio[35] 	0.0027630670043749
scalar tree_4_3_u10_r1_network.node[36].core_layer 	interests[36] 	12686
scalar tree_4_3_u10_r1_network.node[36].core_layer 	data[36] 	8830
scalar tree_4_3_u10_r1_network.node[36].content_store 	p_hit[36] 	0.30395711808293
scalar tree_4_3_u10_r1_network.node[36].content_store 	hits[36] 	3856
scalar tree_4_3_u10_r1_network.node[36].content_store 	misses[36] 	8830
scalar tree_4_3_u10_r1_network.node[36].content_store 	decision_yes[36] 	28
scalar tree_4_3_u10_r1_network.node[36].content_store 	decision_no[36] 	8802
scalar tree_4_3_u10_r1_network.node[36].content_store 	decision_ratio[36] 	0.0031710079275198
scalar tree_4_3_u10_r1_network.node[37].core_layer 	interests[37] 	12827
scalar tree_4_3_u10_r1_network.node[37].core_layer 	data[37] 	8911
scalar tree_4_3_u10_r1_network.node[37].content_store 	p_hit[37] 	0.30529352147813
scalar tree_4_3_u10_r1_network.node[37].content_store 	hits[37] 	3916
scalar tree_4_3_u10_r1_network.node[37].content_store 	misses[37] 	8911
scalar tree_4_3_u10_r1_network.node[37].content_store 	decision_yes[37] 	33
scalar tree_4_3_u10_r1_network.node[37].content_store 	decision_no[37] 	8878
scalar tree_4_3_u10_r1_network.node[37].content_store 	decision_ratio[37] 	0.0037032880709236
scalar tree_4_3_u10_r1_network.node[38].core_layer 	interests[38] 	12433
scalar tree_4_3_u10_r1_network.node[38].core_layer 	data[38] 	8648
scalar tree_4_3_u10_r1_network.node[38].content_store 	p_hit[38] 	0.30443175420253
scalar tree_4_3_u10_r1_network.node[38].content_store 	hits[38] 	3785
scalar tree_4_3_u10_r1_network.node[38].content_store 	misses[38] 	8648
scalar tree_4_3_u10_r1_network.node[38].content_store 	decision_yes[38] 	29
scalar tree_4_3_u10_r1_network.node[38].content_store 	decision_no[38] 	8619
scalar tree_4_3_u10_r1_network.node[38].content_store 	decision_ratio[38] 	0.0033533765032377
scalar tree_4_3_u10_r1_network.node[39].core_layer 	interests[39] 	12255
scalar tree_4_3_u10_r1_network.node[39].core_layer 	data[39] 	8743
scalar tree_4_3_u10_r1_network.node[39].content_store 	p_hit[39] 	0.28657690738474
scalar tree_4_3_u10_r1_network.node[39].content_store 	hits[39] 	3512
scalar tree_4_3_u10_r1_network.node[39].content_store 	misses[39] 	8743
scalar tree_4_3_u10_r1_network.node[39].content_store 	decision_yes[39] 	24
scalar tree_4_3_u10_r1_network.node[39].content_store 	decision_no[39] 	8719
scalar tree_4_3_u10_r1_network.node[39].content_store 	decision_ratio[39] 	0.0027450531854055
scalar tree_4_3_u10_r1_network.client[13] 	hdistance[13] 	2.6549751243781
scalar tree_4_3_u10_r1_network.client[13] 	downloads[13] 	12060
scalar tree_4_3_u10_r1_network.client[13] 	avg_time[13] 	0.004168653716
scalar tree_4_3_u10_r1_network.client[14] 	hdistance[14] 	2.5397633913901
scalar tree_4_3_u10_r1_network.client[14] 	downloads[14] 	12172
scalar tree_4_3_u10_r1_network.client[14] 	avg_time[14] 	0.004001954696
scalar tree_4_3_u10_r1_network.client[15] 	hdistance[15] 	2.5626199415937
scalar tree_4_3_u10_r1_network.client[15] 	downloads[15] 	11985
scalar tree_4_3_u10_r1_network.client[15] 	avg_time[15] 	0.004030034571
scalar tree_4_3_u10_r1_network.client[16] 	hdistance[16] 	2.5746176105829
scalar tree_4_3_u10_r1_network.client[16] 	downloads[16] 	12095
scalar tree_4_3_u10_r1_network.client[16] 	avg_time[16] 	0.00405721068
scalar tree_4_3_u10_r1_network.client[17] 	hdistance[17] 	2.5730216421609
scalar tree_4_3_u10_r1_network.client[17] 	downloads[17] 	12106
scalar tree_4_3_u10_r1_network.client[17] 	avg_time[17] 	0.004064758227
scalar tree_4_3_u10_r1_network.client[18] 	hdistance[18] 	2.5396626586506
scalar tree_4_3_u10_r1_network.client[18] 	downloads[18] 	11976
scalar tree_4_3_u10_r1_network.client[18] 	avg_time[18] 	0.003990978961
scalar tree_4_3_u10_r1_network.client[19] 	hdistance[19] 	2.540354656944
scalar tree_4_3_u10_r1_network.client[19] 	downloads[19] 	12068
scalar tree_4_3_u10_r1_network.client[19] 	avg_time[19] 	0.00399386507
scalar tree_4_3_u10_r1_network.client[20] 	hdistance[20] 	2.5593052109181
scalar tree_4_3_u10_r1_network.client[20] 	downloads[20] 	12090
scalar tree_4_3_u10_r1_network.client[20] 	avg_time[20] 	0.004020344392
scalar tree_4_3_u10_r1_network.client[21] 	hdistance[21] 	2.6029716941977
scalar tree_4_3_u10_r1_network.client[21] 	downloads[21] 	12047
scalar tree_4_3_u10_r1_network.client[21] 	avg_time[21] 	0.004101599047
scalar tree_4_3_u10_r1_network.client[22] 	hdistance[22] 	2.6060708835001
scalar tree_4_3_u10_r1_network.client[22] 	downloads[22] 	11794
scalar tree_4_3_u10_r1_network.client[22] 	avg_time[22] 	0.004123619218
scalar tree_4_3_u10_r1_network.client[23] 	hdistance[23] 	2.5427995971803
scalar tree_4_3_u10_r1_network.client[23] 	downloads[23] 	11916
scalar tree_4_3_u10_r1_network.client[23] 	avg_time[23] 	0.004002178954
scalar tree_4_3_u10_r1_network.client[24] 	hdistance[24] 	2.5399613412892
scalar tree_4_3_u10_r1_network.client[24] 	downloads[24] 	11899
scalar tree_4_3_u10_r1_network.client[24] 	avg_time[24] 	0.003996971573
scalar tree_4_3_u10_r1_network.client[25] 	hdistance[25] 	2.5811766663893
scalar tree_4_3_u10_r1_network.client[25] 	downloads[25] 	12017
scalar tree_4_3_u10_r1_network.client[25] 	avg_time[25] 	0.004060910686
scalar tree_4_3_u10_r1_network.client[26] 	hdistance[26] 	2.6508796798132
scalar tree_4_3_u10_r1_network.client[26] 	downloads[26] 	11993
scalar tree_4_3_u10_r1_network.client[26] 	avg_time[26] 	0.004153920119
scalar tree_4_3_u10_r1_network.client[27] 	hdistance[27] 	2.5533778148457
scalar tree_4_3_u10_r1_network.client[27] 	downloads[27] 	11990
scalar tree_4_3_u10_r1_network.client[27] 	avg_time[27] 	0.004000461205
scalar tree_4_3_u10_r1_network.client[28] 	hdistance[28] 	2.5574793973196
scalar tree_4_3_u10_r1_network.client[28] 	downloads[28] 	12013
scalar tree_4_3_u10_r1_network.client[28] 	avg_time[28] 	0.00402563592
scalar tree_4_3_u10_r1_network.client[29] 	hdistance[29] 	2.5454169424222
scalar tree_4_3_u10_r1_network.client[29] 	downloads[29] 	12088
scalar tree_4_3_u10_r1_network.client[29] 	avg_time[29] 	0.00399404069
scalar tree_4_3_u10_r1_network.client[30] 	hdistance[30] 	2.6125960574674
scalar tree_4_3_u10_r1_network.client[30] 	downloads[30] 	11972
scalar tree_4_3_u10_r1_network.client[30] 	avg_time[30] 	0.00411676949
scalar tree_4_3_u10_r1_network.client[31] 	hdistance[31] 	2.5835490605428
scalar tree_4_3_u10_r1_network.client[31] 	downloads[31] 	11975
scalar tree_4_3_u10_r1_network.client[31] 	avg_time[31] 	0.004079099079
scalar tree_4_3_u10_r1_network.client[32] 	hdistance[32] 	2.5552483941784
scalar tree_4_3_u10_r1_network.client[32] 	downloads[32] 	12299
scalar tree_4_3_u10_r1_network.client[32] 	avg_time[32] 	0.004021508728
scalar tree_4_3_u10_r1_network.client[33] 	hdistance[33] 	2.555993955675
scalar tree_4_3_u10_r1_network.client[33] 	downloads[33] 	11912
scalar tree_4_3_u10_r1_network.client[33] 	avg_time[33] 	0.004021823746
scalar tree_4_3_u10_r1_network.client[34] 	hdistance[34] 	2.524783248814
scalar tree_4_3_u10_r1_network.client[34] 	downloads[34] 	12226
scalar tree_4_3_u10_r1_network.client[34] 	avg_time[34] 	0.003982166121
scalar tree_4_3_u10_r1_network.client[35] 	hdistance[35] 	2.6196886832141
scalar tree_4_3_u10_r1_network.client[35] 	downloads[35] 	11885
scalar tree_4_3_u10_r1_network.client[35] 	avg_time[35] 	0.004127216212
scalar tree_4_3_u10_r1_network.client[36] 	hdistance[36] 	2.5692320548174
scalar tree_4_3_u10_r1_network.client[36] 	downloads[36] 	11967
scalar tree_4_3_u10_r1_network.client[36] 	avg_time[36] 	0.004034759279
scalar tree_4_3_u10_r1_network.client[37] 	hdistance[37] 	2.5763206132311
scalar tree_4_3_u10_r1_network.client[37] 	downloads[37] 	12002
scalar tree_4_3_u10_r1_network.client[37] 	avg_time[37] 	0.004051155144
scalar tree_4_3_u10_r1_network.client[38] 	hdistance[38] 	2.5574736842105
scalar tree_4_3_u10_r1_network.client[38] 	downloads[38] 	11875
scalar tree_4_3_u10_r1_network.client[38] 	avg_time[38] 	0.004008902079
scalar tree_4_3_u10_r1_network.client[39] 	hdistance[39] 	2.6350789692435
scalar tree_4_3_u10_r1_network.client[39] 	downloads[39] 	12030
scalar tree_4_3_u10_r1_network.client[39] 	avg_time[39] 	0.004125184048
