version 2
run General-610-20160901-15:16:26-8710
attr a 0.9
attr cd ffc0.25
attr configname General
attr cr lru
attr datetime 20160901-15:16:26
attr experiment General
attr fsize 1
attr inifile hw5115/scenario_Y/omnetp.ini
attr iterationvars "$name=tree_4_3, $un=10, $rep=4, $cd=ffc0.25, $cr=lru, $fsize=1, $a=0.9, $sl=nrr, $ttl=1000, $variance=0.05"
attr iterationvars2 "$name=tree_4_3, $un=10, $rep=4, $cd=ffc0.25, $cr=lru, $fsize=1, $a=0.9, $sl=nrr, $ttl=1000, $variance=0.05, $repetition=0"
attr measurement "$name=tree_4_3, $un=10, $rep=4, $cd=ffc0.25, $cr=lru, $fsize=1, $a=0.9, $sl=nrr, $ttl=1000, $variance=0.05"
attr name tree_4_3
attr network networks.${name}_u${un}_r${rep}_network
attr processid 8710
attr rep 4
attr repetition 0
attr replication #0
attr resultdir results
attr runnumber 610
attr seedset 4
attr sl nrr
attr ttl 1000
attr un 10
attr variance 0.05

scalar . 	a 	0.9
scalar . 	fsize 	1
scalar . 	rep 	4
scalar . 	ttl 	1000
scalar . 	un 	10
scalar . 	variance 	0.05
scalar tree_4_3_u10_r4_network.content_distribution 	repo-0 	0
scalar tree_4_3_u10_r4_network.content_distribution 	client-0 	13
scalar tree_4_3_u10_r4_network.content_distribution 	client-1 	14
scalar tree_4_3_u10_r4_network.content_distribution 	client-2 	15
scalar tree_4_3_u10_r4_network.content_distribution 	client-3 	16
scalar tree_4_3_u10_r4_network.content_distribution 	client-4 	17
scalar tree_4_3_u10_r4_network.content_distribution 	client-5 	18
scalar tree_4_3_u10_r4_network.content_distribution 	client-6 	19
scalar tree_4_3_u10_r4_network.content_distribution 	client-7 	20
scalar tree_4_3_u10_r4_network.content_distribution 	client-8 	21
scalar tree_4_3_u10_r4_network.content_distribution 	client-9 	22
scalar tree_4_3_u10_r4_network.content_distribution 	client-10 	23
scalar tree_4_3_u10_r4_network.content_distribution 	client-11 	24
scalar tree_4_3_u10_r4_network.content_distribution 	client-12 	25
scalar tree_4_3_u10_r4_network.content_distribution 	client-13 	26
scalar tree_4_3_u10_r4_network.content_distribution 	client-14 	27
scalar tree_4_3_u10_r4_network.content_distribution 	client-15 	28
scalar tree_4_3_u10_r4_network.content_distribution 	client-16 	29
scalar tree_4_3_u10_r4_network.content_distribution 	client-17 	30
scalar tree_4_3_u10_r4_network.content_distribution 	client-18 	31
scalar tree_4_3_u10_r4_network.content_distribution 	client-19 	32
scalar tree_4_3_u10_r4_network.content_distribution 	client-20 	33
scalar tree_4_3_u10_r4_network.content_distribution 	client-21 	34
scalar tree_4_3_u10_r4_network.content_distribution 	client-22 	35
scalar tree_4_3_u10_r4_network.content_distribution 	client-23 	36
scalar tree_4_3_u10_r4_network.content_distribution 	client-24 	37
scalar tree_4_3_u10_r4_network.content_distribution 	client-25 	38
scalar tree_4_3_u10_r4_network.content_distribution 	client-26 	39
scalar tree_4_3_u10_r4_network.content_distribution 	repo-0_card 	100000
scalar tree_4_3_u10_r4_network.content_distribution 	repo-0_price 	0
scalar tree_4_3_u10_r4_network.statistics 	stabilization_time 	1618.4
scalar tree_4_3_u10_r4_network.statistics 	p_hit 	0.24539842928112
scalar tree_4_3_u10_r4_network.statistics 	interests 	24500
scalar tree_4_3_u10_r4_network.statistics 	data 	16419.35
scalar tree_4_3_u10_r4_network.statistics 	hdistance 	2.5827704296924
scalar tree_4_3_u10_r4_network.statistics 	avg_time 	0.004063935239
scalar tree_4_3_u10_r4_network.statistics 	downloads 	323211
scalar tree_4_3_u10_r4_network.statistics 	total_cost 	0
scalar tree_4_3_u10_r4_network.statistics 	total_replicas 	100000
scalar tree_4_3_u10_r4_network.statistics 	inner_hit 	0.4491988205847
scalar tree_4_3_u10_r4_network.node[0].core_layer 	interests[0] 	181032
scalar tree_4_3_u10_r4_network.node[0].core_layer 	repo_load[0] 	178025
scalar tree_4_3_u10_r4_network.node[0].core_layer 	data[0] 	0
scalar tree_4_3_u10_r4_network.node[0].core_layer 	repo_int[0] 	178025
scalar tree_4_3_u10_r4_network.node[0].content_store 	p_hit[0] 	0.016610323036811
scalar tree_4_3_u10_r4_network.node[0].content_store 	hits[0] 	3007
scalar tree_4_3_u10_r4_network.node[0].content_store 	misses[0] 	178025
scalar tree_4_3_u10_r4_network.node[0].content_store 	decision_yes[0] 	193
scalar tree_4_3_u10_r4_network.node[0].content_store 	decision_no[0] 	177832
scalar tree_4_3_u10_r4_network.node[0].content_store 	decision_ratio[0] 	0.0010841173992417
scalar tree_4_3_u10_r4_network.node[1].core_layer 	interests[1] 	137594
scalar tree_4_3_u10_r4_network.node[1].core_layer 	data[1] 	134268
scalar tree_4_3_u10_r4_network.node[1].content_store 	p_hit[1] 	0.024150762387895
scalar tree_4_3_u10_r4_network.node[1].content_store 	hits[1] 	3323
scalar tree_4_3_u10_r4_network.node[1].content_store 	misses[1] 	134271
scalar tree_4_3_u10_r4_network.node[1].content_store 	decision_yes[1] 	155
scalar tree_4_3_u10_r4_network.node[1].content_store 	decision_no[1] 	134113
scalar tree_4_3_u10_r4_network.node[1].content_store 	decision_ratio[1] 	0.001154407602705
scalar tree_4_3_u10_r4_network.node[2].core_layer 	interests[2] 	55122
scalar tree_4_3_u10_r4_network.node[2].core_layer 	data[2] 	51600
scalar tree_4_3_u10_r4_network.node[2].content_store 	p_hit[2] 	0.063894633721563
scalar tree_4_3_u10_r4_network.node[2].content_store 	hits[2] 	3522
scalar tree_4_3_u10_r4_network.node[2].content_store 	misses[2] 	51600
scalar tree_4_3_u10_r4_network.node[2].content_store 	decision_yes[2] 	78
scalar tree_4_3_u10_r4_network.node[2].content_store 	decision_no[2] 	51522
scalar tree_4_3_u10_r4_network.node[2].content_store 	decision_ratio[2] 	0.0015116279069767
scalar tree_4_3_u10_r4_network.node[3].core_layer 	interests[3] 	13173
scalar tree_4_3_u10_r4_network.node[3].core_layer 	data[3] 	9915
scalar tree_4_3_u10_r4_network.node[3].content_store 	p_hit[3] 	0.24732407196538
scalar tree_4_3_u10_r4_network.node[3].content_store 	hits[3] 	3258
scalar tree_4_3_u10_r4_network.node[3].content_store 	misses[3] 	9915
scalar tree_4_3_u10_r4_network.node[3].content_store 	decision_yes[3] 	56
scalar tree_4_3_u10_r4_network.node[3].content_store 	decision_no[3] 	9859
scalar tree_4_3_u10_r4_network.node[3].content_store 	decision_ratio[3] 	0.005648008068583
scalar tree_4_3_u10_r4_network.node[4].core_layer 	interests[4] 	41690
scalar tree_4_3_u10_r4_network.node[4].core_layer 	data[4] 	38771
scalar tree_4_3_u10_r4_network.node[4].content_store 	p_hit[4] 	0.069968817462221
scalar tree_4_3_u10_r4_network.node[4].content_store 	hits[4] 	2917
scalar tree_4_3_u10_r4_network.node[4].content_store 	misses[4] 	38773
scalar tree_4_3_u10_r4_network.node[4].content_store 	decision_yes[4] 	54
scalar tree_4_3_u10_r4_network.node[4].content_store 	decision_no[4] 	38717
scalar tree_4_3_u10_r4_network.node[4].content_store 	decision_ratio[4] 	0.0013927935828325
scalar tree_4_3_u10_r4_network.node[5].core_layer 	interests[5] 	29249
scalar tree_4_3_u10_r4_network.node[5].core_layer 	data[5] 	25666
scalar tree_4_3_u10_r4_network.node[5].content_store 	p_hit[5] 	0.12249991452699
scalar tree_4_3_u10_r4_network.node[5].content_store 	hits[5] 	3583
scalar tree_4_3_u10_r4_network.node[5].content_store 	misses[5] 	25666
scalar tree_4_3_u10_r4_network.node[5].content_store 	decision_yes[5] 	76
scalar tree_4_3_u10_r4_network.node[5].content_store 	decision_no[5] 	25590
scalar tree_4_3_u10_r4_network.node[5].content_store 	decision_ratio[5] 	0.0029611158731396
scalar tree_4_3_u10_r4_network.node[6].core_layer 	interests[6] 	13794
scalar tree_4_3_u10_r4_network.node[6].core_layer 	data[6] 	10514
scalar tree_4_3_u10_r4_network.node[6].content_store 	p_hit[6] 	0.23778454400464
scalar tree_4_3_u10_r4_network.node[6].content_store 	hits[6] 	3280
scalar tree_4_3_u10_r4_network.node[6].content_store 	misses[6] 	10514
scalar tree_4_3_u10_r4_network.node[6].content_store 	decision_yes[6] 	68
scalar tree_4_3_u10_r4_network.node[6].content_store 	decision_no[6] 	10446
scalar tree_4_3_u10_r4_network.node[6].content_store 	decision_ratio[6] 	0.0064675670534525
scalar tree_4_3_u10_r4_network.node[7].core_layer 	interests[7] 	43788
scalar tree_4_3_u10_r4_network.node[7].core_layer 	data[7] 	40204
scalar tree_4_3_u10_r4_network.node[7].content_store 	p_hit[7] 	0.081826071069699
scalar tree_4_3_u10_r4_network.node[7].content_store 	hits[7] 	3583
scalar tree_4_3_u10_r4_network.node[7].content_store 	misses[7] 	40205
scalar tree_4_3_u10_r4_network.node[7].content_store 	decision_yes[7] 	88
scalar tree_4_3_u10_r4_network.node[7].content_store 	decision_no[7] 	40116
scalar tree_4_3_u10_r4_network.node[7].content_store 	decision_ratio[7] 	0.0021888369316486
scalar tree_4_3_u10_r4_network.node[8].core_layer 	interests[8] 	26728
scalar tree_4_3_u10_r4_network.node[8].core_layer 	data[8] 	23920
scalar tree_4_3_u10_r4_network.node[8].content_store 	p_hit[8] 	0.10505836575875
scalar tree_4_3_u10_r4_network.node[8].content_store 	hits[8] 	2808
scalar tree_4_3_u10_r4_network.node[8].content_store 	misses[8] 	23920
scalar tree_4_3_u10_r4_network.node[8].content_store 	decision_yes[8] 	61
scalar tree_4_3_u10_r4_network.node[8].content_store 	decision_no[8] 	23859
scalar tree_4_3_u10_r4_network.node[8].content_store 	decision_ratio[8] 	0.0025501672240803
scalar tree_4_3_u10_r4_network.node[9].core_layer 	interests[9] 	13627
scalar tree_4_3_u10_r4_network.node[9].core_layer 	data[9] 	10213
scalar tree_4_3_u10_r4_network.node[9].content_store 	p_hit[9] 	0.2505320319953
scalar tree_4_3_u10_r4_network.node[9].content_store 	hits[9] 	3414
scalar tree_4_3_u10_r4_network.node[9].content_store 	misses[9] 	10213
scalar tree_4_3_u10_r4_network.node[9].content_store 	decision_yes[9] 	66
scalar tree_4_3_u10_r4_network.node[9].content_store 	decision_no[9] 	10147
scalar tree_4_3_u10_r4_network.node[9].content_store 	decision_ratio[9] 	0.0064623519044355
scalar tree_4_3_u10_r4_network.node[10].core_layer 	interests[10] 	43614
scalar tree_4_3_u10_r4_network.node[10].core_layer 	data[10] 	40233
scalar tree_4_3_u10_r4_network.node[10].content_store 	p_hit[10] 	0.077475122667034
scalar tree_4_3_u10_r4_network.node[10].content_store 	hits[10] 	3379
scalar tree_4_3_u10_r4_network.node[10].content_store 	misses[10] 	40235
scalar tree_4_3_u10_r4_network.node[10].content_store 	decision_yes[10] 	66
scalar tree_4_3_u10_r4_network.node[10].content_store 	decision_no[10] 	40167
scalar tree_4_3_u10_r4_network.node[10].content_store 	decision_ratio[10] 	0.0016404444113042
scalar tree_4_3_u10_r4_network.node[11].core_layer 	interests[11] 	27988
scalar tree_4_3_u10_r4_network.node[11].core_layer 	data[11] 	24836
scalar tree_4_3_u10_r4_network.node[11].content_store 	p_hit[11] 	0.11261969415464
scalar tree_4_3_u10_r4_network.node[11].content_store 	hits[11] 	3152
scalar tree_4_3_u10_r4_network.node[11].content_store 	misses[11] 	24836
scalar tree_4_3_u10_r4_network.node[11].content_store 	decision_yes[11] 	66
scalar tree_4_3_u10_r4_network.node[11].content_store 	decision_no[11] 	24770
scalar tree_4_3_u10_r4_network.node[11].content_store 	decision_ratio[11] 	0.0026574327588984
scalar tree_4_3_u10_r4_network.node[12].core_layer 	interests[12] 	11840
scalar tree_4_3_u10_r4_network.node[12].core_layer 	data[12] 	9070
scalar tree_4_3_u10_r4_network.node[12].content_store 	p_hit[12] 	0.2339527027027
scalar tree_4_3_u10_r4_network.node[12].content_store 	hits[12] 	2770
scalar tree_4_3_u10_r4_network.node[12].content_store 	misses[12] 	9070
scalar tree_4_3_u10_r4_network.node[12].content_store 	decision_yes[12] 	34
scalar tree_4_3_u10_r4_network.node[12].content_store 	decision_no[12] 	9036
scalar tree_4_3_u10_r4_network.node[12].content_store 	decision_ratio[12] 	0.0037486218302095
scalar tree_4_3_u10_r4_network.node[13].core_layer 	interests[13] 	12383
scalar tree_4_3_u10_r4_network.node[13].core_layer 	data[13] 	8695
scalar tree_4_3_u10_r4_network.node[13].content_store 	p_hit[13] 	0.29782766696277
scalar tree_4_3_u10_r4_network.node[13].content_store 	hits[13] 	3688
scalar tree_4_3_u10_r4_network.node[13].content_store 	misses[13] 	8695
scalar tree_4_3_u10_r4_network.node[13].content_store 	decision_yes[13] 	31
scalar tree_4_3_u10_r4_network.node[13].content_store 	decision_no[13] 	8664
scalar tree_4_3_u10_r4_network.node[13].content_store 	decision_ratio[13] 	0.0035652673950546
scalar tree_4_3_u10_r4_network.node[14].core_layer 	interests[14] 	12707
scalar tree_4_3_u10_r4_network.node[14].core_layer 	data[14] 	8671
scalar tree_4_3_u10_r4_network.node[14].content_store 	p_hit[14] 	0.31762020933344
scalar tree_4_3_u10_r4_network.node[14].content_store 	hits[14] 	4036
scalar tree_4_3_u10_r4_network.node[14].content_store 	misses[14] 	8671
scalar tree_4_3_u10_r4_network.node[14].content_store 	decision_yes[14] 	19
scalar tree_4_3_u10_r4_network.node[14].content_store 	decision_no[14] 	8652
scalar tree_4_3_u10_r4_network.node[14].content_store 	decision_ratio[14] 	0.0021912120862646
scalar tree_4_3_u10_r4_network.node[15].core_layer 	interests[15] 	12876
scalar tree_4_3_u10_r4_network.node[15].core_layer 	data[15] 	8906
scalar tree_4_3_u10_r4_network.node[15].content_store 	p_hit[15] 	0.30824790307549
scalar tree_4_3_u10_r4_network.node[15].content_store 	hits[15] 	3969
scalar tree_4_3_u10_r4_network.node[15].content_store 	misses[15] 	8907
scalar tree_4_3_u10_r4_network.node[15].content_store 	decision_yes[15] 	31
scalar tree_4_3_u10_r4_network.node[15].content_store 	decision_no[15] 	8875
scalar tree_4_3_u10_r4_network.node[15].content_store 	decision_ratio[15] 	0.0034807994610375
scalar tree_4_3_u10_r4_network.node[16].core_layer 	interests[16] 	12828
scalar tree_4_3_u10_r4_network.node[16].core_layer 	data[16] 	8865
scalar tree_4_3_u10_r4_network.node[16].content_store 	p_hit[16] 	0.30893358278765
scalar tree_4_3_u10_r4_network.node[16].content_store 	hits[16] 	3963
scalar tree_4_3_u10_r4_network.node[16].content_store 	misses[16] 	8865
scalar tree_4_3_u10_r4_network.node[16].content_store 	decision_yes[16] 	22
scalar tree_4_3_u10_r4_network.node[16].content_store 	decision_no[16] 	8843
scalar tree_4_3_u10_r4_network.node[16].content_store 	decision_ratio[16] 	0.0024816694867456
scalar tree_4_3_u10_r4_network.node[17].core_layer 	interests[17] 	12399
scalar tree_4_3_u10_r4_network.node[17].core_layer 	data[17] 	8783
scalar tree_4_3_u10_r4_network.node[17].content_store 	p_hit[17] 	0.29163642229212
scalar tree_4_3_u10_r4_network.node[17].content_store 	hits[17] 	3616
scalar tree_4_3_u10_r4_network.node[17].content_store 	misses[17] 	8783
scalar tree_4_3_u10_r4_network.node[17].content_store 	decision_yes[17] 	23
scalar tree_4_3_u10_r4_network.node[17].content_store 	decision_no[17] 	8760
scalar tree_4_3_u10_r4_network.node[17].content_store 	decision_ratio[17] 	0.0026186952066492
scalar tree_4_3_u10_r4_network.node[18].core_layer 	interests[18] 	12897
scalar tree_4_3_u10_r4_network.node[18].core_layer 	data[18] 	8964
scalar tree_4_3_u10_r4_network.node[18].content_store 	p_hit[18] 	0.3049546406141
scalar tree_4_3_u10_r4_network.node[18].content_store 	hits[18] 	3933
scalar tree_4_3_u10_r4_network.node[18].content_store 	misses[18] 	8964
scalar tree_4_3_u10_r4_network.node[18].content_store 	decision_yes[18] 	35
scalar tree_4_3_u10_r4_network.node[18].content_store 	decision_no[18] 	8929
scalar tree_4_3_u10_r4_network.node[18].content_store 	decision_ratio[18] 	0.0039045069165551
scalar tree_4_3_u10_r4_network.node[19].core_layer 	interests[19] 	12895
scalar tree_4_3_u10_r4_network.node[19].core_layer 	data[19] 	8949
scalar tree_4_3_u10_r4_network.node[19].content_store 	p_hit[19] 	0.30585498255138
scalar tree_4_3_u10_r4_network.node[19].content_store 	hits[19] 	3944
scalar tree_4_3_u10_r4_network.node[19].content_store 	misses[19] 	8951
scalar tree_4_3_u10_r4_network.node[19].content_store 	decision_yes[19] 	34
scalar tree_4_3_u10_r4_network.node[19].content_store 	decision_no[19] 	8915
scalar tree_4_3_u10_r4_network.node[19].content_store 	decision_ratio[19] 	0.0037993071851604
scalar tree_4_3_u10_r4_network.node[20].core_layer 	interests[20] 	12721
scalar tree_4_3_u10_r4_network.node[20].core_layer 	data[20] 	8838
scalar tree_4_3_u10_r4_network.node[20].content_store 	p_hit[20] 	0.30524329848282
scalar tree_4_3_u10_r4_network.node[20].content_store 	hits[20] 	3883
scalar tree_4_3_u10_r4_network.node[20].content_store 	misses[20] 	8838
scalar tree_4_3_u10_r4_network.node[20].content_store 	decision_yes[20] 	40
scalar tree_4_3_u10_r4_network.node[20].content_store 	decision_no[20] 	8798
scalar tree_4_3_u10_r4_network.node[20].content_store 	decision_ratio[20] 	0.0045259108395565
scalar tree_4_3_u10_r4_network.node[21].core_layer 	interests[21] 	12511
scalar tree_4_3_u10_r4_network.node[21].core_layer 	data[21] 	8885
scalar tree_4_3_u10_r4_network.node[21].content_store 	p_hit[21] 	0.28974502437855
scalar tree_4_3_u10_r4_network.node[21].content_store 	hits[21] 	3625
scalar tree_4_3_u10_r4_network.node[21].content_store 	misses[21] 	8886
scalar tree_4_3_u10_r4_network.node[21].content_store 	decision_yes[21] 	30
scalar tree_4_3_u10_r4_network.node[21].content_store 	decision_no[21] 	8855
scalar tree_4_3_u10_r4_network.node[21].content_store 	decision_ratio[21] 	0.0033764772087788
scalar tree_4_3_u10_r4_network.node[22].core_layer 	interests[22] 	12546
scalar tree_4_3_u10_r4_network.node[22].core_layer 	data[22] 	8950
scalar tree_4_3_u10_r4_network.node[22].content_store 	p_hit[22] 	0.28662521919337
scalar tree_4_3_u10_r4_network.node[22].content_store 	hits[22] 	3596
scalar tree_4_3_u10_r4_network.node[22].content_store 	misses[22] 	8950
scalar tree_4_3_u10_r4_network.node[22].content_store 	decision_yes[22] 	24
scalar tree_4_3_u10_r4_network.node[22].content_store 	decision_no[22] 	8926
scalar tree_4_3_u10_r4_network.node[22].content_store 	decision_ratio[22] 	0.0026815642458101
scalar tree_4_3_u10_r4_network.node[23].core_layer 	interests[23] 	12712
scalar tree_4_3_u10_r4_network.node[23].core_layer 	data[23] 	8702
scalar tree_4_3_u10_r4_network.node[23].content_store 	p_hit[23] 	0.31544996853367
scalar tree_4_3_u10_r4_network.node[23].content_store 	hits[23] 	4010
scalar tree_4_3_u10_r4_network.node[23].content_store 	misses[23] 	8702
scalar tree_4_3_u10_r4_network.node[23].content_store 	decision_yes[23] 	35
scalar tree_4_3_u10_r4_network.node[23].content_store 	decision_no[23] 	8667
scalar tree_4_3_u10_r4_network.node[23].content_store 	decision_ratio[23] 	0.0040220638933578
scalar tree_4_3_u10_r4_network.node[24].core_layer 	interests[24] 	12935
scalar tree_4_3_u10_r4_network.node[24].core_layer 	data[24] 	8949
scalar tree_4_3_u10_r4_network.node[24].content_store 	p_hit[24] 	0.3081561654426
scalar tree_4_3_u10_r4_network.node[24].content_store 	hits[24] 	3986
scalar tree_4_3_u10_r4_network.node[24].content_store 	misses[24] 	8949
scalar tree_4_3_u10_r4_network.node[24].content_store 	decision_yes[24] 	22
scalar tree_4_3_u10_r4_network.node[24].content_store 	decision_no[24] 	8927
scalar tree_4_3_u10_r4_network.node[24].content_store 	decision_ratio[24] 	0.0024583752374567
scalar tree_4_3_u10_r4_network.node[25].core_layer 	interests[25] 	12630
scalar tree_4_3_u10_r4_network.node[25].core_layer 	data[25] 	8697
scalar tree_4_3_u10_r4_network.node[25].content_store 	p_hit[25] 	0.31132224861441
scalar tree_4_3_u10_r4_network.node[25].content_store 	hits[25] 	3932
scalar tree_4_3_u10_r4_network.node[25].content_store 	misses[25] 	8698
scalar tree_4_3_u10_r4_network.node[25].content_store 	decision_yes[25] 	23
scalar tree_4_3_u10_r4_network.node[25].content_store 	decision_no[25] 	8674
scalar tree_4_3_u10_r4_network.node[25].content_store 	decision_ratio[25] 	0.0026445900885363
scalar tree_4_3_u10_r4_network.node[26].core_layer 	interests[26] 	12316
scalar tree_4_3_u10_r4_network.node[26].core_layer 	data[26] 	8753
scalar tree_4_3_u10_r4_network.node[26].content_store 	p_hit[26] 	0.28929847353037
scalar tree_4_3_u10_r4_network.node[26].content_store 	hits[26] 	3563
scalar tree_4_3_u10_r4_network.node[26].content_store 	misses[26] 	8753
scalar tree_4_3_u10_r4_network.node[26].content_store 	decision_yes[26] 	28
scalar tree_4_3_u10_r4_network.node[26].content_store 	decision_no[26] 	8725
scalar tree_4_3_u10_r4_network.node[26].content_store 	decision_ratio[26] 	0.0031989032331772
scalar tree_4_3_u10_r4_network.node[27].core_layer 	interests[27] 	12592
scalar tree_4_3_u10_r4_network.node[27].core_layer 	data[27] 	8757
scalar tree_4_3_u10_r4_network.node[27].content_store 	p_hit[27] 	0.3045584498094
scalar tree_4_3_u10_r4_network.node[27].content_store 	hits[27] 	3835
scalar tree_4_3_u10_r4_network.node[27].content_store 	misses[27] 	8757
scalar tree_4_3_u10_r4_network.node[27].content_store 	decision_yes[27] 	31
scalar tree_4_3_u10_r4_network.node[27].content_store 	decision_no[27] 	8726
scalar tree_4_3_u10_r4_network.node[27].content_store 	decision_ratio[27] 	0.0035400251227589
scalar tree_4_3_u10_r4_network.node[28].core_layer 	interests[28] 	12765
scalar tree_4_3_u10_r4_network.node[28].core_layer 	data[28] 	8685
scalar tree_4_3_u10_r4_network.node[28].content_store 	p_hit[28] 	0.31962397179788
scalar tree_4_3_u10_r4_network.node[28].content_store 	hits[28] 	4080
scalar tree_4_3_u10_r4_network.node[28].content_store 	misses[28] 	8685
scalar tree_4_3_u10_r4_network.node[28].content_store 	decision_yes[28] 	19
scalar tree_4_3_u10_r4_network.node[28].content_store 	decision_no[28] 	8666
scalar tree_4_3_u10_r4_network.node[28].content_store 	decision_ratio[28] 	0.0021876799078872
scalar tree_4_3_u10_r4_network.node[29].core_layer 	interests[29] 	12712
scalar tree_4_3_u10_r4_network.node[29].core_layer 	data[29] 	8791
scalar tree_4_3_u10_r4_network.node[29].content_store 	p_hit[29] 	0.30844870988043
scalar tree_4_3_u10_r4_network.node[29].content_store 	hits[29] 	3921
scalar tree_4_3_u10_r4_network.node[29].content_store 	misses[29] 	8791
scalar tree_4_3_u10_r4_network.node[29].content_store 	decision_yes[29] 	26
scalar tree_4_3_u10_r4_network.node[29].content_store 	decision_no[29] 	8765
scalar tree_4_3_u10_r4_network.node[29].content_store 	decision_ratio[29] 	0.0029575702422933
scalar tree_4_3_u10_r4_network.node[30].core_layer 	interests[30] 	12149
scalar tree_4_3_u10_r4_network.node[30].core_layer 	data[30] 	8675
scalar tree_4_3_u10_r4_network.node[30].content_store 	p_hit[30] 	0.28594946086098
scalar tree_4_3_u10_r4_network.node[30].content_store 	hits[30] 	3474
scalar tree_4_3_u10_r4_network.node[30].content_store 	misses[30] 	8675
scalar tree_4_3_u10_r4_network.node[30].content_store 	decision_yes[30] 	30
scalar tree_4_3_u10_r4_network.node[30].content_store 	decision_no[30] 	8645
scalar tree_4_3_u10_r4_network.node[30].content_store 	decision_ratio[30] 	0.0034582132564841
scalar tree_4_3_u10_r4_network.node[31].core_layer 	interests[31] 	12383
scalar tree_4_3_u10_r4_network.node[31].core_layer 	data[31] 	8876
scalar tree_4_3_u10_r4_network.node[31].content_store 	p_hit[31] 	0.28313009771461
scalar tree_4_3_u10_r4_network.node[31].content_store 	hits[31] 	3506
scalar tree_4_3_u10_r4_network.node[31].content_store 	misses[31] 	8877
scalar tree_4_3_u10_r4_network.node[31].content_store 	decision_yes[31] 	20
scalar tree_4_3_u10_r4_network.node[31].content_store 	decision_no[31] 	8856
scalar tree_4_3_u10_r4_network.node[31].content_store 	decision_ratio[31] 	0.0022532672374944
scalar tree_4_3_u10_r4_network.node[32].core_layer 	interests[32] 	12558
scalar tree_4_3_u10_r4_network.node[32].core_layer 	data[32] 	8692
scalar tree_4_3_u10_r4_network.node[32].content_store 	p_hit[32] 	0.30777193820672
scalar tree_4_3_u10_r4_network.node[32].content_store 	hits[32] 	3865
scalar tree_4_3_u10_r4_network.node[32].content_store 	misses[32] 	8693
scalar tree_4_3_u10_r4_network.node[32].content_store 	decision_yes[32] 	27
scalar tree_4_3_u10_r4_network.node[32].content_store 	decision_no[32] 	8665
scalar tree_4_3_u10_r4_network.node[32].content_store 	decision_ratio[32] 	0.0031063046479521
scalar tree_4_3_u10_r4_network.node[33].core_layer 	interests[33] 	12778
scalar tree_4_3_u10_r4_network.node[33].core_layer 	data[33] 	8903
scalar tree_4_3_u10_r4_network.node[33].content_store 	p_hit[33] 	0.30317733604633
scalar tree_4_3_u10_r4_network.node[33].content_store 	hits[33] 	3874
scalar tree_4_3_u10_r4_network.node[33].content_store 	misses[33] 	8904
scalar tree_4_3_u10_r4_network.node[33].content_store 	decision_yes[33] 	37
scalar tree_4_3_u10_r4_network.node[33].content_store 	decision_no[33] 	8866
scalar tree_4_3_u10_r4_network.node[33].content_store 	decision_ratio[33] 	0.0041559025047737
scalar tree_4_3_u10_r4_network.node[34].core_layer 	interests[34] 	12940
scalar tree_4_3_u10_r4_network.node[34].core_layer 	data[34] 	8844
scalar tree_4_3_u10_r4_network.node[34].content_store 	p_hit[34] 	0.31653786707883
scalar tree_4_3_u10_r4_network.node[34].content_store 	hits[34] 	4096
scalar tree_4_3_u10_r4_network.node[34].content_store 	misses[34] 	8844
scalar tree_4_3_u10_r4_network.node[34].content_store 	decision_yes[34] 	24
scalar tree_4_3_u10_r4_network.node[34].content_store 	decision_no[34] 	8820
scalar tree_4_3_u10_r4_network.node[34].content_store 	decision_ratio[34] 	0.0027137042062415
scalar tree_4_3_u10_r4_network.node[35].core_layer 	interests[35] 	12280
scalar tree_4_3_u10_r4_network.node[35].core_layer 	data[35] 	8628
scalar tree_4_3_u10_r4_network.node[35].content_store 	p_hit[35] 	0.29739413680782
scalar tree_4_3_u10_r4_network.node[35].content_store 	hits[35] 	3652
scalar tree_4_3_u10_r4_network.node[35].content_store 	misses[35] 	8628
scalar tree_4_3_u10_r4_network.node[35].content_store 	decision_yes[35] 	32
scalar tree_4_3_u10_r4_network.node[35].content_store 	decision_no[35] 	8596
scalar tree_4_3_u10_r4_network.node[35].content_store 	decision_ratio[35] 	0.0037088548910524
scalar tree_4_3_u10_r4_network.node[36].core_layer 	interests[36] 	12511
scalar tree_4_3_u10_r4_network.node[36].core_layer 	data[36] 	8650
scalar tree_4_3_u10_r4_network.node[36].content_store 	p_hit[36] 	0.30860842458636
scalar tree_4_3_u10_r4_network.node[36].content_store 	hits[36] 	3861
scalar tree_4_3_u10_r4_network.node[36].content_store 	misses[36] 	8650
scalar tree_4_3_u10_r4_network.node[36].content_store 	decision_yes[36] 	29
scalar tree_4_3_u10_r4_network.node[36].content_store 	decision_no[36] 	8621
scalar tree_4_3_u10_r4_network.node[36].content_store 	decision_ratio[36] 	0.0033526011560694
scalar tree_4_3_u10_r4_network.node[37].core_layer 	interests[37] 	12848
scalar tree_4_3_u10_r4_network.node[37].core_layer 	data[37] 	8887
scalar tree_4_3_u10_r4_network.node[37].content_store 	p_hit[37] 	0.30829701120797
scalar tree_4_3_u10_r4_network.node[37].content_store 	hits[37] 	3961
scalar tree_4_3_u10_r4_network.node[37].content_store 	misses[37] 	8887
scalar tree_4_3_u10_r4_network.node[37].content_store 	decision_yes[37] 	20
scalar tree_4_3_u10_r4_network.node[37].content_store 	decision_no[37] 	8867
scalar tree_4_3_u10_r4_network.node[37].content_store 	decision_ratio[37] 	0.0022504782266232
scalar tree_4_3_u10_r4_network.node[38].core_layer 	interests[38] 	12611
scalar tree_4_3_u10_r4_network.node[38].core_layer 	data[38] 	8761
scalar tree_4_3_u10_r4_network.node[38].content_store 	p_hit[38] 	0.30528903338355
scalar tree_4_3_u10_r4_network.node[38].content_store 	hits[38] 	3850
scalar tree_4_3_u10_r4_network.node[38].content_store 	misses[38] 	8761
scalar tree_4_3_u10_r4_network.node[38].content_store 	decision_yes[38] 	28
scalar tree_4_3_u10_r4_network.node[38].content_store 	decision_no[38] 	8733
scalar tree_4_3_u10_r4_network.node[38].content_store 	decision_ratio[38] 	0.0031959821938135
scalar tree_4_3_u10_r4_network.node[39].core_layer 	interests[39] 	12278
scalar tree_4_3_u10_r4_network.node[39].core_layer 	data[39] 	8808
scalar tree_4_3_u10_r4_network.node[39].content_store 	p_hit[39] 	0.28253787261769
scalar tree_4_3_u10_r4_network.node[39].content_store 	hits[39] 	3469
scalar tree_4_3_u10_r4_network.node[39].content_store 	misses[39] 	8809
scalar tree_4_3_u10_r4_network.node[39].content_store 	decision_yes[39] 	28
scalar tree_4_3_u10_r4_network.node[39].content_store 	decision_no[39] 	8780
scalar tree_4_3_u10_r4_network.node[39].content_store 	decision_ratio[39] 	0.0031789282470481
scalar tree_4_3_u10_r4_network.client[13] 	hdistance[13] 	2.6301277740417
scalar tree_4_3_u10_r4_network.client[13] 	downloads[13] 	11896
scalar tree_4_3_u10_r4_network.client[13] 	avg_time[13] 	0.004138082889
scalar tree_4_3_u10_r4_network.client[14] 	hdistance[14] 	2.5404815840255
scalar tree_4_3_u10_r4_network.client[14] 	downloads[14] 	11919
scalar tree_4_3_u10_r4_network.client[14] 	avg_time[14] 	0.003989929079
scalar tree_4_3_u10_r4_network.client[15] 	hdistance[15] 	2.5570776255708
scalar tree_4_3_u10_r4_network.client[15] 	downloads[15] 	12045
scalar tree_4_3_u10_r4_network.client[15] 	avg_time[15] 	0.004022858916
scalar tree_4_3_u10_r4_network.client[16] 	hdistance[16] 	2.5846372688478
scalar tree_4_3_u10_r4_network.client[16] 	downloads[16] 	11951
scalar tree_4_3_u10_r4_network.client[16] 	avg_time[16] 	0.004070618691
scalar tree_4_3_u10_r4_network.client[17] 	hdistance[17] 	2.6312484300427
scalar tree_4_3_u10_r4_network.client[17] 	downloads[17] 	11943
scalar tree_4_3_u10_r4_network.client[17] 	avg_time[17] 	0.004169301192
scalar tree_4_3_u10_r4_network.client[18] 	hdistance[18] 	2.5751072961373
scalar tree_4_3_u10_r4_network.client[18] 	downloads[18] 	12116
scalar tree_4_3_u10_r4_network.client[18] 	avg_time[18] 	0.004052489575
scalar tree_4_3_u10_r4_network.client[19] 	hdistance[19] 	2.5926875672099
scalar tree_4_3_u10_r4_network.client[19] 	downloads[19] 	12089
scalar tree_4_3_u10_r4_network.client[19] 	avg_time[19] 	0.004069357684
scalar tree_4_3_u10_r4_network.client[20] 	hdistance[20] 	2.5482735501173
scalar tree_4_3_u10_r4_network.client[20] 	downloads[20] 	11932
scalar tree_4_3_u10_r4_network.client[20] 	avg_time[20] 	0.004016926302
scalar tree_4_3_u10_r4_network.client[21] 	hdistance[21] 	2.6061179179344
scalar tree_4_3_u10_r4_network.client[21] 	downloads[21] 	12161
scalar tree_4_3_u10_r4_network.client[21] 	avg_time[21] 	0.004122153392
scalar tree_4_3_u10_r4_network.client[22] 	hdistance[22] 	2.6453906572964
scalar tree_4_3_u10_r4_network.client[22] 	downloads[22] 	12095
scalar tree_4_3_u10_r4_network.client[22] 	avg_time[22] 	0.004183609317
scalar tree_4_3_u10_r4_network.client[23] 	hdistance[23] 	2.5495298858294
scalar tree_4_3_u10_r4_network.client[23] 	downloads[23] 	11912
scalar tree_4_3_u10_r4_network.client[23] 	avg_time[23] 	0.004014939913
scalar tree_4_3_u10_r4_network.client[24] 	hdistance[24] 	2.5572663647592
scalar tree_4_3_u10_r4_network.client[24] 	downloads[24] 	12145
scalar tree_4_3_u10_r4_network.client[24] 	avg_time[24] 	0.004016300006
scalar tree_4_3_u10_r4_network.client[25] 	hdistance[25] 	2.5441981966799
scalar tree_4_3_u10_r4_network.client[25] 	downloads[25] 	11867
scalar tree_4_3_u10_r4_network.client[25] 	avg_time[25] 	0.004007954096
scalar tree_4_3_u10_r4_network.client[26] 	hdistance[26] 	2.6392081201242
scalar tree_4_3_u10_r4_network.client[26] 	downloads[26] 	11921
scalar tree_4_3_u10_r4_network.client[26] 	avg_time[26] 	0.004146125719
scalar tree_4_3_u10_r4_network.client[27] 	hdistance[27] 	2.5539622641509
scalar tree_4_3_u10_r4_network.client[27] 	downloads[27] 	11925
scalar tree_4_3_u10_r4_network.client[27] 	avg_time[27] 	0.004010059929
scalar tree_4_3_u10_r4_network.client[28] 	hdistance[28] 	2.5292429740906
scalar tree_4_3_u10_r4_network.client[28] 	downloads[28] 	11849
scalar tree_4_3_u10_r4_network.client[28] 	avg_time[28] 	0.00397653513
scalar tree_4_3_u10_r4_network.client[29] 	hdistance[29] 	2.5549377593361
scalar tree_4_3_u10_r4_network.client[29] 	downloads[29] 	12050
scalar tree_4_3_u10_r4_network.client[29] 	avg_time[29] 	0.004006635994
scalar tree_4_3_u10_r4_network.client[30] 	hdistance[30] 	2.6026226734348
scalar tree_4_3_u10_r4_network.client[30] 	downloads[30] 	11820
scalar tree_4_3_u10_r4_network.client[30] 	avg_time[30] 	0.004107103629
scalar tree_4_3_u10_r4_network.client[31] 	hdistance[31] 	2.6475936274919
scalar tree_4_3_u10_r4_network.client[31] 	downloads[31] 	11989
scalar tree_4_3_u10_r4_network.client[31] 	avg_time[31] 	0.004177993502
scalar tree_4_3_u10_r4_network.client[32] 	hdistance[32] 	2.5681548124257
scalar tree_4_3_u10_r4_network.client[32] 	downloads[32] 	11782
scalar tree_4_3_u10_r4_network.client[32] 	avg_time[32] 	0.004039515174
scalar tree_4_3_u10_r4_network.client[33] 	hdistance[33] 	2.5844699188352
scalar tree_4_3_u10_r4_network.client[33] 	downloads[33] 	11951
scalar tree_4_3_u10_r4_network.client[33] 	avg_time[33] 	0.004065430875
scalar tree_4_3_u10_r4_network.client[34] 	hdistance[34] 	2.5668858736369
scalar tree_4_3_u10_r4_network.client[34] 	downloads[34] 	12013
scalar tree_4_3_u10_r4_network.client[34] 	avg_time[34] 	0.004040619673
scalar tree_4_3_u10_r4_network.client[35] 	hdistance[35] 	2.5964499032557
scalar tree_4_3_u10_r4_network.client[35] 	downloads[35] 	11887
scalar tree_4_3_u10_r4_network.client[35] 	avg_time[35] 	0.004089506565
scalar tree_4_3_u10_r4_network.client[36] 	hdistance[36] 	2.5561447811448
scalar tree_4_3_u10_r4_network.client[36] 	downloads[36] 	11880
scalar tree_4_3_u10_r4_network.client[36] 	avg_time[36] 	0.004005384214
scalar tree_4_3_u10_r4_network.client[37] 	hdistance[37] 	2.561479147666
scalar tree_4_3_u10_r4_network.client[37] 	downloads[37] 	12061
scalar tree_4_3_u10_r4_network.client[37] 	avg_time[37] 	0.004028187006
scalar tree_4_3_u10_r4_network.client[38] 	hdistance[38] 	2.5502179745137
scalar tree_4_3_u10_r4_network.client[38] 	downloads[38] 	11928
scalar tree_4_3_u10_r4_network.client[38] 	avg_time[38] 	0.004006368592
scalar tree_4_3_u10_r4_network.client[39] 	hdistance[39] 	2.661287653095
scalar tree_4_3_u10_r4_network.client[39] 	downloads[39] 	12084
scalar tree_4_3_u10_r4_network.client[39] 	avg_time[39] 	0.004152264425
