version 2
run General-173-20160819-05:20:01-14109
attr a 0.9
attr cd fix0.01
attr configname General
attr cr lru
attr datetime 20160819-05:20:01
attr experiment General
attr fsize 1
attr inifile hw5115/scenario_A/NRR-FIX0.01.ini
attr iterationvars "$name=tree_4_3, $un=08, $rep=14, $cd=fix0.01, $cr=lru, $fsize=1, $a=0.9, $sl=nrr, $ttl=1000, $variance=0.05"
attr iterationvars2 "$name=tree_4_3, $un=08, $rep=14, $cd=fix0.01, $cr=lru, $fsize=1, $a=0.9, $sl=nrr, $ttl=1000, $variance=0.05, $repetition=0"
attr measurement "$name=tree_4_3, $un=08, $rep=14, $cd=fix0.01, $cr=lru, $fsize=1, $a=0.9, $sl=nrr, $ttl=1000, $variance=0.05"
attr name tree_4_3
attr network networks.${name}_u${un}_r${rep}_network
attr processid 14109
attr rep 14
attr repetition 0
attr replication #0
attr resultdir results
attr runnumber 173
attr seedset 14
attr sl nrr
attr ttl 1000
attr un 08
attr variance 0.05

scalar . 	a 	0.9
scalar . 	fsize 	1
scalar . 	rep 	14
scalar . 	ttl 	1000
scalar . 	un 	08
scalar . 	variance 	0.05
scalar tree_4_3_u08_r14_network.content_distribution 	repo-0 	0
scalar tree_4_3_u08_r14_network.content_distribution 	client-0 	13
scalar tree_4_3_u08_r14_network.content_distribution 	client-1 	14
scalar tree_4_3_u08_r14_network.content_distribution 	client-2 	15
scalar tree_4_3_u08_r14_network.content_distribution 	client-3 	16
scalar tree_4_3_u08_r14_network.content_distribution 	client-4 	17
scalar tree_4_3_u08_r14_network.content_distribution 	client-5 	18
scalar tree_4_3_u08_r14_network.content_distribution 	client-6 	19
scalar tree_4_3_u08_r14_network.content_distribution 	client-7 	20
scalar tree_4_3_u08_r14_network.content_distribution 	client-8 	21
scalar tree_4_3_u08_r14_network.content_distribution 	client-9 	22
scalar tree_4_3_u08_r14_network.content_distribution 	client-10 	23
scalar tree_4_3_u08_r14_network.content_distribution 	client-11 	24
scalar tree_4_3_u08_r14_network.content_distribution 	client-12 	25
scalar tree_4_3_u08_r14_network.content_distribution 	client-13 	26
scalar tree_4_3_u08_r14_network.content_distribution 	client-14 	27
scalar tree_4_3_u08_r14_network.content_distribution 	client-15 	28
scalar tree_4_3_u08_r14_network.content_distribution 	client-16 	29
scalar tree_4_3_u08_r14_network.content_distribution 	client-17 	30
scalar tree_4_3_u08_r14_network.content_distribution 	client-18 	31
scalar tree_4_3_u08_r14_network.content_distribution 	client-19 	32
scalar tree_4_3_u08_r14_network.content_distribution 	client-20 	33
scalar tree_4_3_u08_r14_network.content_distribution 	client-21 	34
scalar tree_4_3_u08_r14_network.content_distribution 	client-22 	35
scalar tree_4_3_u08_r14_network.content_distribution 	client-23 	36
scalar tree_4_3_u08_r14_network.content_distribution 	client-24 	37
scalar tree_4_3_u08_r14_network.content_distribution 	client-25 	38
scalar tree_4_3_u08_r14_network.content_distribution 	client-26 	39
scalar tree_4_3_u08_r14_network.content_distribution 	repo-0_card 	100000
scalar tree_4_3_u08_r14_network.content_distribution 	repo-0_price 	0
scalar tree_4_3_u08_r14_network.statistics 	stabilization_time 	1659
scalar tree_4_3_u08_r14_network.statistics 	p_hit 	0.23938536989326
scalar tree_4_3_u08_r14_network.statistics 	interests 	25537.1
scalar tree_4_3_u08_r14_network.statistics 	data 	17440.2
scalar tree_4_3_u08_r14_network.statistics 	hdistance 	2.6822999764482
scalar tree_4_3_u08_r14_network.statistics 	avg_time 	0.004307996737
scalar tree_4_3_u08_r14_network.statistics 	downloads 	323868
scalar tree_4_3_u08_r14_network.statistics 	total_cost 	0
scalar tree_4_3_u08_r14_network.statistics 	total_replicas 	100000
scalar tree_4_3_u08_r14_network.statistics 	inner_hit 	0.47173539837218
scalar tree_4_3_u08_r14_network.node[0].core_layer 	interests[0] 	172221
scalar tree_4_3_u08_r14_network.node[0].core_layer 	repo_load[0] 	171088
scalar tree_4_3_u08_r14_network.node[0].core_layer 	data[0] 	0
scalar tree_4_3_u08_r14_network.node[0].core_layer 	repo_int[0] 	171088
scalar tree_4_3_u08_r14_network.node[0].content_store 	p_hit[0] 	0.0065787563653678
scalar tree_4_3_u08_r14_network.node[0].content_store 	hits[0] 	1133
scalar tree_4_3_u08_r14_network.node[0].content_store 	misses[0] 	171088
scalar tree_4_3_u08_r14_network.node[0].content_store 	decision_yes[0] 	1770
scalar tree_4_3_u08_r14_network.node[0].content_store 	decision_no[0] 	169318
scalar tree_4_3_u08_r14_network.node[0].content_store 	decision_ratio[0] 	0.010345553165622
scalar tree_4_3_u08_r14_network.node[1].core_layer 	interests[1] 	135430
scalar tree_4_3_u08_r14_network.node[1].core_layer 	data[1] 	133737
scalar tree_4_3_u08_r14_network.node[1].content_store 	p_hit[1] 	0.012500922986044
scalar tree_4_3_u08_r14_network.node[1].content_store 	hits[1] 	1693
scalar tree_4_3_u08_r14_network.node[1].content_store 	misses[1] 	133737
scalar tree_4_3_u08_r14_network.node[1].content_store 	decision_yes[1] 	1340
scalar tree_4_3_u08_r14_network.node[1].content_store 	decision_no[1] 	132397
scalar tree_4_3_u08_r14_network.node[1].content_store 	decision_ratio[1] 	0.010019665462811
scalar tree_4_3_u08_r14_network.node[2].core_layer 	interests[2] 	48830
scalar tree_4_3_u08_r14_network.node[2].core_layer 	data[2] 	46051
scalar tree_4_3_u08_r14_network.node[2].content_store 	p_hit[2] 	0.056911734589392
scalar tree_4_3_u08_r14_network.node[2].content_store 	hits[2] 	2779
scalar tree_4_3_u08_r14_network.node[2].content_store 	misses[2] 	46051
scalar tree_4_3_u08_r14_network.node[2].content_store 	decision_yes[2] 	455
scalar tree_4_3_u08_r14_network.node[2].content_store 	decision_no[2] 	45596
scalar tree_4_3_u08_r14_network.node[2].content_store 	decision_ratio[2] 	0.0098803500466874
scalar tree_4_3_u08_r14_network.node[3].core_layer 	interests[3] 	25293
scalar tree_4_3_u08_r14_network.node[3].core_layer 	data[3] 	20446
scalar tree_4_3_u08_r14_network.node[3].content_store 	p_hit[3] 	0.19163404894635
scalar tree_4_3_u08_r14_network.node[3].content_store 	hits[3] 	4847
scalar tree_4_3_u08_r14_network.node[3].content_store 	misses[3] 	20446
scalar tree_4_3_u08_r14_network.node[3].content_store 	decision_yes[3] 	209
scalar tree_4_3_u08_r14_network.node[3].content_store 	decision_no[3] 	20237
scalar tree_4_3_u08_r14_network.node[3].content_store 	decision_ratio[3] 	0.01022204832241
scalar tree_4_3_u08_r14_network.node[4].core_layer 	interests[4] 	44981
scalar tree_4_3_u08_r14_network.node[4].core_layer 	data[4] 	41601
scalar tree_4_3_u08_r14_network.node[4].content_store 	p_hit[4] 	0.075142838087192
scalar tree_4_3_u08_r14_network.node[4].content_store 	hits[4] 	3380
scalar tree_4_3_u08_r14_network.node[4].content_store 	misses[4] 	41601
scalar tree_4_3_u08_r14_network.node[4].content_store 	decision_yes[4] 	404
scalar tree_4_3_u08_r14_network.node[4].content_store 	decision_no[4] 	41197
scalar tree_4_3_u08_r14_network.node[4].content_store 	decision_ratio[4] 	0.0097113050167063
scalar tree_4_3_u08_r14_network.node[5].core_layer 	interests[5] 	22228
scalar tree_4_3_u08_r14_network.node[5].core_layer 	data[5] 	18716
scalar tree_4_3_u08_r14_network.node[5].content_store 	p_hit[5] 	0.15799892028073
scalar tree_4_3_u08_r14_network.node[5].content_store 	hits[5] 	3512
scalar tree_4_3_u08_r14_network.node[5].content_store 	misses[5] 	18716
scalar tree_4_3_u08_r14_network.node[5].content_store 	decision_yes[5] 	173
scalar tree_4_3_u08_r14_network.node[5].content_store 	decision_no[5] 	18543
scalar tree_4_3_u08_r14_network.node[5].content_store 	decision_ratio[5] 	0.0092434280829237
scalar tree_4_3_u08_r14_network.node[6].core_layer 	interests[6] 	26685
scalar tree_4_3_u08_r14_network.node[6].core_layer 	data[6] 	21653
scalar tree_4_3_u08_r14_network.node[6].content_store 	p_hit[6] 	0.1885328836425
scalar tree_4_3_u08_r14_network.node[6].content_store 	hits[6] 	5031
scalar tree_4_3_u08_r14_network.node[6].content_store 	misses[6] 	21654
scalar tree_4_3_u08_r14_network.node[6].content_store 	decision_yes[6] 	216
scalar tree_4_3_u08_r14_network.node[6].content_store 	decision_no[6] 	21437
scalar tree_4_3_u08_r14_network.node[6].content_store 	decision_ratio[6] 	0.009975523022214
scalar tree_4_3_u08_r14_network.node[7].core_layer 	interests[7] 	47403
scalar tree_4_3_u08_r14_network.node[7].core_layer 	data[7] 	43582
scalar tree_4_3_u08_r14_network.node[7].content_store 	p_hit[7] 	0.080585616944075
scalar tree_4_3_u08_r14_network.node[7].content_store 	hits[7] 	3820
scalar tree_4_3_u08_r14_network.node[7].content_store 	misses[7] 	43583
scalar tree_4_3_u08_r14_network.node[7].content_store 	decision_yes[7] 	453
scalar tree_4_3_u08_r14_network.node[7].content_store 	decision_no[7] 	43129
scalar tree_4_3_u08_r14_network.node[7].content_store 	decision_ratio[7] 	0.010394199440136
scalar tree_4_3_u08_r14_network.node[8].core_layer 	interests[8] 	20000
scalar tree_4_3_u08_r14_network.node[8].core_layer 	data[8] 	17119
scalar tree_4_3_u08_r14_network.node[8].content_store 	p_hit[8] 	0.144
scalar tree_4_3_u08_r14_network.node[8].content_store 	hits[8] 	2880
scalar tree_4_3_u08_r14_network.node[8].content_store 	misses[8] 	17120
scalar tree_4_3_u08_r14_network.node[8].content_store 	decision_yes[8] 	170
scalar tree_4_3_u08_r14_network.node[8].content_store 	decision_no[8] 	16949
scalar tree_4_3_u08_r14_network.node[8].content_store 	decision_ratio[8] 	0.0099304865938431
scalar tree_4_3_u08_r14_network.node[9].core_layer 	interests[9] 	26082
scalar tree_4_3_u08_r14_network.node[9].core_layer 	data[9] 	21458
scalar tree_4_3_u08_r14_network.node[9].content_store 	p_hit[9] 	0.17721033663063
scalar tree_4_3_u08_r14_network.node[9].content_store 	hits[9] 	4622
scalar tree_4_3_u08_r14_network.node[9].content_store 	misses[9] 	21460
scalar tree_4_3_u08_r14_network.node[9].content_store 	decision_yes[9] 	224
scalar tree_4_3_u08_r14_network.node[9].content_store 	decision_no[9] 	21234
scalar tree_4_3_u08_r14_network.node[9].content_store 	decision_ratio[9] 	0.010438997110635
scalar tree_4_3_u08_r14_network.node[10].core_layer 	interests[10] 	47013
scalar tree_4_3_u08_r14_network.node[10].core_layer 	data[10] 	43322
scalar tree_4_3_u08_r14_network.node[10].content_store 	p_hit[10] 	0.078510199306575
scalar tree_4_3_u08_r14_network.node[10].content_store 	hits[10] 	3691
scalar tree_4_3_u08_r14_network.node[10].content_store 	misses[10] 	43322
scalar tree_4_3_u08_r14_network.node[10].content_store 	decision_yes[10] 	436
scalar tree_4_3_u08_r14_network.node[10].content_store 	decision_no[10] 	42886
scalar tree_4_3_u08_r14_network.node[10].content_store 	decision_ratio[10] 	0.010064170629241
scalar tree_4_3_u08_r14_network.node[11].core_layer 	interests[11] 	22938
scalar tree_4_3_u08_r14_network.node[11].core_layer 	data[11] 	19076
scalar tree_4_3_u08_r14_network.node[11].content_store 	p_hit[11] 	0.16836690208388
scalar tree_4_3_u08_r14_network.node[11].content_store 	hits[11] 	3862
scalar tree_4_3_u08_r14_network.node[11].content_store 	misses[11] 	19076
scalar tree_4_3_u08_r14_network.node[11].content_store 	decision_yes[11] 	225
scalar tree_4_3_u08_r14_network.node[11].content_store 	decision_no[11] 	18851
scalar tree_4_3_u08_r14_network.node[11].content_store 	decision_ratio[11] 	0.011794925560914
scalar tree_4_3_u08_r14_network.node[12].core_layer 	interests[12] 	22692
scalar tree_4_3_u08_r14_network.node[12].core_layer 	data[12] 	18840
scalar tree_4_3_u08_r14_network.node[12].content_store 	p_hit[12] 	0.16970738586286
scalar tree_4_3_u08_r14_network.node[12].content_store 	hits[12] 	3851
scalar tree_4_3_u08_r14_network.node[12].content_store 	misses[12] 	18841
scalar tree_4_3_u08_r14_network.node[12].content_store 	decision_yes[12] 	212
scalar tree_4_3_u08_r14_network.node[12].content_store 	decision_no[12] 	18628
scalar tree_4_3_u08_r14_network.node[12].content_store 	decision_ratio[12] 	0.011252653927813
scalar tree_4_3_u08_r14_network.node[13].core_layer 	interests[13] 	12931
scalar tree_4_3_u08_r14_network.node[13].core_layer 	data[13] 	9474
scalar tree_4_3_u08_r14_network.node[13].content_store 	p_hit[13] 	0.26734204624546
scalar tree_4_3_u08_r14_network.node[13].content_store 	hits[13] 	3457
scalar tree_4_3_u08_r14_network.node[13].content_store 	misses[13] 	9474
scalar tree_4_3_u08_r14_network.node[13].content_store 	decision_yes[13] 	103
scalar tree_4_3_u08_r14_network.node[13].content_store 	decision_no[13] 	9371
scalar tree_4_3_u08_r14_network.node[13].content_store 	decision_ratio[13] 	0.010871859826895
scalar tree_4_3_u08_r14_network.node[14].core_layer 	interests[14] 	12985
scalar tree_4_3_u08_r14_network.node[14].core_layer 	data[14] 	9373
scalar tree_4_3_u08_r14_network.node[14].content_store 	p_hit[14] 	0.27816711590296
scalar tree_4_3_u08_r14_network.node[14].content_store 	hits[14] 	3612
scalar tree_4_3_u08_r14_network.node[14].content_store 	misses[14] 	9373
scalar tree_4_3_u08_r14_network.node[14].content_store 	decision_yes[14] 	108
scalar tree_4_3_u08_r14_network.node[14].content_store 	decision_no[14] 	9265
scalar tree_4_3_u08_r14_network.node[14].content_store 	decision_ratio[14] 	0.0115224581244
scalar tree_4_3_u08_r14_network.node[15].core_layer 	interests[15] 	13499
scalar tree_4_3_u08_r14_network.node[15].core_layer 	data[15] 	9080
scalar tree_4_3_u08_r14_network.node[15].content_store 	p_hit[15] 	0.32735758204311
scalar tree_4_3_u08_r14_network.node[15].content_store 	hits[15] 	4419
scalar tree_4_3_u08_r14_network.node[15].content_store 	misses[15] 	9080
scalar tree_4_3_u08_r14_network.node[15].content_store 	decision_yes[15] 	90
scalar tree_4_3_u08_r14_network.node[15].content_store 	decision_no[15] 	8990
scalar tree_4_3_u08_r14_network.node[15].content_store 	decision_ratio[15] 	0.0099118942731278
scalar tree_4_3_u08_r14_network.node[16].core_layer 	interests[16] 	13905
scalar tree_4_3_u08_r14_network.node[16].core_layer 	data[16] 	9346
scalar tree_4_3_u08_r14_network.node[16].content_store 	p_hit[16] 	0.32786767349874
scalar tree_4_3_u08_r14_network.node[16].content_store 	hits[16] 	4559
scalar tree_4_3_u08_r14_network.node[16].content_store 	misses[16] 	9346
scalar tree_4_3_u08_r14_network.node[16].content_store 	decision_yes[16] 	94
scalar tree_4_3_u08_r14_network.node[16].content_store 	decision_no[16] 	9252
scalar tree_4_3_u08_r14_network.node[16].content_store 	decision_ratio[16] 	0.010057778728868
scalar tree_4_3_u08_r14_network.node[17].core_layer 	interests[17] 	12836
scalar tree_4_3_u08_r14_network.node[17].core_layer 	data[17] 	9253
scalar tree_4_3_u08_r14_network.node[17].content_store 	p_hit[17] 	0.27913680274229
scalar tree_4_3_u08_r14_network.node[17].content_store 	hits[17] 	3583
scalar tree_4_3_u08_r14_network.node[17].content_store 	misses[17] 	9253
scalar tree_4_3_u08_r14_network.node[17].content_store 	decision_yes[17] 	88
scalar tree_4_3_u08_r14_network.node[17].content_store 	decision_no[17] 	9165
scalar tree_4_3_u08_r14_network.node[17].content_store 	decision_ratio[17] 	0.0095104290500378
scalar tree_4_3_u08_r14_network.node[18].core_layer 	interests[18] 	13607
scalar tree_4_3_u08_r14_network.node[18].core_layer 	data[18] 	9588
scalar tree_4_3_u08_r14_network.node[18].content_store 	p_hit[18] 	0.29536268097303
scalar tree_4_3_u08_r14_network.node[18].content_store 	hits[18] 	4019
scalar tree_4_3_u08_r14_network.node[18].content_store 	misses[18] 	9588
scalar tree_4_3_u08_r14_network.node[18].content_store 	decision_yes[18] 	101
scalar tree_4_3_u08_r14_network.node[18].content_store 	decision_no[18] 	9487
scalar tree_4_3_u08_r14_network.node[18].content_store 	decision_ratio[18] 	0.010534000834376
scalar tree_4_3_u08_r14_network.node[19].core_layer 	interests[19] 	13790
scalar tree_4_3_u08_r14_network.node[19].core_layer 	data[19] 	9342
scalar tree_4_3_u08_r14_network.node[19].content_store 	p_hit[19] 	0.32255257432922
scalar tree_4_3_u08_r14_network.node[19].content_store 	hits[19] 	4448
scalar tree_4_3_u08_r14_network.node[19].content_store 	misses[19] 	9342
scalar tree_4_3_u08_r14_network.node[19].content_store 	decision_yes[19] 	99
scalar tree_4_3_u08_r14_network.node[19].content_store 	decision_no[19] 	9243
scalar tree_4_3_u08_r14_network.node[19].content_store 	decision_ratio[19] 	0.010597302504817
scalar tree_4_3_u08_r14_network.node[20].core_layer 	interests[20] 	13013
scalar tree_4_3_u08_r14_network.node[20].core_layer 	data[20] 	9338
scalar tree_4_3_u08_r14_network.node[20].content_store 	p_hit[20] 	0.28240989779451
scalar tree_4_3_u08_r14_network.node[20].content_store 	hits[20] 	3675
scalar tree_4_3_u08_r14_network.node[20].content_store 	misses[20] 	9338
scalar tree_4_3_u08_r14_network.node[20].content_store 	decision_yes[20] 	97
scalar tree_4_3_u08_r14_network.node[20].content_store 	decision_no[20] 	9241
scalar tree_4_3_u08_r14_network.node[20].content_store 	decision_ratio[20] 	0.010387663311202
scalar tree_4_3_u08_r14_network.node[21].core_layer 	interests[21] 	13108
scalar tree_4_3_u08_r14_network.node[21].core_layer 	data[21] 	9334
scalar tree_4_3_u08_r14_network.node[21].content_store 	p_hit[21] 	0.28791577662496
scalar tree_4_3_u08_r14_network.node[21].content_store 	hits[21] 	3774
scalar tree_4_3_u08_r14_network.node[21].content_store 	misses[21] 	9334
scalar tree_4_3_u08_r14_network.node[21].content_store 	decision_yes[21] 	96
scalar tree_4_3_u08_r14_network.node[21].content_store 	decision_no[21] 	9238
scalar tree_4_3_u08_r14_network.node[21].content_store 	decision_ratio[21] 	0.010284979644311
scalar tree_4_3_u08_r14_network.node[22].core_layer 	interests[22] 	13089
scalar tree_4_3_u08_r14_network.node[22].core_layer 	data[22] 	9377
scalar tree_4_3_u08_r14_network.node[22].content_store 	p_hit[22] 	0.28359691343877
scalar tree_4_3_u08_r14_network.node[22].content_store 	hits[22] 	3712
scalar tree_4_3_u08_r14_network.node[22].content_store 	misses[22] 	9377
scalar tree_4_3_u08_r14_network.node[22].content_store 	decision_yes[22] 	82
scalar tree_4_3_u08_r14_network.node[22].content_store 	decision_no[22] 	9295
scalar tree_4_3_u08_r14_network.node[22].content_store 	decision_ratio[22] 	0.0087448011090967
scalar tree_4_3_u08_r14_network.node[23].core_layer 	interests[23] 	13662
scalar tree_4_3_u08_r14_network.node[23].core_layer 	data[23] 	9413
scalar tree_4_3_u08_r14_network.node[23].content_store 	p_hit[23] 	0.31100863709559
scalar tree_4_3_u08_r14_network.node[23].content_store 	hits[23] 	4249
scalar tree_4_3_u08_r14_network.node[23].content_store 	misses[23] 	9413
scalar tree_4_3_u08_r14_network.node[23].content_store 	decision_yes[23] 	109
scalar tree_4_3_u08_r14_network.node[23].content_store 	decision_no[23] 	9304
scalar tree_4_3_u08_r14_network.node[23].content_store 	decision_ratio[23] 	0.011579730160416
scalar tree_4_3_u08_r14_network.node[24].core_layer 	interests[24] 	13918
scalar tree_4_3_u08_r14_network.node[24].core_layer 	data[24] 	9289
scalar tree_4_3_u08_r14_network.node[24].content_store 	p_hit[24] 	0.33259088949562
scalar tree_4_3_u08_r14_network.node[24].content_store 	hits[24] 	4629
scalar tree_4_3_u08_r14_network.node[24].content_store 	misses[24] 	9289
scalar tree_4_3_u08_r14_network.node[24].content_store 	decision_yes[24] 	89
scalar tree_4_3_u08_r14_network.node[24].content_store 	decision_no[24] 	9200
scalar tree_4_3_u08_r14_network.node[24].content_store 	decision_ratio[24] 	0.0095812251049629
scalar tree_4_3_u08_r14_network.node[25].core_layer 	interests[25] 	13516
scalar tree_4_3_u08_r14_network.node[25].core_layer 	data[25] 	9227
scalar tree_4_3_u08_r14_network.node[25].content_store 	p_hit[25] 	0.31725362533294
scalar tree_4_3_u08_r14_network.node[25].content_store 	hits[25] 	4288
scalar tree_4_3_u08_r14_network.node[25].content_store 	misses[25] 	9228
scalar tree_4_3_u08_r14_network.node[25].content_store 	decision_yes[25] 	96
scalar tree_4_3_u08_r14_network.node[25].content_store 	decision_no[25] 	9131
scalar tree_4_3_u08_r14_network.node[25].content_store 	decision_ratio[25] 	0.010404248401431
scalar tree_4_3_u08_r14_network.node[26].core_layer 	interests[26] 	12765
scalar tree_4_3_u08_r14_network.node[26].core_layer 	data[26] 	9449
scalar tree_4_3_u08_r14_network.node[26].content_store 	p_hit[26] 	0.25969447708578
scalar tree_4_3_u08_r14_network.node[26].content_store 	hits[26] 	3315
scalar tree_4_3_u08_r14_network.node[26].content_store 	misses[26] 	9450
scalar tree_4_3_u08_r14_network.node[26].content_store 	decision_yes[26] 	94
scalar tree_4_3_u08_r14_network.node[26].content_store 	decision_no[26] 	9355
scalar tree_4_3_u08_r14_network.node[26].content_store 	decision_ratio[26] 	0.009948142660599
scalar tree_4_3_u08_r14_network.node[27].core_layer 	interests[27] 	13501
scalar tree_4_3_u08_r14_network.node[27].core_layer 	data[27] 	9244
scalar tree_4_3_u08_r14_network.node[27].content_store 	p_hit[27] 	0.31530997703874
scalar tree_4_3_u08_r14_network.node[27].content_store 	hits[27] 	4257
scalar tree_4_3_u08_r14_network.node[27].content_store 	misses[27] 	9244
scalar tree_4_3_u08_r14_network.node[27].content_store 	decision_yes[27] 	87
scalar tree_4_3_u08_r14_network.node[27].content_store 	decision_no[27] 	9157
scalar tree_4_3_u08_r14_network.node[27].content_store 	decision_ratio[27] 	0.0094115101687581
scalar tree_4_3_u08_r14_network.node[28].core_layer 	interests[28] 	13896
scalar tree_4_3_u08_r14_network.node[28].core_layer 	data[28] 	9414
scalar tree_4_3_u08_r14_network.node[28].content_store 	p_hit[28] 	0.32253886010363
scalar tree_4_3_u08_r14_network.node[28].content_store 	hits[28] 	4482
scalar tree_4_3_u08_r14_network.node[28].content_store 	misses[28] 	9414
scalar tree_4_3_u08_r14_network.node[28].content_store 	decision_yes[28] 	101
scalar tree_4_3_u08_r14_network.node[28].content_store 	decision_no[28] 	9313
scalar tree_4_3_u08_r14_network.node[28].content_store 	decision_ratio[28] 	0.010728701933291
scalar tree_4_3_u08_r14_network.node[29].core_layer 	interests[29] 	13099
scalar tree_4_3_u08_r14_network.node[29].core_layer 	data[29] 	9398
scalar tree_4_3_u08_r14_network.node[29].content_store 	p_hit[29] 	0.28246431025269
scalar tree_4_3_u08_r14_network.node[29].content_store 	hits[29] 	3700
scalar tree_4_3_u08_r14_network.node[29].content_store 	misses[29] 	9399
scalar tree_4_3_u08_r14_network.node[29].content_store 	decision_yes[29] 	90
scalar tree_4_3_u08_r14_network.node[29].content_store 	decision_no[29] 	9308
scalar tree_4_3_u08_r14_network.node[29].content_store 	decision_ratio[29] 	0.0095765056394978
scalar tree_4_3_u08_r14_network.node[30].core_layer 	interests[30] 	13171
scalar tree_4_3_u08_r14_network.node[30].core_layer 	data[30] 	9453
scalar tree_4_3_u08_r14_network.node[30].content_store 	p_hit[30] 	0.28221091792575
scalar tree_4_3_u08_r14_network.node[30].content_store 	hits[30] 	3717
scalar tree_4_3_u08_r14_network.node[30].content_store 	misses[30] 	9454
scalar tree_4_3_u08_r14_network.node[30].content_store 	decision_yes[30] 	100
scalar tree_4_3_u08_r14_network.node[30].content_store 	decision_no[30] 	9353
scalar tree_4_3_u08_r14_network.node[30].content_store 	decision_ratio[30] 	0.0105786522797
scalar tree_4_3_u08_r14_network.node[31].core_layer 	interests[31] 	13071
scalar tree_4_3_u08_r14_network.node[31].core_layer 	data[31] 	9407
scalar tree_4_3_u08_r14_network.node[31].content_store 	p_hit[31] 	0.28031520159131
scalar tree_4_3_u08_r14_network.node[31].content_store 	hits[31] 	3664
scalar tree_4_3_u08_r14_network.node[31].content_store 	misses[31] 	9407
scalar tree_4_3_u08_r14_network.node[31].content_store 	decision_yes[31] 	105
scalar tree_4_3_u08_r14_network.node[31].content_store 	decision_no[31] 	9302
scalar tree_4_3_u08_r14_network.node[31].content_store 	decision_ratio[31] 	0.011161900712236
scalar tree_4_3_u08_r14_network.node[32].core_layer 	interests[32] 	13679
scalar tree_4_3_u08_r14_network.node[32].core_layer 	data[32] 	9280
scalar tree_4_3_u08_r14_network.node[32].content_store 	p_hit[32] 	0.32158783536808
scalar tree_4_3_u08_r14_network.node[32].content_store 	hits[32] 	4399
scalar tree_4_3_u08_r14_network.node[32].content_store 	misses[32] 	9280
scalar tree_4_3_u08_r14_network.node[32].content_store 	decision_yes[32] 	91
scalar tree_4_3_u08_r14_network.node[32].content_store 	decision_no[32] 	9189
scalar tree_4_3_u08_r14_network.node[32].content_store 	decision_ratio[32] 	0.0098060344827586
scalar tree_4_3_u08_r14_network.node[33].core_layer 	interests[33] 	13556
scalar tree_4_3_u08_r14_network.node[33].core_layer 	data[33] 	9335
scalar tree_4_3_u08_r14_network.node[33].content_store 	p_hit[33] 	0.31130126881086
scalar tree_4_3_u08_r14_network.node[33].content_store 	hits[33] 	4220
scalar tree_4_3_u08_r14_network.node[33].content_store 	misses[33] 	9336
scalar tree_4_3_u08_r14_network.node[33].content_store 	decision_yes[33] 	94
scalar tree_4_3_u08_r14_network.node[33].content_store 	decision_no[33] 	9241
scalar tree_4_3_u08_r14_network.node[33].content_store 	decision_ratio[33] 	0.010069630423139
scalar tree_4_3_u08_r14_network.node[34].core_layer 	interests[34] 	13568
scalar tree_4_3_u08_r14_network.node[34].core_layer 	data[34] 	9342
scalar tree_4_3_u08_r14_network.node[34].content_store 	p_hit[34] 	0.31146816037736
scalar tree_4_3_u08_r14_network.node[34].content_store 	hits[34] 	4226
scalar tree_4_3_u08_r14_network.node[34].content_store 	misses[34] 	9342
scalar tree_4_3_u08_r14_network.node[34].content_store 	decision_yes[34] 	98
scalar tree_4_3_u08_r14_network.node[34].content_store 	decision_no[34] 	9244
scalar tree_4_3_u08_r14_network.node[34].content_store 	decision_ratio[34] 	0.010490259045172
scalar tree_4_3_u08_r14_network.node[35].core_layer 	interests[35] 	13043
scalar tree_4_3_u08_r14_network.node[35].core_layer 	data[35] 	9321
scalar tree_4_3_u08_r14_network.node[35].content_store 	p_hit[35] 	0.28536379667254
scalar tree_4_3_u08_r14_network.node[35].content_store 	hits[35] 	3722
scalar tree_4_3_u08_r14_network.node[35].content_store 	misses[35] 	9321
scalar tree_4_3_u08_r14_network.node[35].content_store 	decision_yes[35] 	93
scalar tree_4_3_u08_r14_network.node[35].content_store 	decision_no[35] 	9228
scalar tree_4_3_u08_r14_network.node[35].content_store 	decision_ratio[35] 	0.0099774702285163
scalar tree_4_3_u08_r14_network.node[36].core_layer 	interests[36] 	13552
scalar tree_4_3_u08_r14_network.node[36].core_layer 	data[36] 	9168
scalar tree_4_3_u08_r14_network.node[36].content_store 	p_hit[36] 	0.32342089728453
scalar tree_4_3_u08_r14_network.node[36].content_store 	hits[36] 	4383
scalar tree_4_3_u08_r14_network.node[36].content_store 	misses[36] 	9169
scalar tree_4_3_u08_r14_network.node[36].content_store 	decision_yes[36] 	96
scalar tree_4_3_u08_r14_network.node[36].content_store 	decision_no[36] 	9072
scalar tree_4_3_u08_r14_network.node[36].content_store 	decision_ratio[36] 	0.010471204188482
scalar tree_4_3_u08_r14_network.node[37].core_layer 	interests[37] 	13390
scalar tree_4_3_u08_r14_network.node[37].core_layer 	data[37] 	9269
scalar tree_4_3_u08_r14_network.node[37].content_store 	p_hit[37] 	0.30776699029126
scalar tree_4_3_u08_r14_network.node[37].content_store 	hits[37] 	4121
scalar tree_4_3_u08_r14_network.node[37].content_store 	misses[37] 	9269
scalar tree_4_3_u08_r14_network.node[37].content_store 	decision_yes[37] 	88
scalar tree_4_3_u08_r14_network.node[37].content_store 	decision_no[37] 	9181
scalar tree_4_3_u08_r14_network.node[37].content_store 	decision_ratio[37] 	0.0094940122990614
scalar tree_4_3_u08_r14_network.node[38].core_layer 	interests[38] 	12725
scalar tree_4_3_u08_r14_network.node[38].core_layer 	data[38] 	9209
scalar tree_4_3_u08_r14_network.node[38].content_store 	p_hit[38] 	0.2762278978389
scalar tree_4_3_u08_r14_network.node[38].content_store 	hits[38] 	3515
scalar tree_4_3_u08_r14_network.node[38].content_store 	misses[38] 	9210
scalar tree_4_3_u08_r14_network.node[38].content_store 	decision_yes[38] 	90
scalar tree_4_3_u08_r14_network.node[38].content_store 	decision_no[38] 	9119
scalar tree_4_3_u08_r14_network.node[38].content_store 	decision_ratio[38] 	0.0097730481051146
scalar tree_4_3_u08_r14_network.node[39].core_layer 	interests[39] 	12813
scalar tree_4_3_u08_r14_network.node[39].core_layer 	data[39] 	9284
scalar tree_4_3_u08_r14_network.node[39].content_store 	p_hit[39] 	0.27550144384609
scalar tree_4_3_u08_r14_network.node[39].content_store 	hits[39] 	3530
scalar tree_4_3_u08_r14_network.node[39].content_store 	misses[39] 	9283
scalar tree_4_3_u08_r14_network.node[39].content_store 	decision_yes[39] 	87
scalar tree_4_3_u08_r14_network.node[39].content_store 	decision_no[39] 	9197
scalar tree_4_3_u08_r14_network.node[39].content_store 	decision_ratio[39] 	0.0093709607927617
scalar tree_4_3_u08_r14_network.client[13] 	hdistance[13] 	2.7670786704527
scalar tree_4_3_u08_r14_network.client[13] 	downloads[13] 	11974
scalar tree_4_3_u08_r14_network.client[13] 	avg_time[13] 	0.00442809122
scalar tree_4_3_u08_r14_network.client[14] 	hdistance[14] 	2.7605821205821
scalar tree_4_3_u08_r14_network.client[14] 	downloads[14] 	12025
scalar tree_4_3_u08_r14_network.client[14] 	avg_time[14] 	0.004415797401
scalar tree_4_3_u08_r14_network.client[15] 	hdistance[15] 	2.6350601689852
scalar tree_4_3_u08_r14_network.client[15] 	downloads[15] 	11717
scalar tree_4_3_u08_r14_network.client[15] 	avg_time[15] 	0.004214215718
scalar tree_4_3_u08_r14_network.client[16] 	hdistance[16] 	2.6404716747753
scalar tree_4_3_u08_r14_network.client[16] 	downloads[16] 	12127
scalar tree_4_3_u08_r14_network.client[16] 	avg_time[16] 	0.00423171131
scalar tree_4_3_u08_r14_network.client[17] 	hdistance[17] 	2.7245349128222
scalar tree_4_3_u08_r14_network.client[17] 	downloads[17] 	11987
scalar tree_4_3_u08_r14_network.client[17] 	avg_time[17] 	0.00440944056
scalar tree_4_3_u08_r14_network.client[18] 	hdistance[18] 	2.675601659751
scalar tree_4_3_u08_r14_network.client[18] 	downloads[18] 	12050
scalar tree_4_3_u08_r14_network.client[18] 	avg_time[18] 	0.004303897421
scalar tree_4_3_u08_r14_network.client[19] 	hdistance[19] 	2.6517894385585
scalar tree_4_3_u08_r14_network.client[19] 	downloads[19] 	11987
scalar tree_4_3_u08_r14_network.client[19] 	avg_time[19] 	0.00425343826
scalar tree_4_3_u08_r14_network.client[20] 	hdistance[20] 	2.7104616687844
scalar tree_4_3_u08_r14_network.client[20] 	downloads[20] 	11805
scalar tree_4_3_u08_r14_network.client[20] 	avg_time[20] 	0.004372713699
scalar tree_4_3_u08_r14_network.client[21] 	hdistance[21] 	2.6905907733156
scalar tree_4_3_u08_r14_network.client[21] 	downloads[21] 	12052
scalar tree_4_3_u08_r14_network.client[21] 	avg_time[21] 	0.004337036482
scalar tree_4_3_u08_r14_network.client[22] 	hdistance[22] 	2.7473357388605
scalar tree_4_3_u08_r14_network.client[22] 	downloads[22] 	11917
scalar tree_4_3_u08_r14_network.client[22] 	avg_time[22] 	0.004449942445
scalar tree_4_3_u08_r14_network.client[23] 	hdistance[23] 	2.6464787574986
scalar tree_4_3_u08_r14_network.client[23] 	downloads[23] 	12169
scalar tree_4_3_u08_r14_network.client[23] 	avg_time[23] 	0.004244059715
scalar tree_4_3_u08_r14_network.client[24] 	hdistance[24] 	2.5996519433165
scalar tree_4_3_u08_r14_network.client[24] 	downloads[24] 	12067
scalar tree_4_3_u08_r14_network.client[24] 	avg_time[24] 	0.004169053088
scalar tree_4_3_u08_r14_network.client[25] 	hdistance[25] 	2.63053982006
scalar tree_4_3_u08_r14_network.client[25] 	downloads[25] 	12004
scalar tree_4_3_u08_r14_network.client[25] 	avg_time[25] 	0.004216931089
scalar tree_4_3_u08_r14_network.client[26] 	hdistance[26] 	2.7754543191436
scalar tree_4_3_u08_r14_network.client[26] 	downloads[26] 	12051
scalar tree_4_3_u08_r14_network.client[26] 	avg_time[26] 	0.004443943537
scalar tree_4_3_u08_r14_network.client[27] 	hdistance[27] 	2.6158313972785
scalar tree_4_3_u08_r14_network.client[27] 	downloads[27] 	12052
scalar tree_4_3_u08_r14_network.client[27] 	avg_time[27] 	0.00418419878
scalar tree_4_3_u08_r14_network.client[28] 	hdistance[28] 	2.6307957908583
scalar tree_4_3_u08_r14_network.client[28] 	downloads[28] 	12164
scalar tree_4_3_u08_r14_network.client[28] 	avg_time[28] 	0.004221798963
scalar tree_4_3_u08_r14_network.client[29] 	hdistance[29] 	2.7311293396305
scalar tree_4_3_u08_r14_network.client[29] 	downloads[29] 	12069
scalar tree_4_3_u08_r14_network.client[29] 	avg_time[29] 	0.004400361545
scalar tree_4_3_u08_r14_network.client[30] 	hdistance[30] 	2.7073009580443
scalar tree_4_3_u08_r14_network.client[30] 	downloads[30] 	12108
scalar tree_4_3_u08_r14_network.client[30] 	avg_time[30] 	0.004358437674
scalar tree_4_3_u08_r14_network.client[31] 	hdistance[31] 	2.7367589590089
scalar tree_4_3_u08_r14_network.client[31] 	downloads[31] 	12027
scalar tree_4_3_u08_r14_network.client[31] 	avg_time[31] 	0.004436847375
scalar tree_4_3_u08_r14_network.client[32] 	hdistance[32] 	2.6393113822497
scalar tree_4_3_u08_r14_network.client[32] 	downloads[32] 	11966
scalar tree_4_3_u08_r14_network.client[32] 	avg_time[32] 	0.004244857444
scalar tree_4_3_u08_r14_network.client[33] 	hdistance[33] 	2.6574730094467
scalar tree_4_3_u08_r14_network.client[33] 	downloads[33] 	11856
scalar tree_4_3_u08_r14_network.client[33] 	avg_time[33] 	0.004262311644
scalar tree_4_3_u08_r14_network.client[34] 	hdistance[34] 	2.6348585690516
scalar tree_4_3_u08_r14_network.client[34] 	downloads[34] 	12020
scalar tree_4_3_u08_r14_network.client[34] 	avg_time[34] 	0.004241095156
scalar tree_4_3_u08_r14_network.client[35] 	hdistance[35] 	2.7130029930163
scalar tree_4_3_u08_r14_network.client[35] 	downloads[35] 	12028
scalar tree_4_3_u08_r14_network.client[35] 	avg_time[35] 	0.004372461231
scalar tree_4_3_u08_r14_network.client[36] 	hdistance[36] 	2.619537060249
scalar tree_4_3_u08_r14_network.client[36] 	downloads[36] 	11967
scalar tree_4_3_u08_r14_network.client[36] 	avg_time[36] 	0.004188138361
scalar tree_4_3_u08_r14_network.client[37] 	hdistance[37] 	2.6575237771739
scalar tree_4_3_u08_r14_network.client[37] 	downloads[37] 	11776
scalar tree_4_3_u08_r14_network.client[37] 	avg_time[37] 	0.004263170738
scalar tree_4_3_u08_r14_network.client[38] 	hdistance[38] 	2.7252043481925
scalar tree_4_3_u08_r14_network.client[38] 	downloads[38] 	11867
scalar tree_4_3_u08_r14_network.client[38] 	avg_time[38] 	0.004341229592
scalar tree_4_3_u08_r14_network.client[39] 	hdistance[39] 	2.6977401129944
scalar tree_4_3_u08_r14_network.client[39] 	downloads[39] 	12036
scalar tree_4_3_u08_r14_network.client[39] 	avg_time[39] 	0.004310731458
