version 2
run General-160-20160819-04:56:24-14109
attr a 0.9
attr cd fix0.01
attr configname General
attr cr lru
attr datetime 20160819-04:56:24
attr experiment General
attr fsize 1
attr inifile hw5115/scenario_A/NRR-FIX0.01.ini
attr iterationvars "$name=tree_4_3, $un=08, $rep=1, $cd=fix0.01, $cr=lru, $fsize=1, $a=0.9, $sl=nrr, $ttl=1000, $variance=0.05"
attr iterationvars2 "$name=tree_4_3, $un=08, $rep=1, $cd=fix0.01, $cr=lru, $fsize=1, $a=0.9, $sl=nrr, $ttl=1000, $variance=0.05, $repetition=0"
attr measurement "$name=tree_4_3, $un=08, $rep=1, $cd=fix0.01, $cr=lru, $fsize=1, $a=0.9, $sl=nrr, $ttl=1000, $variance=0.05"
attr name tree_4_3
attr network networks.${name}_u${un}_r${rep}_network
attr processid 14109
attr rep 1
attr repetition 0
attr replication #0
attr resultdir results
attr runnumber 160
attr seedset 1
attr sl nrr
attr ttl 1000
attr un 08
attr variance 0.05

scalar . 	a 	0.9
scalar . 	fsize 	1
scalar . 	rep 	1
scalar . 	ttl 	1000
scalar . 	un 	08
scalar . 	variance 	0.05
scalar tree_4_3_u08_r1_network.content_distribution 	repo-0 	0
scalar tree_4_3_u08_r1_network.content_distribution 	client-0 	13
scalar tree_4_3_u08_r1_network.content_distribution 	client-1 	14
scalar tree_4_3_u08_r1_network.content_distribution 	client-2 	15
scalar tree_4_3_u08_r1_network.content_distribution 	client-3 	16
scalar tree_4_3_u08_r1_network.content_distribution 	client-4 	17
scalar tree_4_3_u08_r1_network.content_distribution 	client-5 	18
scalar tree_4_3_u08_r1_network.content_distribution 	client-6 	19
scalar tree_4_3_u08_r1_network.content_distribution 	client-7 	20
scalar tree_4_3_u08_r1_network.content_distribution 	client-8 	21
scalar tree_4_3_u08_r1_network.content_distribution 	client-9 	22
scalar tree_4_3_u08_r1_network.content_distribution 	client-10 	23
scalar tree_4_3_u08_r1_network.content_distribution 	client-11 	24
scalar tree_4_3_u08_r1_network.content_distribution 	client-12 	25
scalar tree_4_3_u08_r1_network.content_distribution 	client-13 	26
scalar tree_4_3_u08_r1_network.content_distribution 	client-14 	27
scalar tree_4_3_u08_r1_network.content_distribution 	client-15 	28
scalar tree_4_3_u08_r1_network.content_distribution 	client-16 	29
scalar tree_4_3_u08_r1_network.content_distribution 	client-17 	30
scalar tree_4_3_u08_r1_network.content_distribution 	client-18 	31
scalar tree_4_3_u08_r1_network.content_distribution 	client-19 	32
scalar tree_4_3_u08_r1_network.content_distribution 	client-20 	33
scalar tree_4_3_u08_r1_network.content_distribution 	client-21 	34
scalar tree_4_3_u08_r1_network.content_distribution 	client-22 	35
scalar tree_4_3_u08_r1_network.content_distribution 	client-23 	36
scalar tree_4_3_u08_r1_network.content_distribution 	client-24 	37
scalar tree_4_3_u08_r1_network.content_distribution 	client-25 	38
scalar tree_4_3_u08_r1_network.content_distribution 	client-26 	39
scalar tree_4_3_u08_r1_network.content_distribution 	repo-0_card 	100000
scalar tree_4_3_u08_r1_network.content_distribution 	repo-0_price 	0
scalar tree_4_3_u08_r1_network.statistics 	stabilization_time 	1902.3
scalar tree_4_3_u08_r1_network.statistics 	p_hit 	0.23948597417211
scalar tree_4_3_u08_r1_network.statistics 	interests 	25440.35
scalar tree_4_3_u08_r1_network.statistics 	data 	17328.85
scalar tree_4_3_u08_r1_network.statistics 	hdistance 	2.6826469607519
scalar tree_4_3_u08_r1_network.statistics 	avg_time 	0.004272920851
scalar tree_4_3_u08_r1_network.statistics 	downloads 	324457
scalar tree_4_3_u08_r1_network.statistics 	total_cost 	0
scalar tree_4_3_u08_r1_network.statistics 	total_replicas 	100000
scalar tree_4_3_u08_r1_network.statistics 	inner_hit 	0.45383517692637
scalar tree_4_3_u08_r1_network.node[0].core_layer 	interests[0] 	178491
scalar tree_4_3_u08_r1_network.node[0].core_layer 	repo_load[0] 	177207
scalar tree_4_3_u08_r1_network.node[0].core_layer 	data[0] 	0
scalar tree_4_3_u08_r1_network.node[0].core_layer 	repo_int[0] 	177207
scalar tree_4_3_u08_r1_network.node[0].content_store 	p_hit[0] 	0.007193640015463
scalar tree_4_3_u08_r1_network.node[0].content_store 	hits[0] 	1284
scalar tree_4_3_u08_r1_network.node[0].content_store 	misses[0] 	177207
scalar tree_4_3_u08_r1_network.node[0].content_store 	decision_yes[0] 	1708
scalar tree_4_3_u08_r1_network.node[0].content_store 	decision_no[0] 	175499
scalar tree_4_3_u08_r1_network.node[0].content_store 	decision_ratio[0] 	0.0096384454338711
scalar tree_4_3_u08_r1_network.node[1].core_layer 	interests[1] 	100802
scalar tree_4_3_u08_r1_network.node[1].core_layer 	data[1] 	99673
scalar tree_4_3_u08_r1_network.node[1].content_store 	p_hit[1] 	0.011190254161624
scalar tree_4_3_u08_r1_network.node[1].content_store 	hits[1] 	1128
scalar tree_4_3_u08_r1_network.node[1].content_store 	misses[1] 	99674
scalar tree_4_3_u08_r1_network.node[1].content_store 	decision_yes[1] 	1001
scalar tree_4_3_u08_r1_network.node[1].content_store 	decision_no[1] 	98672
scalar tree_4_3_u08_r1_network.node[1].content_store 	decision_ratio[1] 	0.010042840087085
scalar tree_4_3_u08_r1_network.node[2].core_layer 	interests[2] 	86824
scalar tree_4_3_u08_r1_network.node[2].core_layer 	data[2] 	85610
scalar tree_4_3_u08_r1_network.node[2].content_store 	p_hit[2] 	0.013993826591726
scalar tree_4_3_u08_r1_network.node[2].content_store 	hits[2] 	1215
scalar tree_4_3_u08_r1_network.node[2].content_store 	misses[2] 	85609
scalar tree_4_3_u08_r1_network.node[2].content_store 	decision_yes[2] 	893
scalar tree_4_3_u08_r1_network.node[2].content_store 	decision_no[2] 	84716
scalar tree_4_3_u08_r1_network.node[2].content_store 	decision_ratio[2] 	0.010431146257987
scalar tree_4_3_u08_r1_network.node[3].core_layer 	interests[3] 	19261
scalar tree_4_3_u08_r1_network.node[3].core_layer 	data[3] 	14711
scalar tree_4_3_u08_r1_network.node[3].content_store 	p_hit[3] 	0.23617673018016
scalar tree_4_3_u08_r1_network.node[3].content_store 	hits[3] 	4549
scalar tree_4_3_u08_r1_network.node[3].content_store 	misses[3] 	14712
scalar tree_4_3_u08_r1_network.node[3].content_store 	decision_yes[3] 	146
scalar tree_4_3_u08_r1_network.node[3].content_store 	decision_no[3] 	14565
scalar tree_4_3_u08_r1_network.node[3].content_store 	decision_ratio[3] 	0.0099245462579022
scalar tree_4_3_u08_r1_network.node[4].core_layer 	interests[4] 	44505
scalar tree_4_3_u08_r1_network.node[4].core_layer 	data[4] 	41494
scalar tree_4_3_u08_r1_network.node[4].content_store 	p_hit[4] 	0.067632850241546
scalar tree_4_3_u08_r1_network.node[4].content_store 	hits[4] 	3010
scalar tree_4_3_u08_r1_network.node[4].content_store 	misses[4] 	41495
scalar tree_4_3_u08_r1_network.node[4].content_store 	decision_yes[4] 	426
scalar tree_4_3_u08_r1_network.node[4].content_store 	decision_no[4] 	41068
scalar tree_4_3_u08_r1_network.node[4].content_store 	decision_ratio[4] 	0.010266544560659
scalar tree_4_3_u08_r1_network.node[5].core_layer 	interests[5] 	19025
scalar tree_4_3_u08_r1_network.node[5].core_layer 	data[5] 	16851
scalar tree_4_3_u08_r1_network.node[5].content_store 	p_hit[5] 	0.11427069645204
scalar tree_4_3_u08_r1_network.node[5].content_store 	hits[5] 	2174
scalar tree_4_3_u08_r1_network.node[5].content_store 	misses[5] 	16851
scalar tree_4_3_u08_r1_network.node[5].content_store 	decision_yes[5] 	197
scalar tree_4_3_u08_r1_network.node[5].content_store 	decision_no[5] 	16654
scalar tree_4_3_u08_r1_network.node[5].content_store 	decision_ratio[5] 	0.011690700848614
scalar tree_4_3_u08_r1_network.node[6].core_layer 	interests[6] 	26974
scalar tree_4_3_u08_r1_network.node[6].core_layer 	data[6] 	22558
scalar tree_4_3_u08_r1_network.node[6].content_store 	p_hit[6] 	0.16371320530882
scalar tree_4_3_u08_r1_network.node[6].content_store 	hits[6] 	4416
scalar tree_4_3_u08_r1_network.node[6].content_store 	misses[6] 	22558
scalar tree_4_3_u08_r1_network.node[6].content_store 	decision_yes[6] 	219
scalar tree_4_3_u08_r1_network.node[6].content_store 	decision_no[6] 	22339
scalar tree_4_3_u08_r1_network.node[6].content_store 	decision_ratio[6] 	0.0097083074740668
scalar tree_4_3_u08_r1_network.node[7].core_layer 	interests[7] 	42835
scalar tree_4_3_u08_r1_network.node[7].core_layer 	data[7] 	39894
scalar tree_4_3_u08_r1_network.node[7].content_store 	p_hit[7] 	0.068635461655189
scalar tree_4_3_u08_r1_network.node[7].content_store 	hits[7] 	2940
scalar tree_4_3_u08_r1_network.node[7].content_store 	misses[7] 	39895
scalar tree_4_3_u08_r1_network.node[7].content_store 	decision_yes[7] 	436
scalar tree_4_3_u08_r1_network.node[7].content_store 	decision_no[7] 	39458
scalar tree_4_3_u08_r1_network.node[7].content_store 	decision_ratio[7] 	0.010928961748634
scalar tree_4_3_u08_r1_network.node[8].core_layer 	interests[8] 	27837
scalar tree_4_3_u08_r1_network.node[8].core_layer 	data[8] 	24879
scalar tree_4_3_u08_r1_network.node[8].content_store 	p_hit[8] 	0.10626145058735
scalar tree_4_3_u08_r1_network.node[8].content_store 	hits[8] 	2958
scalar tree_4_3_u08_r1_network.node[8].content_store 	misses[8] 	24879
scalar tree_4_3_u08_r1_network.node[8].content_store 	decision_yes[8] 	262
scalar tree_4_3_u08_r1_network.node[8].content_store 	decision_no[8] 	24617
scalar tree_4_3_u08_r1_network.node[8].content_store 	decision_ratio[8] 	0.010530969894288
scalar tree_4_3_u08_r1_network.node[9].core_layer 	interests[9] 	19102
scalar tree_4_3_u08_r1_network.node[9].core_layer 	data[9] 	14507
scalar tree_4_3_u08_r1_network.node[9].content_store 	p_hit[9] 	0.24060307821171
scalar tree_4_3_u08_r1_network.node[9].content_store 	hits[9] 	4596
scalar tree_4_3_u08_r1_network.node[9].content_store 	misses[9] 	14506
scalar tree_4_3_u08_r1_network.node[9].content_store 	decision_yes[9] 	145
scalar tree_4_3_u08_r1_network.node[9].content_store 	decision_no[9] 	14362
scalar tree_4_3_u08_r1_network.node[9].content_store 	decision_ratio[9] 	0.0099951747432274
scalar tree_4_3_u08_r1_network.node[10].core_layer 	interests[10] 	46110
scalar tree_4_3_u08_r1_network.node[10].core_layer 	data[10] 	42777
scalar tree_4_3_u08_r1_network.node[10].content_store 	p_hit[10] 	0.072240294946866
scalar tree_4_3_u08_r1_network.node[10].content_store 	hits[10] 	3331
scalar tree_4_3_u08_r1_network.node[10].content_store 	misses[10] 	42779
scalar tree_4_3_u08_r1_network.node[10].content_store 	decision_yes[10] 	403
scalar tree_4_3_u08_r1_network.node[10].content_store 	decision_no[10] 	42374
scalar tree_4_3_u08_r1_network.node[10].content_store 	decision_ratio[10] 	0.0094209505107885
scalar tree_4_3_u08_r1_network.node[11].core_layer 	interests[11] 	32325
scalar tree_4_3_u08_r1_network.node[11].core_layer 	data[11] 	28298
scalar tree_4_3_u08_r1_network.node[11].content_store 	p_hit[11] 	0.1245784996133
scalar tree_4_3_u08_r1_network.node[11].content_store 	hits[11] 	4027
scalar tree_4_3_u08_r1_network.node[11].content_store 	misses[11] 	28298
scalar tree_4_3_u08_r1_network.node[11].content_store 	decision_yes[11] 	277
scalar tree_4_3_u08_r1_network.node[11].content_store 	decision_no[11] 	28021
scalar tree_4_3_u08_r1_network.node[11].content_store 	decision_ratio[11] 	0.0097886776450633
scalar tree_4_3_u08_r1_network.node[12].core_layer 	interests[12] 	14339
scalar tree_4_3_u08_r1_network.node[12].core_layer 	data[12] 	10353
scalar tree_4_3_u08_r1_network.node[12].content_store 	p_hit[12] 	0.27798312295139
scalar tree_4_3_u08_r1_network.node[12].content_store 	hits[12] 	3986
scalar tree_4_3_u08_r1_network.node[12].content_store 	misses[12] 	10353
scalar tree_4_3_u08_r1_network.node[12].content_store 	decision_yes[12] 	109
scalar tree_4_3_u08_r1_network.node[12].content_store 	decision_no[12] 	10244
scalar tree_4_3_u08_r1_network.node[12].content_store 	decision_ratio[12] 	0.010528349270743
scalar tree_4_3_u08_r1_network.node[13].core_layer 	interests[13] 	12775
scalar tree_4_3_u08_r1_network.node[13].core_layer 	data[13] 	9368
scalar tree_4_3_u08_r1_network.node[13].content_store 	p_hit[13] 	0.2666927592955
scalar tree_4_3_u08_r1_network.node[13].content_store 	hits[13] 	3407
scalar tree_4_3_u08_r1_network.node[13].content_store 	misses[13] 	9368
scalar tree_4_3_u08_r1_network.node[13].content_store 	decision_yes[13] 	98
scalar tree_4_3_u08_r1_network.node[13].content_store 	decision_no[13] 	9270
scalar tree_4_3_u08_r1_network.node[13].content_store 	decision_ratio[13] 	0.010461144321093
scalar tree_4_3_u08_r1_network.node[14].core_layer 	interests[14] 	12724
scalar tree_4_3_u08_r1_network.node[14].core_layer 	data[14] 	9036
scalar tree_4_3_u08_r1_network.node[14].content_store 	p_hit[14] 	0.28984596038981
scalar tree_4_3_u08_r1_network.node[14].content_store 	hits[14] 	3688
scalar tree_4_3_u08_r1_network.node[14].content_store 	misses[14] 	9036
scalar tree_4_3_u08_r1_network.node[14].content_store 	decision_yes[14] 	91
scalar tree_4_3_u08_r1_network.node[14].content_store 	decision_no[14] 	8945
scalar tree_4_3_u08_r1_network.node[14].content_store 	decision_ratio[14] 	0.010070827799911
scalar tree_4_3_u08_r1_network.node[15].core_layer 	interests[15] 	13952
scalar tree_4_3_u08_r1_network.node[15].core_layer 	data[15] 	9349
scalar tree_4_3_u08_r1_network.node[15].content_store 	p_hit[15] 	0.32991685779817
scalar tree_4_3_u08_r1_network.node[15].content_store 	hits[15] 	4603
scalar tree_4_3_u08_r1_network.node[15].content_store 	misses[15] 	9349
scalar tree_4_3_u08_r1_network.node[15].content_store 	decision_yes[15] 	94
scalar tree_4_3_u08_r1_network.node[15].content_store 	decision_no[15] 	9255
scalar tree_4_3_u08_r1_network.node[15].content_store 	decision_ratio[15] 	0.010054551288908
scalar tree_4_3_u08_r1_network.node[16].core_layer 	interests[16] 	13534
scalar tree_4_3_u08_r1_network.node[16].core_layer 	data[16] 	9313
scalar tree_4_3_u08_r1_network.node[16].content_store 	p_hit[16] 	0.31188118811881
scalar tree_4_3_u08_r1_network.node[16].content_store 	hits[16] 	4221
scalar tree_4_3_u08_r1_network.node[16].content_store 	misses[16] 	9313
scalar tree_4_3_u08_r1_network.node[16].content_store 	decision_yes[16] 	99
scalar tree_4_3_u08_r1_network.node[16].content_store 	decision_no[16] 	9214
scalar tree_4_3_u08_r1_network.node[16].content_store 	decision_ratio[16] 	0.010630301728766
scalar tree_4_3_u08_r1_network.node[17].core_layer 	interests[17] 	12509
scalar tree_4_3_u08_r1_network.node[17].core_layer 	data[17] 	9410
scalar tree_4_3_u08_r1_network.node[17].content_store 	p_hit[17] 	0.24766168358782
scalar tree_4_3_u08_r1_network.node[17].content_store 	hits[17] 	3098
scalar tree_4_3_u08_r1_network.node[17].content_store 	misses[17] 	9411
scalar tree_4_3_u08_r1_network.node[17].content_store 	decision_yes[17] 	98
scalar tree_4_3_u08_r1_network.node[17].content_store 	decision_no[17] 	9312
scalar tree_4_3_u08_r1_network.node[17].content_store 	decision_ratio[17] 	0.010414452709883
scalar tree_4_3_u08_r1_network.node[18].core_layer 	interests[18] 	13574
scalar tree_4_3_u08_r1_network.node[18].core_layer 	data[18] 	9192
scalar tree_4_3_u08_r1_network.node[18].content_store 	p_hit[18] 	0.32282304405481
scalar tree_4_3_u08_r1_network.node[18].content_store 	hits[18] 	4382
scalar tree_4_3_u08_r1_network.node[18].content_store 	misses[18] 	9192
scalar tree_4_3_u08_r1_network.node[18].content_store 	decision_yes[18] 	96
scalar tree_4_3_u08_r1_network.node[18].content_store 	decision_no[18] 	9096
scalar tree_4_3_u08_r1_network.node[18].content_store 	decision_ratio[18] 	0.010443864229765
scalar tree_4_3_u08_r1_network.node[19].core_layer 	interests[19] 	13843
scalar tree_4_3_u08_r1_network.node[19].core_layer 	data[19] 	9406
scalar tree_4_3_u08_r1_network.node[19].content_store 	p_hit[19] 	0.32045076934191
scalar tree_4_3_u08_r1_network.node[19].content_store 	hits[19] 	4436
scalar tree_4_3_u08_r1_network.node[19].content_store 	misses[19] 	9407
scalar tree_4_3_u08_r1_network.node[19].content_store 	decision_yes[19] 	105
scalar tree_4_3_u08_r1_network.node[19].content_store 	decision_no[19] 	9301
scalar tree_4_3_u08_r1_network.node[19].content_store 	decision_ratio[19] 	0.011163087391027
scalar tree_4_3_u08_r1_network.node[20].core_layer 	interests[20] 	13217
scalar tree_4_3_u08_r1_network.node[20].core_layer 	data[20] 	9427
scalar tree_4_3_u08_r1_network.node[20].content_store 	p_hit[20] 	0.2867519104184
scalar tree_4_3_u08_r1_network.node[20].content_store 	hits[20] 	3790
scalar tree_4_3_u08_r1_network.node[20].content_store 	misses[20] 	9427
scalar tree_4_3_u08_r1_network.node[20].content_store 	decision_yes[20] 	85
scalar tree_4_3_u08_r1_network.node[20].content_store 	decision_no[20] 	9342
scalar tree_4_3_u08_r1_network.node[20].content_store 	decision_ratio[20] 	0.0090166542908667
scalar tree_4_3_u08_r1_network.node[21].core_layer 	interests[21] 	13321
scalar tree_4_3_u08_r1_network.node[21].core_layer 	data[21] 	9340
scalar tree_4_3_u08_r1_network.node[21].content_store 	p_hit[21] 	0.29885143757976
scalar tree_4_3_u08_r1_network.node[21].content_store 	hits[21] 	3981
scalar tree_4_3_u08_r1_network.node[21].content_store 	misses[21] 	9340
scalar tree_4_3_u08_r1_network.node[21].content_store 	decision_yes[21] 	90
scalar tree_4_3_u08_r1_network.node[21].content_store 	decision_no[21] 	9250
scalar tree_4_3_u08_r1_network.node[21].content_store 	decision_ratio[21] 	0.0096359743040685
scalar tree_4_3_u08_r1_network.node[22].core_layer 	interests[22] 	12588
scalar tree_4_3_u08_r1_network.node[22].core_layer 	data[22] 	9090
scalar tree_4_3_u08_r1_network.node[22].content_store 	p_hit[22] 	0.27788369876072
scalar tree_4_3_u08_r1_network.node[22].content_store 	hits[22] 	3498
scalar tree_4_3_u08_r1_network.node[22].content_store 	misses[22] 	9090
scalar tree_4_3_u08_r1_network.node[22].content_store 	decision_yes[22] 	86
scalar tree_4_3_u08_r1_network.node[22].content_store 	decision_no[22] 	9004
scalar tree_4_3_u08_r1_network.node[22].content_store 	decision_ratio[22] 	0.0094609460946095
scalar tree_4_3_u08_r1_network.node[23].core_layer 	interests[23] 	13051
scalar tree_4_3_u08_r1_network.node[23].core_layer 	data[23] 	9102
scalar tree_4_3_u08_r1_network.node[23].content_store 	p_hit[23] 	0.30258217761091
scalar tree_4_3_u08_r1_network.node[23].content_store 	hits[23] 	3949
scalar tree_4_3_u08_r1_network.node[23].content_store 	misses[23] 	9102
scalar tree_4_3_u08_r1_network.node[23].content_store 	decision_yes[23] 	86
scalar tree_4_3_u08_r1_network.node[23].content_store 	decision_no[23] 	9016
scalar tree_4_3_u08_r1_network.node[23].content_store 	decision_ratio[23] 	0.009448472863107
scalar tree_4_3_u08_r1_network.node[24].core_layer 	interests[24] 	13561
scalar tree_4_3_u08_r1_network.node[24].core_layer 	data[24] 	9390
scalar tree_4_3_u08_r1_network.node[24].content_store 	p_hit[24] 	0.30757318781801
scalar tree_4_3_u08_r1_network.node[24].content_store 	hits[24] 	4171
scalar tree_4_3_u08_r1_network.node[24].content_store 	misses[24] 	9390
scalar tree_4_3_u08_r1_network.node[24].content_store 	decision_yes[24] 	92
scalar tree_4_3_u08_r1_network.node[24].content_store 	decision_no[24] 	9298
scalar tree_4_3_u08_r1_network.node[24].content_store 	decision_ratio[24] 	0.0097976570820021
scalar tree_4_3_u08_r1_network.node[25].core_layer 	interests[25] 	13251
scalar tree_4_3_u08_r1_network.node[25].core_layer 	data[25] 	9320
scalar tree_4_3_u08_r1_network.node[25].content_store 	p_hit[25] 	0.29665685608633
scalar tree_4_3_u08_r1_network.node[25].content_store 	hits[25] 	3931
scalar tree_4_3_u08_r1_network.node[25].content_store 	misses[25] 	9320
scalar tree_4_3_u08_r1_network.node[25].content_store 	decision_yes[25] 	80
scalar tree_4_3_u08_r1_network.node[25].content_store 	decision_no[25] 	9240
scalar tree_4_3_u08_r1_network.node[25].content_store 	decision_ratio[25] 	0.0085836909871245
scalar tree_4_3_u08_r1_network.node[26].core_layer 	interests[26] 	12851
scalar tree_4_3_u08_r1_network.node[26].core_layer 	data[26] 	9334
scalar tree_4_3_u08_r1_network.node[26].content_store 	p_hit[26] 	0.27367520037351
scalar tree_4_3_u08_r1_network.node[26].content_store 	hits[26] 	3517
scalar tree_4_3_u08_r1_network.node[26].content_store 	misses[26] 	9334
scalar tree_4_3_u08_r1_network.node[26].content_store 	decision_yes[26] 	93
scalar tree_4_3_u08_r1_network.node[26].content_store 	decision_no[26] 	9241
scalar tree_4_3_u08_r1_network.node[26].content_store 	decision_ratio[26] 	0.0099635740304264
scalar tree_4_3_u08_r1_network.node[27].core_layer 	interests[27] 	13674
scalar tree_4_3_u08_r1_network.node[27].core_layer 	data[27] 	9453
scalar tree_4_3_u08_r1_network.node[27].content_store 	p_hit[27] 	0.30868802106187
scalar tree_4_3_u08_r1_network.node[27].content_store 	hits[27] 	4221
scalar tree_4_3_u08_r1_network.node[27].content_store 	misses[27] 	9453
scalar tree_4_3_u08_r1_network.node[27].content_store 	decision_yes[27] 	110
scalar tree_4_3_u08_r1_network.node[27].content_store 	decision_no[27] 	9343
scalar tree_4_3_u08_r1_network.node[27].content_store 	decision_ratio[27] 	0.01163651750767
scalar tree_4_3_u08_r1_network.node[28].core_layer 	interests[28] 	13531
scalar tree_4_3_u08_r1_network.node[28].core_layer 	data[28] 	9384
scalar tree_4_3_u08_r1_network.node[28].content_store 	p_hit[28] 	0.30648141305151
scalar tree_4_3_u08_r1_network.node[28].content_store 	hits[28] 	4147
scalar tree_4_3_u08_r1_network.node[28].content_store 	misses[28] 	9384
scalar tree_4_3_u08_r1_network.node[28].content_store 	decision_yes[28] 	76
scalar tree_4_3_u08_r1_network.node[28].content_store 	decision_no[28] 	9308
scalar tree_4_3_u08_r1_network.node[28].content_store 	decision_ratio[28] 	0.0080988917306053
scalar tree_4_3_u08_r1_network.node[29].core_layer 	interests[29] 	13548
scalar tree_4_3_u08_r1_network.node[29].core_layer 	data[29] 	9417
scalar tree_4_3_u08_r1_network.node[29].content_store 	p_hit[29] 	0.30491585473871
scalar tree_4_3_u08_r1_network.node[29].content_store 	hits[29] 	4131
scalar tree_4_3_u08_r1_network.node[29].content_store 	misses[29] 	9417
scalar tree_4_3_u08_r1_network.node[29].content_store 	decision_yes[29] 	91
scalar tree_4_3_u08_r1_network.node[29].content_store 	decision_no[29] 	9326
scalar tree_4_3_u08_r1_network.node[29].content_store 	decision_ratio[29] 	0.0096633747477965
scalar tree_4_3_u08_r1_network.node[30].core_layer 	interests[30] 	12998
scalar tree_4_3_u08_r1_network.node[30].core_layer 	data[30] 	9260
scalar tree_4_3_u08_r1_network.node[30].content_store 	p_hit[30] 	0.28765963994461
scalar tree_4_3_u08_r1_network.node[30].content_store 	hits[30] 	3739
scalar tree_4_3_u08_r1_network.node[30].content_store 	misses[30] 	9259
scalar tree_4_3_u08_r1_network.node[30].content_store 	decision_yes[30] 	108
scalar tree_4_3_u08_r1_network.node[30].content_store 	decision_no[30] 	9152
scalar tree_4_3_u08_r1_network.node[30].content_store 	decision_ratio[30] 	0.011663066954644
scalar tree_4_3_u08_r1_network.node[31].core_layer 	interests[31] 	12945
scalar tree_4_3_u08_r1_network.node[31].core_layer 	data[31] 	9325
scalar tree_4_3_u08_r1_network.node[31].content_store 	p_hit[31] 	0.27956740054075
scalar tree_4_3_u08_r1_network.node[31].content_store 	hits[31] 	3619
scalar tree_4_3_u08_r1_network.node[31].content_store 	misses[31] 	9326
scalar tree_4_3_u08_r1_network.node[31].content_store 	decision_yes[31] 	82
scalar tree_4_3_u08_r1_network.node[31].content_store 	decision_no[31] 	9243
scalar tree_4_3_u08_r1_network.node[31].content_store 	decision_ratio[31] 	0.0087935656836461
scalar tree_4_3_u08_r1_network.node[32].core_layer 	interests[32] 	13705
scalar tree_4_3_u08_r1_network.node[32].core_layer 	data[32] 	9277
scalar tree_4_3_u08_r1_network.node[32].content_store 	p_hit[32] 	0.32302079533017
scalar tree_4_3_u08_r1_network.node[32].content_store 	hits[32] 	4427
scalar tree_4_3_u08_r1_network.node[32].content_store 	misses[32] 	9278
scalar tree_4_3_u08_r1_network.node[32].content_store 	decision_yes[32] 	100
scalar tree_4_3_u08_r1_network.node[32].content_store 	decision_no[32] 	9177
scalar tree_4_3_u08_r1_network.node[32].content_store 	decision_ratio[32] 	0.010779346771586
scalar tree_4_3_u08_r1_network.node[33].core_layer 	interests[33] 	13734
scalar tree_4_3_u08_r1_network.node[33].core_layer 	data[33] 	9249
scalar tree_4_3_u08_r1_network.node[33].content_store 	p_hit[33] 	0.32656181738751
scalar tree_4_3_u08_r1_network.node[33].content_store 	hits[33] 	4485
scalar tree_4_3_u08_r1_network.node[33].content_store 	misses[33] 	9249
scalar tree_4_3_u08_r1_network.node[33].content_store 	decision_yes[33] 	91
scalar tree_4_3_u08_r1_network.node[33].content_store 	decision_no[33] 	9158
scalar tree_4_3_u08_r1_network.node[33].content_store 	decision_ratio[33] 	0.0098389015028652
scalar tree_4_3_u08_r1_network.node[34].core_layer 	interests[34] 	13747
scalar tree_4_3_u08_r1_network.node[34].core_layer 	data[34] 	9216
scalar tree_4_3_u08_r1_network.node[34].content_store 	p_hit[34] 	0.32959918527679
scalar tree_4_3_u08_r1_network.node[34].content_store 	hits[34] 	4531
scalar tree_4_3_u08_r1_network.node[34].content_store 	misses[34] 	9216
scalar tree_4_3_u08_r1_network.node[34].content_store 	decision_yes[34] 	105
scalar tree_4_3_u08_r1_network.node[34].content_store 	decision_no[34] 	9111
scalar tree_4_3_u08_r1_network.node[34].content_store 	decision_ratio[34] 	0.011393229166667
scalar tree_4_3_u08_r1_network.node[35].core_layer 	interests[35] 	13067
scalar tree_4_3_u08_r1_network.node[35].core_layer 	data[35] 	9500
scalar tree_4_3_u08_r1_network.node[35].content_store 	p_hit[35] 	0.27297773015994
scalar tree_4_3_u08_r1_network.node[35].content_store 	hits[35] 	3567
scalar tree_4_3_u08_r1_network.node[35].content_store 	misses[35] 	9500
scalar tree_4_3_u08_r1_network.node[35].content_store 	decision_yes[35] 	94
scalar tree_4_3_u08_r1_network.node[35].content_store 	decision_no[35] 	9406
scalar tree_4_3_u08_r1_network.node[35].content_store 	decision_ratio[35] 	0.0098947368421053
scalar tree_4_3_u08_r1_network.node[36].core_layer 	interests[36] 	13605
scalar tree_4_3_u08_r1_network.node[36].core_layer 	data[36] 	9456
scalar tree_4_3_u08_r1_network.node[36].content_store 	p_hit[36] 	0.30503491363469
scalar tree_4_3_u08_r1_network.node[36].content_store 	hits[36] 	4150
scalar tree_4_3_u08_r1_network.node[36].content_store 	misses[36] 	9455
scalar tree_4_3_u08_r1_network.node[36].content_store 	decision_yes[36] 	93
scalar tree_4_3_u08_r1_network.node[36].content_store 	decision_no[36] 	9363
scalar tree_4_3_u08_r1_network.node[36].content_store 	decision_ratio[36] 	0.0098350253807107
scalar tree_4_3_u08_r1_network.node[37].core_layer 	interests[37] 	13640
scalar tree_4_3_u08_r1_network.node[37].core_layer 	data[37] 	9459
scalar tree_4_3_u08_r1_network.node[37].content_store 	p_hit[37] 	0.30652492668622
scalar tree_4_3_u08_r1_network.node[37].content_store 	hits[37] 	4181
scalar tree_4_3_u08_r1_network.node[37].content_store 	misses[37] 	9459
scalar tree_4_3_u08_r1_network.node[37].content_store 	decision_yes[37] 	97
scalar tree_4_3_u08_r1_network.node[37].content_store 	decision_no[37] 	9362
scalar tree_4_3_u08_r1_network.node[37].content_store 	decision_ratio[37] 	0.010254783803785
scalar tree_4_3_u08_r1_network.node[38].core_layer 	interests[38] 	13523
scalar tree_4_3_u08_r1_network.node[38].core_layer 	data[38] 	9319
scalar tree_4_3_u08_r1_network.node[38].content_store 	p_hit[38] 	0.31080381572136
scalar tree_4_3_u08_r1_network.node[38].content_store 	hits[38] 	4203
scalar tree_4_3_u08_r1_network.node[38].content_store 	misses[38] 	9320
scalar tree_4_3_u08_r1_network.node[38].content_store 	decision_yes[38] 	94
scalar tree_4_3_u08_r1_network.node[38].content_store 	decision_no[38] 	9225
scalar tree_4_3_u08_r1_network.node[38].content_store 	decision_ratio[38] 	0.010086919197339
scalar tree_4_3_u08_r1_network.node[39].core_layer 	interests[39] 	12716
scalar tree_4_3_u08_r1_network.node[39].core_layer 	data[39] 	9157
scalar tree_4_3_u08_r1_network.node[39].content_store 	p_hit[39] 	0.27988361119849
scalar tree_4_3_u08_r1_network.node[39].content_store 	hits[39] 	3559
scalar tree_4_3_u08_r1_network.node[39].content_store 	misses[39] 	9157
scalar tree_4_3_u08_r1_network.node[39].content_store 	decision_yes[39] 	84
scalar tree_4_3_u08_r1_network.node[39].content_store 	decision_no[39] 	9073
scalar tree_4_3_u08_r1_network.node[39].content_store 	decision_ratio[39] 	0.009173310036038
scalar tree_4_3_u08_r1_network.client[13] 	hdistance[13] 	2.7861166335321
scalar tree_4_3_u08_r1_network.client[13] 	downloads[13] 	12072
scalar tree_4_3_u08_r1_network.client[13] 	avg_time[13] 	0.004407054622
scalar tree_4_3_u08_r1_network.client[14] 	hdistance[14] 	2.716840161182
scalar tree_4_3_u08_r1_network.client[14] 	downloads[14] 	11912
scalar tree_4_3_u08_r1_network.client[14] 	avg_time[14] 	0.004297680034
scalar tree_4_3_u08_r1_network.client[15] 	hdistance[15] 	2.62215815486
scalar tree_4_3_u08_r1_network.client[15] 	downloads[15] 	12140
scalar tree_4_3_u08_r1_network.client[15] 	avg_time[15] 	0.00417702002
scalar tree_4_3_u08_r1_network.client[16] 	hdistance[16] 	2.6846476441082
scalar tree_4_3_u08_r1_network.client[16] 	downloads[16] 	12161
scalar tree_4_3_u08_r1_network.client[16] 	avg_time[16] 	0.004223827217
scalar tree_4_3_u08_r1_network.client[17] 	hdistance[17] 	2.8225415657114
scalar tree_4_3_u08_r1_network.client[17] 	downloads[17] 	11969
scalar tree_4_3_u08_r1_network.client[17] 	avg_time[17] 	0.004500683767
scalar tree_4_3_u08_r1_network.client[18] 	hdistance[18] 	2.6428034416507
scalar tree_4_3_u08_r1_network.client[18] 	downloads[18] 	11971
scalar tree_4_3_u08_r1_network.client[18] 	avg_time[18] 	0.00420900211
scalar tree_4_3_u08_r1_network.client[19] 	hdistance[19] 	2.6348722176422
scalar tree_4_3_u08_r1_network.client[19] 	downloads[19] 	12130
scalar tree_4_3_u08_r1_network.client[19] 	avg_time[19] 	0.0042004916
scalar tree_4_3_u08_r1_network.client[20] 	hdistance[20] 	2.7071057192374
scalar tree_4_3_u08_r1_network.client[20] 	downloads[20] 	12117
scalar tree_4_3_u08_r1_network.client[20] 	avg_time[20] 	0.004343151244
scalar tree_4_3_u08_r1_network.client[21] 	hdistance[21] 	2.717745302714
scalar tree_4_3_u08_r1_network.client[21] 	downloads[21] 	11975
scalar tree_4_3_u08_r1_network.client[21] 	avg_time[21] 	0.004362752763
scalar tree_4_3_u08_r1_network.client[22] 	hdistance[22] 	2.7364699941082
scalar tree_4_3_u08_r1_network.client[22] 	downloads[22] 	11881
scalar tree_4_3_u08_r1_network.client[22] 	avg_time[22] 	0.004339530738
scalar tree_4_3_u08_r1_network.client[23] 	hdistance[23] 	2.6520939563655
scalar tree_4_3_u08_r1_network.client[23] 	downloads[23] 	11963
scalar tree_4_3_u08_r1_network.client[23] 	avg_time[23] 	0.004167049811
scalar tree_4_3_u08_r1_network.client[24] 	hdistance[24] 	2.6530290456431
scalar tree_4_3_u08_r1_network.client[24] 	downloads[24] 	12050
scalar tree_4_3_u08_r1_network.client[24] 	avg_time[24] 	0.00422057793
scalar tree_4_3_u08_r1_network.client[25] 	hdistance[25] 	2.6487002740636
scalar tree_4_3_u08_r1_network.client[25] 	downloads[25] 	12041
scalar tree_4_3_u08_r1_network.client[25] 	avg_time[25] 	0.004165763964
scalar tree_4_3_u08_r1_network.client[26] 	hdistance[26] 	2.7462576081592
scalar tree_4_3_u08_r1_network.client[26] 	downloads[26] 	12158
scalar tree_4_3_u08_r1_network.client[26] 	avg_time[26] 	0.004342323006
scalar tree_4_3_u08_r1_network.client[27] 	hdistance[27] 	2.6436638432154
scalar tree_4_3_u08_r1_network.client[27] 	downloads[27] 	12042
scalar tree_4_3_u08_r1_network.client[27] 	avg_time[27] 	0.004216572317
scalar tree_4_3_u08_r1_network.client[28] 	hdistance[28] 	2.6196471465253
scalar tree_4_3_u08_r1_network.client[28] 	downloads[28] 	12073
scalar tree_4_3_u08_r1_network.client[28] 	avg_time[28] 	0.004179074278
scalar tree_4_3_u08_r1_network.client[29] 	hdistance[29] 	2.6617744610282
scalar tree_4_3_u08_r1_network.client[29] 	downloads[29] 	12060
scalar tree_4_3_u08_r1_network.client[29] 	avg_time[29] 	0.004233661988
scalar tree_4_3_u08_r1_network.client[30] 	hdistance[30] 	2.7249556924635
scalar tree_4_3_u08_r1_network.client[30] 	downloads[30] 	11849
scalar tree_4_3_u08_r1_network.client[30] 	avg_time[30] 	0.004374205857
scalar tree_4_3_u08_r1_network.client[31] 	hdistance[31] 	2.7522325189554
scalar tree_4_3_u08_r1_network.client[31] 	downloads[31] 	11870
scalar tree_4_3_u08_r1_network.client[31] 	avg_time[31] 	0.004423270116
scalar tree_4_3_u08_r1_network.client[32] 	hdistance[32] 	2.6424212022406
scalar tree_4_3_u08_r1_network.client[32] 	downloads[32] 	11961
scalar tree_4_3_u08_r1_network.client[32] 	avg_time[32] 	0.004233885721
scalar tree_4_3_u08_r1_network.client[33] 	hdistance[33] 	2.6433163563497
scalar tree_4_3_u08_r1_network.client[33] 	downloads[33] 	11977
scalar tree_4_3_u08_r1_network.client[33] 	avg_time[33] 	0.00421219246
scalar tree_4_3_u08_r1_network.client[34] 	hdistance[34] 	2.6191349279107
scalar tree_4_3_u08_r1_network.client[34] 	downloads[34] 	11999
scalar tree_4_3_u08_r1_network.client[34] 	avg_time[34] 	0.00419451321
scalar tree_4_3_u08_r1_network.client[35] 	hdistance[35] 	2.7429802037605
scalar tree_4_3_u08_r1_network.client[35] 	downloads[35] 	12073
scalar tree_4_3_u08_r1_network.client[35] 	avg_time[35] 	0.00440635828
scalar tree_4_3_u08_r1_network.client[36] 	hdistance[36] 	2.6366963320303
scalar tree_4_3_u08_r1_network.client[36] 	downloads[36] 	12023
scalar tree_4_3_u08_r1_network.client[36] 	avg_time[36] 	0.004207931812
scalar tree_4_3_u08_r1_network.client[37] 	hdistance[37] 	2.6547798426251
scalar tree_4_3_u08_r1_network.client[37] 	downloads[37] 	11946
scalar tree_4_3_u08_r1_network.client[37] 	avg_time[37] 	0.004246104472
scalar tree_4_3_u08_r1_network.client[38] 	hdistance[38] 	2.6160508083141
scalar tree_4_3_u08_r1_network.client[38] 	downloads[38] 	12124
scalar tree_4_3_u08_r1_network.client[38] 	avg_time[38] 	0.004168918149
scalar tree_4_3_u08_r1_network.client[39] 	hdistance[39] 	2.702432885906
scalar tree_4_3_u08_r1_network.client[39] 	downloads[39] 	11920
scalar tree_4_3_u08_r1_network.client[39] 	avg_time[39] 	0.004315265494
