version 2
run General-172-20160819-05:18:10-14109
attr a 0.9
attr cd fix0.01
attr configname General
attr cr lru
attr datetime 20160819-05:18:10
attr experiment General
attr fsize 1
attr inifile hw5115/scenario_A/NRR-FIX0.01.ini
attr iterationvars "$name=tree_4_3, $un=08, $rep=13, $cd=fix0.01, $cr=lru, $fsize=1, $a=0.9, $sl=nrr, $ttl=1000, $variance=0.05"
attr iterationvars2 "$name=tree_4_3, $un=08, $rep=13, $cd=fix0.01, $cr=lru, $fsize=1, $a=0.9, $sl=nrr, $ttl=1000, $variance=0.05, $repetition=0"
attr measurement "$name=tree_4_3, $un=08, $rep=13, $cd=fix0.01, $cr=lru, $fsize=1, $a=0.9, $sl=nrr, $ttl=1000, $variance=0.05"
attr name tree_4_3
attr network networks.${name}_u${un}_r${rep}_network
attr processid 14109
attr rep 13
attr repetition 0
attr replication #0
attr resultdir results
attr runnumber 172
attr seedset 13
attr sl nrr
attr ttl 1000
attr un 08
attr variance 0.05

scalar . 	a 	0.9
scalar . 	fsize 	1
scalar . 	rep 	13
scalar . 	ttl 	1000
scalar . 	un 	08
scalar . 	variance 	0.05
scalar tree_4_3_u08_r13_network.content_distribution 	repo-0 	0
scalar tree_4_3_u08_r13_network.content_distribution 	client-0 	13
scalar tree_4_3_u08_r13_network.content_distribution 	client-1 	14
scalar tree_4_3_u08_r13_network.content_distribution 	client-2 	15
scalar tree_4_3_u08_r13_network.content_distribution 	client-3 	16
scalar tree_4_3_u08_r13_network.content_distribution 	client-4 	17
scalar tree_4_3_u08_r13_network.content_distribution 	client-5 	18
scalar tree_4_3_u08_r13_network.content_distribution 	client-6 	19
scalar tree_4_3_u08_r13_network.content_distribution 	client-7 	20
scalar tree_4_3_u08_r13_network.content_distribution 	client-8 	21
scalar tree_4_3_u08_r13_network.content_distribution 	client-9 	22
scalar tree_4_3_u08_r13_network.content_distribution 	client-10 	23
scalar tree_4_3_u08_r13_network.content_distribution 	client-11 	24
scalar tree_4_3_u08_r13_network.content_distribution 	client-12 	25
scalar tree_4_3_u08_r13_network.content_distribution 	client-13 	26
scalar tree_4_3_u08_r13_network.content_distribution 	client-14 	27
scalar tree_4_3_u08_r13_network.content_distribution 	client-15 	28
scalar tree_4_3_u08_r13_network.content_distribution 	client-16 	29
scalar tree_4_3_u08_r13_network.content_distribution 	client-17 	30
scalar tree_4_3_u08_r13_network.content_distribution 	client-18 	31
scalar tree_4_3_u08_r13_network.content_distribution 	client-19 	32
scalar tree_4_3_u08_r13_network.content_distribution 	client-20 	33
scalar tree_4_3_u08_r13_network.content_distribution 	client-21 	34
scalar tree_4_3_u08_r13_network.content_distribution 	client-22 	35
scalar tree_4_3_u08_r13_network.content_distribution 	client-23 	36
scalar tree_4_3_u08_r13_network.content_distribution 	client-24 	37
scalar tree_4_3_u08_r13_network.content_distribution 	client-25 	38
scalar tree_4_3_u08_r13_network.content_distribution 	client-26 	39
scalar tree_4_3_u08_r13_network.content_distribution 	repo-0_card 	100000
scalar tree_4_3_u08_r13_network.content_distribution 	repo-0_price 	0
scalar tree_4_3_u08_r13_network.statistics 	stabilization_time 	1891.3
scalar tree_4_3_u08_r13_network.statistics 	p_hit 	0.24501315082368
scalar tree_4_3_u08_r13_network.statistics 	interests 	25477.675
scalar tree_4_3_u08_r13_network.statistics 	data 	17380.075
scalar tree_4_3_u08_r13_network.statistics 	hdistance 	2.6781324673252
scalar tree_4_3_u08_r13_network.statistics 	avg_time 	0.00429266345
scalar tree_4_3_u08_r13_network.statistics 	downloads 	323908
scalar tree_4_3_u08_r13_network.statistics 	total_cost 	0
scalar tree_4_3_u08_r13_network.statistics 	total_replicas 	100000
scalar tree_4_3_u08_r13_network.statistics 	inner_hit 	0.46823480741445
scalar tree_4_3_u08_r13_network.node[0].core_layer 	interests[0] 	173354
scalar tree_4_3_u08_r13_network.node[0].core_layer 	repo_load[0] 	172243
scalar tree_4_3_u08_r13_network.node[0].core_layer 	data[0] 	0
scalar tree_4_3_u08_r13_network.node[0].core_layer 	repo_int[0] 	172243
scalar tree_4_3_u08_r13_network.node[0].content_store 	p_hit[0] 	0.0064088512523507
scalar tree_4_3_u08_r13_network.node[0].content_store 	hits[0] 	1111
scalar tree_4_3_u08_r13_network.node[0].content_store 	misses[0] 	172243
scalar tree_4_3_u08_r13_network.node[0].content_store 	decision_yes[0] 	1730
scalar tree_4_3_u08_r13_network.node[0].content_store 	decision_no[0] 	170513
scalar tree_4_3_u08_r13_network.node[0].content_store 	decision_ratio[0] 	0.010043949536411
scalar tree_4_3_u08_r13_network.node[1].core_layer 	interests[1] 	128686
scalar tree_4_3_u08_r13_network.node[1].core_layer 	data[1] 	126914
scalar tree_4_3_u08_r13_network.node[1].content_store 	p_hit[1] 	0.013746639106041
scalar tree_4_3_u08_r13_network.node[1].content_store 	hits[1] 	1769
scalar tree_4_3_u08_r13_network.node[1].content_store 	misses[1] 	126917
scalar tree_4_3_u08_r13_network.node[1].content_store 	decision_yes[1] 	1211
scalar tree_4_3_u08_r13_network.node[1].content_store 	decision_no[1] 	125703
scalar tree_4_3_u08_r13_network.node[1].content_store 	decision_ratio[1] 	0.0095418945112438
scalar tree_4_3_u08_r13_network.node[2].core_layer 	interests[2] 	64079
scalar tree_4_3_u08_r13_network.node[2].core_layer 	data[2] 	61339
scalar tree_4_3_u08_r13_network.node[2].content_store 	p_hit[2] 	0.042790929945848
scalar tree_4_3_u08_r13_network.node[2].content_store 	hits[2] 	2742
scalar tree_4_3_u08_r13_network.node[2].content_store 	misses[2] 	61337
scalar tree_4_3_u08_r13_network.node[2].content_store 	decision_yes[2] 	606
scalar tree_4_3_u08_r13_network.node[2].content_store 	decision_no[2] 	60733
scalar tree_4_3_u08_r13_network.node[2].content_store 	decision_ratio[2] 	0.0098795220006847
scalar tree_4_3_u08_r13_network.node[3].core_layer 	interests[3] 	14799
scalar tree_4_3_u08_r13_network.node[3].core_layer 	data[3] 	11178
scalar tree_4_3_u08_r13_network.node[3].content_store 	p_hit[3] 	0.24467869450639
scalar tree_4_3_u08_r13_network.node[3].content_store 	hits[3] 	3621
scalar tree_4_3_u08_r13_network.node[3].content_store 	misses[3] 	11178
scalar tree_4_3_u08_r13_network.node[3].content_store 	decision_yes[3] 	105
scalar tree_4_3_u08_r13_network.node[3].content_store 	decision_no[3] 	11073
scalar tree_4_3_u08_r13_network.node[3].content_store 	decision_ratio[3] 	0.0093934514224369
scalar tree_4_3_u08_r13_network.node[4].core_layer 	interests[4] 	44669
scalar tree_4_3_u08_r13_network.node[4].core_layer 	data[4] 	41368
scalar tree_4_3_u08_r13_network.node[4].content_store 	p_hit[4] 	0.073921511562829
scalar tree_4_3_u08_r13_network.node[4].content_store 	hits[4] 	3302
scalar tree_4_3_u08_r13_network.node[4].content_store 	misses[4] 	41367
scalar tree_4_3_u08_r13_network.node[4].content_store 	decision_yes[4] 	388
scalar tree_4_3_u08_r13_network.node[4].content_store 	decision_no[4] 	40980
scalar tree_4_3_u08_r13_network.node[4].content_store 	decision_ratio[4] 	0.0093792303229549
scalar tree_4_3_u08_r13_network.node[5].core_layer 	interests[5] 	30744
scalar tree_4_3_u08_r13_network.node[5].core_layer 	data[5] 	26827
scalar tree_4_3_u08_r13_network.node[5].content_store 	p_hit[5] 	0.12737444704658
scalar tree_4_3_u08_r13_network.node[5].content_store 	hits[5] 	3916
scalar tree_4_3_u08_r13_network.node[5].content_store 	misses[5] 	26828
scalar tree_4_3_u08_r13_network.node[5].content_store 	decision_yes[5] 	285
scalar tree_4_3_u08_r13_network.node[5].content_store 	decision_no[5] 	26542
scalar tree_4_3_u08_r13_network.node[5].content_store 	decision_ratio[5] 	0.01062362545197
scalar tree_4_3_u08_r13_network.node[6].core_layer 	interests[6] 	17364
scalar tree_4_3_u08_r13_network.node[6].core_layer 	data[6] 	12662
scalar tree_4_3_u08_r13_network.node[6].content_store 	p_hit[6] 	0.27073255010366
scalar tree_4_3_u08_r13_network.node[6].content_store 	hits[6] 	4701
scalar tree_4_3_u08_r13_network.node[6].content_store 	misses[6] 	12663
scalar tree_4_3_u08_r13_network.node[6].content_store 	decision_yes[6] 	125
scalar tree_4_3_u08_r13_network.node[6].content_store 	decision_no[6] 	12537
scalar tree_4_3_u08_r13_network.node[6].content_store 	decision_ratio[6] 	0.0098720581266782
scalar tree_4_3_u08_r13_network.node[7].core_layer 	interests[7] 	47818
scalar tree_4_3_u08_r13_network.node[7].core_layer 	data[7] 	43940
scalar tree_4_3_u08_r13_network.node[7].content_store 	p_hit[7] 	0.081057342423355
scalar tree_4_3_u08_r13_network.node[7].content_store 	hits[7] 	3876
scalar tree_4_3_u08_r13_network.node[7].content_store 	misses[7] 	43942
scalar tree_4_3_u08_r13_network.node[7].content_store 	decision_yes[7] 	436
scalar tree_4_3_u08_r13_network.node[7].content_store 	decision_no[7] 	43504
scalar tree_4_3_u08_r13_network.node[7].content_store 	decision_ratio[7] 	0.0099226217569413
scalar tree_4_3_u08_r13_network.node[8].core_layer 	interests[8] 	29585
scalar tree_4_3_u08_r13_network.node[8].core_layer 	data[8] 	26018
scalar tree_4_3_u08_r13_network.node[8].content_store 	p_hit[8] 	0.12063545715734
scalar tree_4_3_u08_r13_network.node[8].content_store 	hits[8] 	3569
scalar tree_4_3_u08_r13_network.node[8].content_store 	misses[8] 	26016
scalar tree_4_3_u08_r13_network.node[8].content_store 	decision_yes[8] 	256
scalar tree_4_3_u08_r13_network.node[8].content_store 	decision_no[8] 	25762
scalar tree_4_3_u08_r13_network.node[8].content_store 	decision_ratio[8] 	0.0098393419940042
scalar tree_4_3_u08_r13_network.node[9].core_layer 	interests[9] 	14604
scalar tree_4_3_u08_r13_network.node[9].core_layer 	data[9] 	10431
scalar tree_4_3_u08_r13_network.node[9].content_store 	p_hit[9] 	0.28574363188168
scalar tree_4_3_u08_r13_network.node[9].content_store 	hits[9] 	4173
scalar tree_4_3_u08_r13_network.node[9].content_store 	misses[9] 	10431
scalar tree_4_3_u08_r13_network.node[9].content_store 	decision_yes[9] 	120
scalar tree_4_3_u08_r13_network.node[9].content_store 	decision_no[9] 	10311
scalar tree_4_3_u08_r13_network.node[9].content_store 	decision_ratio[9] 	0.01150417026172
scalar tree_4_3_u08_r13_network.node[10].core_layer 	interests[10] 	39208
scalar tree_4_3_u08_r13_network.node[10].core_layer 	data[10] 	35705
scalar tree_4_3_u08_r13_network.node[10].content_store 	p_hit[10] 	0.08934401142624
scalar tree_4_3_u08_r13_network.node[10].content_store 	hits[10] 	3503
scalar tree_4_3_u08_r13_network.node[10].content_store 	misses[10] 	35705
scalar tree_4_3_u08_r13_network.node[10].content_store 	decision_yes[10] 	354
scalar tree_4_3_u08_r13_network.node[10].content_store 	decision_no[10] 	35351
scalar tree_4_3_u08_r13_network.node[10].content_store 	decision_ratio[10] 	0.0099145777902255
scalar tree_4_3_u08_r13_network.node[11].core_layer 	interests[11] 	41292
scalar tree_4_3_u08_r13_network.node[11].core_layer 	data[11] 	37324
scalar tree_4_3_u08_r13_network.node[11].content_store 	p_hit[11] 	0.096144531628403
scalar tree_4_3_u08_r13_network.node[11].content_store 	hits[11] 	3970
scalar tree_4_3_u08_r13_network.node[11].content_store 	misses[11] 	37322
scalar tree_4_3_u08_r13_network.node[11].content_store 	decision_yes[11] 	378
scalar tree_4_3_u08_r13_network.node[11].content_store 	decision_no[11] 	36946
scalar tree_4_3_u08_r13_network.node[11].content_store 	decision_ratio[11] 	0.010127531882971
scalar tree_4_3_u08_r13_network.node[12].core_layer 	interests[12] 	12662
scalar tree_4_3_u08_r13_network.node[12].core_layer 	data[12] 	9625
scalar tree_4_3_u08_r13_network.node[12].content_store 	p_hit[12] 	0.23985152424577
scalar tree_4_3_u08_r13_network.node[12].content_store 	hits[12] 	3037
scalar tree_4_3_u08_r13_network.node[12].content_store 	misses[12] 	9625
scalar tree_4_3_u08_r13_network.node[12].content_store 	decision_yes[12] 	89
scalar tree_4_3_u08_r13_network.node[12].content_store 	decision_no[12] 	9536
scalar tree_4_3_u08_r13_network.node[12].content_store 	decision_ratio[12] 	0.0092467532467532
scalar tree_4_3_u08_r13_network.node[13].core_layer 	interests[13] 	12834
scalar tree_4_3_u08_r13_network.node[13].core_layer 	data[13] 	9266
scalar tree_4_3_u08_r13_network.node[13].content_store 	p_hit[13] 	0.27801153186847
scalar tree_4_3_u08_r13_network.node[13].content_store 	hits[13] 	3568
scalar tree_4_3_u08_r13_network.node[13].content_store 	misses[13] 	9266
scalar tree_4_3_u08_r13_network.node[13].content_store 	decision_yes[13] 	97
scalar tree_4_3_u08_r13_network.node[13].content_store 	decision_no[13] 	9169
scalar tree_4_3_u08_r13_network.node[13].content_store 	decision_ratio[13] 	0.010468379020073
scalar tree_4_3_u08_r13_network.node[14].core_layer 	interests[14] 	12820
scalar tree_4_3_u08_r13_network.node[14].core_layer 	data[14] 	9224
scalar tree_4_3_u08_r13_network.node[14].content_store 	p_hit[14] 	0.28042121684867
scalar tree_4_3_u08_r13_network.node[14].content_store 	hits[14] 	3595
scalar tree_4_3_u08_r13_network.node[14].content_store 	misses[14] 	9225
scalar tree_4_3_u08_r13_network.node[14].content_store 	decision_yes[14] 	79
scalar tree_4_3_u08_r13_network.node[14].content_store 	decision_no[14] 	9145
scalar tree_4_3_u08_r13_network.node[14].content_store 	decision_ratio[14] 	0.0085646140503036
scalar tree_4_3_u08_r13_network.node[15].core_layer 	interests[15] 	13836
scalar tree_4_3_u08_r13_network.node[15].core_layer 	data[15] 	9334
scalar tree_4_3_u08_r13_network.node[15].content_store 	p_hit[15] 	0.32545533391154
scalar tree_4_3_u08_r13_network.node[15].content_store 	hits[15] 	4503
scalar tree_4_3_u08_r13_network.node[15].content_store 	misses[15] 	9333
scalar tree_4_3_u08_r13_network.node[15].content_store 	decision_yes[15] 	122
scalar tree_4_3_u08_r13_network.node[15].content_store 	decision_no[15] 	9212
scalar tree_4_3_u08_r13_network.node[15].content_store 	decision_ratio[15] 	0.013070494964645
scalar tree_4_3_u08_r13_network.node[16].core_layer 	interests[16] 	13518
scalar tree_4_3_u08_r13_network.node[16].core_layer 	data[16] 	9264
scalar tree_4_3_u08_r13_network.node[16].content_store 	p_hit[16] 	0.3146175469744
scalar tree_4_3_u08_r13_network.node[16].content_store 	hits[16] 	4253
scalar tree_4_3_u08_r13_network.node[16].content_store 	misses[16] 	9265
scalar tree_4_3_u08_r13_network.node[16].content_store 	decision_yes[16] 	107
scalar tree_4_3_u08_r13_network.node[16].content_store 	decision_no[16] 	9157
scalar tree_4_3_u08_r13_network.node[16].content_store 	decision_ratio[16] 	0.011550086355786
scalar tree_4_3_u08_r13_network.node[17].core_layer 	interests[17] 	12670
scalar tree_4_3_u08_r13_network.node[17].core_layer 	data[17] 	9161
scalar tree_4_3_u08_r13_network.node[17].content_store 	p_hit[17] 	0.27695343330702
scalar tree_4_3_u08_r13_network.node[17].content_store 	hits[17] 	3509
scalar tree_4_3_u08_r13_network.node[17].content_store 	misses[17] 	9161
scalar tree_4_3_u08_r13_network.node[17].content_store 	decision_yes[17] 	86
scalar tree_4_3_u08_r13_network.node[17].content_store 	decision_no[17] 	9075
scalar tree_4_3_u08_r13_network.node[17].content_store 	decision_ratio[17] 	0.0093876214387076
scalar tree_4_3_u08_r13_network.node[18].core_layer 	interests[18] 	13394
scalar tree_4_3_u08_r13_network.node[18].core_layer 	data[18] 	9355
scalar tree_4_3_u08_r13_network.node[18].content_store 	p_hit[18] 	0.30155293414962
scalar tree_4_3_u08_r13_network.node[18].content_store 	hits[18] 	4039
scalar tree_4_3_u08_r13_network.node[18].content_store 	misses[18] 	9355
scalar tree_4_3_u08_r13_network.node[18].content_store 	decision_yes[18] 	99
scalar tree_4_3_u08_r13_network.node[18].content_store 	decision_no[18] 	9256
scalar tree_4_3_u08_r13_network.node[18].content_store 	decision_ratio[18] 	0.01058257616248
scalar tree_4_3_u08_r13_network.node[19].core_layer 	interests[19] 	13667
scalar tree_4_3_u08_r13_network.node[19].core_layer 	data[19] 	9209
scalar tree_4_3_u08_r13_network.node[19].content_store 	p_hit[19] 	0.32618716616668
scalar tree_4_3_u08_r13_network.node[19].content_store 	hits[19] 	4458
scalar tree_4_3_u08_r13_network.node[19].content_store 	misses[19] 	9209
scalar tree_4_3_u08_r13_network.node[19].content_store 	decision_yes[19] 	84
scalar tree_4_3_u08_r13_network.node[19].content_store 	decision_no[19] 	9125
scalar tree_4_3_u08_r13_network.node[19].content_store 	decision_ratio[19] 	0.0091215115647736
scalar tree_4_3_u08_r13_network.node[20].core_layer 	interests[20] 	13621
scalar tree_4_3_u08_r13_network.node[20].core_layer 	data[20] 	9513
scalar tree_4_3_u08_r13_network.node[20].content_store 	p_hit[20] 	0.30159312825784
scalar tree_4_3_u08_r13_network.node[20].content_store 	hits[20] 	4108
scalar tree_4_3_u08_r13_network.node[20].content_store 	misses[20] 	9513
scalar tree_4_3_u08_r13_network.node[20].content_store 	decision_yes[20] 	88
scalar tree_4_3_u08_r13_network.node[20].content_store 	decision_no[20] 	9425
scalar tree_4_3_u08_r13_network.node[20].content_store 	decision_ratio[20] 	0.0092504993167245
scalar tree_4_3_u08_r13_network.node[21].core_layer 	interests[21] 	13210
scalar tree_4_3_u08_r13_network.node[21].core_layer 	data[21] 	9389
scalar tree_4_3_u08_r13_network.node[21].content_store 	p_hit[21] 	0.2891748675246
scalar tree_4_3_u08_r13_network.node[21].content_store 	hits[21] 	3820
scalar tree_4_3_u08_r13_network.node[21].content_store 	misses[21] 	9390
scalar tree_4_3_u08_r13_network.node[21].content_store 	decision_yes[21] 	98
scalar tree_4_3_u08_r13_network.node[21].content_store 	decision_no[21] 	9291
scalar tree_4_3_u08_r13_network.node[21].content_store 	decision_ratio[21] 	0.01043774629886
scalar tree_4_3_u08_r13_network.node[22].core_layer 	interests[22] 	13426
scalar tree_4_3_u08_r13_network.node[22].core_layer 	data[22] 	9499
scalar tree_4_3_u08_r13_network.node[22].content_store 	p_hit[22] 	0.29256666170118
scalar tree_4_3_u08_r13_network.node[22].content_store 	hits[22] 	3928
scalar tree_4_3_u08_r13_network.node[22].content_store 	misses[22] 	9498
scalar tree_4_3_u08_r13_network.node[22].content_store 	decision_yes[22] 	86
scalar tree_4_3_u08_r13_network.node[22].content_store 	decision_no[22] 	9413
scalar tree_4_3_u08_r13_network.node[22].content_store 	decision_ratio[22] 	0.0090535845878514
scalar tree_4_3_u08_r13_network.node[23].core_layer 	interests[23] 	13464
scalar tree_4_3_u08_r13_network.node[23].core_layer 	data[23] 	9186
scalar tree_4_3_u08_r13_network.node[23].content_store 	p_hit[23] 	0.31766191325015
scalar tree_4_3_u08_r13_network.node[23].content_store 	hits[23] 	4277
scalar tree_4_3_u08_r13_network.node[23].content_store 	misses[23] 	9187
scalar tree_4_3_u08_r13_network.node[23].content_store 	decision_yes[23] 	86
scalar tree_4_3_u08_r13_network.node[23].content_store 	decision_no[23] 	9100
scalar tree_4_3_u08_r13_network.node[23].content_store 	decision_ratio[23] 	0.0093620727193555
scalar tree_4_3_u08_r13_network.node[24].core_layer 	interests[24] 	13913
scalar tree_4_3_u08_r13_network.node[24].core_layer 	data[24] 	9347
scalar tree_4_3_u08_r13_network.node[24].content_store 	p_hit[24] 	0.32818227556961
scalar tree_4_3_u08_r13_network.node[24].content_store 	hits[24] 	4566
scalar tree_4_3_u08_r13_network.node[24].content_store 	misses[24] 	9347
scalar tree_4_3_u08_r13_network.node[24].content_store 	decision_yes[24] 	82
scalar tree_4_3_u08_r13_network.node[24].content_store 	decision_no[24] 	9265
scalar tree_4_3_u08_r13_network.node[24].content_store 	decision_ratio[24] 	0.0087728682999893
scalar tree_4_3_u08_r13_network.node[25].core_layer 	interests[25] 	13732
scalar tree_4_3_u08_r13_network.node[25].core_layer 	data[25] 	9438
scalar tree_4_3_u08_r13_network.node[25].content_store 	p_hit[25] 	0.31262743955724
scalar tree_4_3_u08_r13_network.node[25].content_store 	hits[25] 	4293
scalar tree_4_3_u08_r13_network.node[25].content_store 	misses[25] 	9439
scalar tree_4_3_u08_r13_network.node[25].content_store 	decision_yes[25] 	100
scalar tree_4_3_u08_r13_network.node[25].content_store 	decision_no[25] 	9338
scalar tree_4_3_u08_r13_network.node[25].content_store 	decision_ratio[25] 	0.01059546514092
scalar tree_4_3_u08_r13_network.node[26].core_layer 	interests[26] 	12863
scalar tree_4_3_u08_r13_network.node[26].core_layer 	data[26] 	9252
scalar tree_4_3_u08_r13_network.node[26].content_store 	p_hit[26] 	0.28080541086838
scalar tree_4_3_u08_r13_network.node[26].content_store 	hits[26] 	3612
scalar tree_4_3_u08_r13_network.node[26].content_store 	misses[26] 	9251
scalar tree_4_3_u08_r13_network.node[26].content_store 	decision_yes[26] 	103
scalar tree_4_3_u08_r13_network.node[26].content_store 	decision_no[26] 	9149
scalar tree_4_3_u08_r13_network.node[26].content_store 	decision_ratio[26] 	0.011132728058798
scalar tree_4_3_u08_r13_network.node[27].core_layer 	interests[27] 	13463
scalar tree_4_3_u08_r13_network.node[27].core_layer 	data[27] 	9214
scalar tree_4_3_u08_r13_network.node[27].content_store 	p_hit[27] 	0.31560573423457
scalar tree_4_3_u08_r13_network.node[27].content_store 	hits[27] 	4249
scalar tree_4_3_u08_r13_network.node[27].content_store 	misses[27] 	9214
scalar tree_4_3_u08_r13_network.node[27].content_store 	decision_yes[27] 	91
scalar tree_4_3_u08_r13_network.node[27].content_store 	decision_no[27] 	9123
scalar tree_4_3_u08_r13_network.node[27].content_store 	decision_ratio[27] 	0.0098762752333406
scalar tree_4_3_u08_r13_network.node[28].core_layer 	interests[28] 	13656
scalar tree_4_3_u08_r13_network.node[28].core_layer 	data[28] 	9275
scalar tree_4_3_u08_r13_network.node[28].content_store 	p_hit[28] 	0.32081136496778
scalar tree_4_3_u08_r13_network.node[28].content_store 	hits[28] 	4381
scalar tree_4_3_u08_r13_network.node[28].content_store 	misses[28] 	9275
scalar tree_4_3_u08_r13_network.node[28].content_store 	decision_yes[28] 	102
scalar tree_4_3_u08_r13_network.node[28].content_store 	decision_no[28] 	9173
scalar tree_4_3_u08_r13_network.node[28].content_store 	decision_ratio[28] 	0.01099730458221
scalar tree_4_3_u08_r13_network.node[29].core_layer 	interests[29] 	13081
scalar tree_4_3_u08_r13_network.node[29].core_layer 	data[29] 	9171
scalar tree_4_3_u08_r13_network.node[29].content_store 	p_hit[29] 	0.29898325816069
scalar tree_4_3_u08_r13_network.node[29].content_store 	hits[29] 	3911
scalar tree_4_3_u08_r13_network.node[29].content_store 	misses[29] 	9170
scalar tree_4_3_u08_r13_network.node[29].content_store 	decision_yes[29] 	100
scalar tree_4_3_u08_r13_network.node[29].content_store 	decision_no[29] 	9071
scalar tree_4_3_u08_r13_network.node[29].content_store 	decision_ratio[29] 	0.010903936321012
scalar tree_4_3_u08_r13_network.node[30].core_layer 	interests[30] 	12840
scalar tree_4_3_u08_r13_network.node[30].core_layer 	data[30] 	9458
scalar tree_4_3_u08_r13_network.node[30].content_store 	p_hit[30] 	0.26339563862928
scalar tree_4_3_u08_r13_network.node[30].content_store 	hits[30] 	3382
scalar tree_4_3_u08_r13_network.node[30].content_store 	misses[30] 	9458
scalar tree_4_3_u08_r13_network.node[30].content_store 	decision_yes[30] 	92
scalar tree_4_3_u08_r13_network.node[30].content_store 	decision_no[30] 	9366
scalar tree_4_3_u08_r13_network.node[30].content_store 	decision_ratio[30] 	0.0097272150560372
scalar tree_4_3_u08_r13_network.node[31].core_layer 	interests[31] 	13081
scalar tree_4_3_u08_r13_network.node[31].core_layer 	data[31] 	9338
scalar tree_4_3_u08_r13_network.node[31].content_store 	p_hit[31] 	0.28614020334837
scalar tree_4_3_u08_r13_network.node[31].content_store 	hits[31] 	3743
scalar tree_4_3_u08_r13_network.node[31].content_store 	misses[31] 	9338
scalar tree_4_3_u08_r13_network.node[31].content_store 	decision_yes[31] 	99
scalar tree_4_3_u08_r13_network.node[31].content_store 	decision_no[31] 	9239
scalar tree_4_3_u08_r13_network.node[31].content_store 	decision_ratio[31] 	0.010601841936175
scalar tree_4_3_u08_r13_network.node[32].core_layer 	interests[32] 	13982
scalar tree_4_3_u08_r13_network.node[32].core_layer 	data[32] 	9421
scalar tree_4_3_u08_r13_network.node[32].content_store 	p_hit[32] 	0.3261336003433
scalar tree_4_3_u08_r13_network.node[32].content_store 	hits[32] 	4560
scalar tree_4_3_u08_r13_network.node[32].content_store 	misses[32] 	9422
scalar tree_4_3_u08_r13_network.node[32].content_store 	decision_yes[32] 	105
scalar tree_4_3_u08_r13_network.node[32].content_store 	decision_no[32] 	9316
scalar tree_4_3_u08_r13_network.node[32].content_store 	decision_ratio[32] 	0.01114531366097
scalar tree_4_3_u08_r13_network.node[33].core_layer 	interests[33] 	13208
scalar tree_4_3_u08_r13_network.node[33].core_layer 	data[33] 	9570
scalar tree_4_3_u08_r13_network.node[33].content_store 	p_hit[33] 	0.27543912780133
scalar tree_4_3_u08_r13_network.node[33].content_store 	hits[33] 	3638
scalar tree_4_3_u08_r13_network.node[33].content_store 	misses[33] 	9570
scalar tree_4_3_u08_r13_network.node[33].content_store 	decision_yes[33] 	85
scalar tree_4_3_u08_r13_network.node[33].content_store 	decision_no[33] 	9485
scalar tree_4_3_u08_r13_network.node[33].content_store 	decision_ratio[33] 	0.0088819226750261
scalar tree_4_3_u08_r13_network.node[34].core_layer 	interests[34] 	13074
scalar tree_4_3_u08_r13_network.node[34].core_layer 	data[34] 	9395
scalar tree_4_3_u08_r13_network.node[34].content_store 	p_hit[34] 	0.28139819489062
scalar tree_4_3_u08_r13_network.node[34].content_store 	hits[34] 	3679
scalar tree_4_3_u08_r13_network.node[34].content_store 	misses[34] 	9395
scalar tree_4_3_u08_r13_network.node[34].content_store 	decision_yes[34] 	78
scalar tree_4_3_u08_r13_network.node[34].content_store 	decision_no[34] 	9317
scalar tree_4_3_u08_r13_network.node[34].content_store 	decision_ratio[34] 	0.0083022884513039
scalar tree_4_3_u08_r13_network.node[35].core_layer 	interests[35] 	13215
scalar tree_4_3_u08_r13_network.node[35].core_layer 	data[35] 	9226
scalar tree_4_3_u08_r13_network.node[35].content_store 	p_hit[35] 	0.30185395384033
scalar tree_4_3_u08_r13_network.node[35].content_store 	hits[35] 	3989
scalar tree_4_3_u08_r13_network.node[35].content_store 	misses[35] 	9226
scalar tree_4_3_u08_r13_network.node[35].content_store 	decision_yes[35] 	99
scalar tree_4_3_u08_r13_network.node[35].content_store 	decision_no[35] 	9127
scalar tree_4_3_u08_r13_network.node[35].content_store 	decision_ratio[35] 	0.010730544114459
scalar tree_4_3_u08_r13_network.node[36].core_layer 	interests[36] 	13694
scalar tree_4_3_u08_r13_network.node[36].core_layer 	data[36] 	9324
scalar tree_4_3_u08_r13_network.node[36].content_store 	p_hit[36] 	0.3191178618373
scalar tree_4_3_u08_r13_network.node[36].content_store 	hits[36] 	4370
scalar tree_4_3_u08_r13_network.node[36].content_store 	misses[36] 	9324
scalar tree_4_3_u08_r13_network.node[36].content_store 	decision_yes[36] 	92
scalar tree_4_3_u08_r13_network.node[36].content_store 	decision_no[36] 	9232
scalar tree_4_3_u08_r13_network.node[36].content_store 	decision_ratio[36] 	0.0098670098670099
scalar tree_4_3_u08_r13_network.node[37].core_layer 	interests[37] 	13752
scalar tree_4_3_u08_r13_network.node[37].core_layer 	data[37] 	9465
scalar tree_4_3_u08_r13_network.node[37].content_store 	p_hit[37] 	0.31173647469459
scalar tree_4_3_u08_r13_network.node[37].content_store 	hits[37] 	4287
scalar tree_4_3_u08_r13_network.node[37].content_store 	misses[37] 	9465
scalar tree_4_3_u08_r13_network.node[37].content_store 	decision_yes[37] 	97
scalar tree_4_3_u08_r13_network.node[37].content_store 	decision_no[37] 	9368
scalar tree_4_3_u08_r13_network.node[37].content_store 	decision_ratio[37] 	0.010248283148442
scalar tree_4_3_u08_r13_network.node[38].core_layer 	interests[38] 	13704
scalar tree_4_3_u08_r13_network.node[38].core_layer 	data[38] 	9444
scalar tree_4_3_u08_r13_network.node[38].content_store 	p_hit[38] 	0.31093111500292
scalar tree_4_3_u08_r13_network.node[38].content_store 	hits[38] 	4261
scalar tree_4_3_u08_r13_network.node[38].content_store 	misses[38] 	9443
scalar tree_4_3_u08_r13_network.node[38].content_store 	decision_yes[38] 	96
scalar tree_4_3_u08_r13_network.node[38].content_store 	decision_no[38] 	9348
scalar tree_4_3_u08_r13_network.node[38].content_store 	decision_ratio[38] 	0.010165184243964
scalar tree_4_3_u08_r13_network.node[39].core_layer 	interests[39] 	12525
scalar tree_4_3_u08_r13_network.node[39].core_layer 	data[39] 	9134
scalar tree_4_3_u08_r13_network.node[39].content_store 	p_hit[39] 	0.27073852295409
scalar tree_4_3_u08_r13_network.node[39].content_store 	hits[39] 	3391
scalar tree_4_3_u08_r13_network.node[39].content_store 	misses[39] 	9134
scalar tree_4_3_u08_r13_network.node[39].content_store 	decision_yes[39] 	89
scalar tree_4_3_u08_r13_network.node[39].content_store 	decision_no[39] 	9045
scalar tree_4_3_u08_r13_network.node[39].content_store 	decision_ratio[39] 	0.0097438143201226
scalar tree_4_3_u08_r13_network.client[13] 	hdistance[13] 	2.7483827606486
scalar tree_4_3_u08_r13_network.client[13] 	downloads[13] 	11903
scalar tree_4_3_u08_r13_network.client[13] 	avg_time[13] 	0.004394687448
scalar tree_4_3_u08_r13_network.client[14] 	hdistance[14] 	2.7402042866711
scalar tree_4_3_u08_r13_network.client[14] 	downloads[14] 	11944
scalar tree_4_3_u08_r13_network.client[14] 	avg_time[14] 	0.0043669478
scalar tree_4_3_u08_r13_network.client[15] 	hdistance[15] 	2.6206582110586
scalar tree_4_3_u08_r13_network.client[15] 	downloads[15] 	12063
scalar tree_4_3_u08_r13_network.client[15] 	avg_time[15] 	0.004184528203
scalar tree_4_3_u08_r13_network.client[16] 	hdistance[16] 	2.6452537514753
scalar tree_4_3_u08_r13_network.client[16] 	downloads[16] 	11862
scalar tree_4_3_u08_r13_network.client[16] 	avg_time[16] 	0.004245007517
scalar tree_4_3_u08_r13_network.client[17] 	hdistance[17] 	2.7517123287671
scalar tree_4_3_u08_r13_network.client[17] 	downloads[17] 	11680
scalar tree_4_3_u08_r13_network.client[17] 	avg_time[17] 	0.004453079285
scalar tree_4_3_u08_r13_network.client[18] 	hdistance[18] 	2.6571548468317
scalar tree_4_3_u08_r13_network.client[18] 	downloads[18] 	11915
scalar tree_4_3_u08_r13_network.client[18] 	avg_time[18] 	0.004262974762
scalar tree_4_3_u08_r13_network.client[19] 	hdistance[19] 	2.6299799129561
scalar tree_4_3_u08_r13_network.client[19] 	downloads[19] 	11948
scalar tree_4_3_u08_r13_network.client[19] 	avg_time[19] 	0.004196682653
scalar tree_4_3_u08_r13_network.client[20] 	hdistance[20] 	2.6285596707819
scalar tree_4_3_u08_r13_network.client[20] 	downloads[20] 	12150
scalar tree_4_3_u08_r13_network.client[20] 	avg_time[20] 	0.004225675954
scalar tree_4_3_u08_r13_network.client[21] 	hdistance[21] 	2.6889744429882
scalar tree_4_3_u08_r13_network.client[21] 	downloads[21] 	12208
scalar tree_4_3_u08_r13_network.client[21] 	avg_time[21] 	0.004325521166
scalar tree_4_3_u08_r13_network.client[22] 	hdistance[22] 	2.7385469306602
scalar tree_4_3_u08_r13_network.client[22] 	downloads[22] 	12071
scalar tree_4_3_u08_r13_network.client[22] 	avg_time[22] 	0.004430615818
scalar tree_4_3_u08_r13_network.client[23] 	hdistance[23] 	2.6252867703288
scalar tree_4_3_u08_r13_network.client[23] 	downloads[23] 	11769
scalar tree_4_3_u08_r13_network.client[23] 	avg_time[23] 	0.004215648325
scalar tree_4_3_u08_r13_network.client[24] 	hdistance[24] 	2.6230622564868
scalar tree_4_3_u08_r13_network.client[24] 	downloads[24] 	12063
scalar tree_4_3_u08_r13_network.client[24] 	avg_time[24] 	0.004208568679
scalar tree_4_3_u08_r13_network.client[25] 	hdistance[25] 	2.65719272002
scalar tree_4_3_u08_r13_network.client[25] 	downloads[25] 	12033
scalar tree_4_3_u08_r13_network.client[25] 	avg_time[25] 	0.004262623144
scalar tree_4_3_u08_r13_network.client[26] 	hdistance[26] 	2.72354552245
scalar tree_4_3_u08_r13_network.client[26] 	downloads[26] 	12049
scalar tree_4_3_u08_r13_network.client[26] 	avg_time[26] 	0.004347909669
scalar tree_4_3_u08_r13_network.client[27] 	hdistance[27] 	2.6395155938952
scalar tree_4_3_u08_r13_network.client[27] 	downloads[27] 	12056
scalar tree_4_3_u08_r13_network.client[27] 	avg_time[27] 	0.004173188773
scalar tree_4_3_u08_r13_network.client[28] 	hdistance[28] 	2.6045183505501
scalar tree_4_3_u08_r13_network.client[28] 	downloads[28] 	11907
scalar tree_4_3_u08_r13_network.client[28] 	avg_time[28] 	0.004177389411
scalar tree_4_3_u08_r13_network.client[29] 	hdistance[29] 	2.6459946146079
scalar tree_4_3_u08_r13_network.client[29] 	downloads[29] 	11884
scalar tree_4_3_u08_r13_network.client[29] 	avg_time[29] 	0.004192861368
scalar tree_4_3_u08_r13_network.client[30] 	hdistance[30] 	2.7226520256218
scalar tree_4_3_u08_r13_network.client[30] 	downloads[30] 	12021
scalar tree_4_3_u08_r13_network.client[30] 	avg_time[30] 	0.004350550165
scalar tree_4_3_u08_r13_network.client[31] 	hdistance[31] 	2.7169842861919
scalar tree_4_3_u08_r13_network.client[31] 	downloads[31] 	11964
scalar tree_4_3_u08_r13_network.client[31] 	avg_time[31] 	0.004385319641
scalar tree_4_3_u08_r13_network.client[32] 	hdistance[32] 	2.6572364002686
scalar tree_4_3_u08_r13_network.client[32] 	downloads[32] 	11912
scalar tree_4_3_u08_r13_network.client[32] 	avg_time[32] 	0.004280610772
scalar tree_4_3_u08_r13_network.client[33] 	hdistance[33] 	2.7549374588545
scalar tree_4_3_u08_r13_network.client[33] 	downloads[33] 	12152
scalar tree_4_3_u08_r13_network.client[33] 	avg_time[33] 	0.004444039114
scalar tree_4_3_u08_r13_network.client[34] 	hdistance[34] 	2.7276456798393
scalar tree_4_3_u08_r13_network.client[34] 	downloads[34] 	11944
scalar tree_4_3_u08_r13_network.client[34] 	avg_time[34] 	0.00440823548
scalar tree_4_3_u08_r13_network.client[35] 	hdistance[35] 	2.6929657005232
scalar tree_4_3_u08_r13_network.client[35] 	downloads[35] 	12041
scalar tree_4_3_u08_r13_network.client[35] 	avg_time[35] 	0.004331032641
scalar tree_4_3_u08_r13_network.client[36] 	hdistance[36] 	2.6413133832086
scalar tree_4_3_u08_r13_network.client[36] 	downloads[36] 	12030
scalar tree_4_3_u08_r13_network.client[36] 	avg_time[36] 	0.004232249688
scalar tree_4_3_u08_r13_network.client[37] 	hdistance[37] 	2.6700231099373
scalar tree_4_3_u08_r13_network.client[37] 	downloads[37] 	12116
scalar tree_4_3_u08_r13_network.client[37] 	avg_time[37] 	0.004270713367
scalar tree_4_3_u08_r13_network.client[38] 	hdistance[38] 	2.6408203284582
scalar tree_4_3_u08_r13_network.client[38] 	downloads[38] 	12239
scalar tree_4_3_u08_r13_network.client[38] 	avg_time[38] 	0.00422534214
scalar tree_4_3_u08_r13_network.client[39] 	hdistance[39] 	2.7164552736983
scalar tree_4_3_u08_r13_network.client[39] 	downloads[39] 	11984
scalar tree_4_3_u08_r13_network.client[39] 	avg_time[39] 	0.00430991019
