version 2
run General-177-20160820-11:18:45-856
attr a 0.9
attr cd lcd
attr configname General
attr cr lru
attr datetime 20160820-11:18:45
attr experiment General
attr fsize 1
attr inifile hw5115/scenario_A/SPR-LCD.ini
attr iterationvars "$name=tree_4_3, $un=08, $rep=18, $cd=lcd, $cr=lru, $fsize=1, $a=0.9, $sl=spr, $ttl=1000, $variance=0.05"
attr iterationvars2 "$name=tree_4_3, $un=08, $rep=18, $cd=lcd, $cr=lru, $fsize=1, $a=0.9, $sl=spr, $ttl=1000, $variance=0.05, $repetition=0"
attr measurement "$name=tree_4_3, $un=08, $rep=18, $cd=lcd, $cr=lru, $fsize=1, $a=0.9, $sl=spr, $ttl=1000, $variance=0.05"
attr name tree_4_3
attr network networks.${name}_u${un}_r${rep}_network
attr processid 856
attr rep 18
attr repetition 0
attr replication #0
attr resultdir results
attr runnumber 177
attr seedset 18
attr sl spr
attr ttl 1000
attr un 08
attr variance 0.05

scalar . 	a 	0.9
scalar . 	fsize 	1
scalar . 	rep 	18
scalar . 	ttl 	1000
scalar . 	un 	08
scalar . 	variance 	0.05
scalar tree_4_3_u08_r18_network.content_distribution 	repo-0 	0
scalar tree_4_3_u08_r18_network.content_distribution 	client-0 	13
scalar tree_4_3_u08_r18_network.content_distribution 	client-1 	14
scalar tree_4_3_u08_r18_network.content_distribution 	client-2 	15
scalar tree_4_3_u08_r18_network.content_distribution 	client-3 	16
scalar tree_4_3_u08_r18_network.content_distribution 	client-4 	17
scalar tree_4_3_u08_r18_network.content_distribution 	client-5 	18
scalar tree_4_3_u08_r18_network.content_distribution 	client-6 	19
scalar tree_4_3_u08_r18_network.content_distribution 	client-7 	20
scalar tree_4_3_u08_r18_network.content_distribution 	client-8 	21
scalar tree_4_3_u08_r18_network.content_distribution 	client-9 	22
scalar tree_4_3_u08_r18_network.content_distribution 	client-10 	23
scalar tree_4_3_u08_r18_network.content_distribution 	client-11 	24
scalar tree_4_3_u08_r18_network.content_distribution 	client-12 	25
scalar tree_4_3_u08_r18_network.content_distribution 	client-13 	26
scalar tree_4_3_u08_r18_network.content_distribution 	client-14 	27
scalar tree_4_3_u08_r18_network.content_distribution 	client-15 	28
scalar tree_4_3_u08_r18_network.content_distribution 	client-16 	29
scalar tree_4_3_u08_r18_network.content_distribution 	client-17 	30
scalar tree_4_3_u08_r18_network.content_distribution 	client-18 	31
scalar tree_4_3_u08_r18_network.content_distribution 	client-19 	32
scalar tree_4_3_u08_r18_network.content_distribution 	client-20 	33
scalar tree_4_3_u08_r18_network.content_distribution 	client-21 	34
scalar tree_4_3_u08_r18_network.content_distribution 	client-22 	35
scalar tree_4_3_u08_r18_network.content_distribution 	client-23 	36
scalar tree_4_3_u08_r18_network.content_distribution 	client-24 	37
scalar tree_4_3_u08_r18_network.content_distribution 	client-25 	38
scalar tree_4_3_u08_r18_network.content_distribution 	client-26 	39
scalar tree_4_3_u08_r18_network.content_distribution 	repo-0_card 	100000
scalar tree_4_3_u08_r18_network.content_distribution 	repo-0_price 	0
scalar tree_4_3_u08_r18_network.statistics 	stabilization_time 	5140.4
scalar tree_4_3_u08_r18_network.statistics 	p_hit 	0.18843332065291
scalar tree_4_3_u08_r18_network.statistics 	interests 	25394.375
scalar tree_4_3_u08_r18_network.statistics 	data 	17301.275
scalar tree_4_3_u08_r18_network.statistics 	hdistance 	2.8261309316878
scalar tree_4_3_u08_r18_network.statistics 	avg_time 	0.004275601997
scalar tree_4_3_u08_r18_network.statistics 	downloads 	323722
scalar tree_4_3_u08_r18_network.statistics 	total_cost 	0
scalar tree_4_3_u08_r18_network.statistics 	total_replicas 	100000
scalar tree_4_3_u08_r18_network.statistics 	inner_hit 	0.31174896979507
scalar tree_4_3_u08_r18_network.node[0].core_layer 	interests[0] 	225065
scalar tree_4_3_u08_r18_network.node[0].core_layer 	repo_load[0] 	222802
scalar tree_4_3_u08_r18_network.node[0].core_layer 	data[0] 	0
scalar tree_4_3_u08_r18_network.node[0].core_layer 	repo_int[0] 	222802
scalar tree_4_3_u08_r18_network.node[0].content_store 	p_hit[0] 	0.010054873036678
scalar tree_4_3_u08_r18_network.node[0].content_store 	hits[0] 	2263
scalar tree_4_3_u08_r18_network.node[0].content_store 	misses[0] 	222802
scalar tree_4_3_u08_r18_network.node[0].content_store 	decision_yes[0] 	222802
scalar tree_4_3_u08_r18_network.node[0].content_store 	decision_no[0] 	0
scalar tree_4_3_u08_r18_network.node[0].content_store 	decision_ratio[0] 	1
scalar tree_4_3_u08_r18_network.node[1].core_layer 	interests[1] 	152606
scalar tree_4_3_u08_r18_network.node[1].core_layer 	data[1] 	149377
scalar tree_4_3_u08_r18_network.node[1].content_store 	p_hit[1] 	0.021119746274721
scalar tree_4_3_u08_r18_network.node[1].content_store 	hits[1] 	3223
scalar tree_4_3_u08_r18_network.node[1].content_store 	misses[1] 	149383
scalar tree_4_3_u08_r18_network.node[1].content_store 	decision_yes[1] 	1531
scalar tree_4_3_u08_r18_network.node[1].content_store 	decision_no[1] 	147846
scalar tree_4_3_u08_r18_network.node[1].content_store 	decision_ratio[1] 	0.010249235156684
scalar tree_4_3_u08_r18_network.node[2].core_layer 	interests[2] 	68233
scalar tree_4_3_u08_r18_network.node[2].core_layer 	data[2] 	67055
scalar tree_4_3_u08_r18_network.node[2].content_store 	p_hit[2] 	0.017235062213299
scalar tree_4_3_u08_r18_network.node[2].content_store 	hits[2] 	1176
scalar tree_4_3_u08_r18_network.node[2].content_store 	misses[2] 	67057
scalar tree_4_3_u08_r18_network.node[2].content_store 	decision_yes[2] 	646
scalar tree_4_3_u08_r18_network.node[2].content_store 	decision_no[2] 	66409
scalar tree_4_3_u08_r18_network.node[2].content_store 	decision_ratio[2] 	0.0096338826336589
scalar tree_4_3_u08_r18_network.node[3].core_layer 	interests[3] 	8704
scalar tree_4_3_u08_r18_network.node[3].core_layer 	data[3] 	8633
scalar tree_4_3_u08_r18_network.node[3].content_store 	p_hit[3] 	0.0081571691176471
scalar tree_4_3_u08_r18_network.node[3].content_store 	hits[3] 	71
scalar tree_4_3_u08_r18_network.node[3].content_store 	misses[3] 	8633
scalar tree_4_3_u08_r18_network.node[3].content_store 	decision_yes[3] 	86
scalar tree_4_3_u08_r18_network.node[3].content_store 	decision_no[3] 	8547
scalar tree_4_3_u08_r18_network.node[3].content_store 	decision_ratio[3] 	0.0099617745858913
scalar tree_4_3_u08_r18_network.node[4].core_layer 	interests[4] 	34998
scalar tree_4_3_u08_r18_network.node[4].core_layer 	data[4] 	33795
scalar tree_4_3_u08_r18_network.node[4].content_store 	p_hit[4] 	0.034373392765301
scalar tree_4_3_u08_r18_network.node[4].content_store 	hits[4] 	1203
scalar tree_4_3_u08_r18_network.node[4].content_store 	misses[4] 	33795
scalar tree_4_3_u08_r18_network.node[4].content_store 	decision_yes[4] 	692
scalar tree_4_3_u08_r18_network.node[4].content_store 	decision_no[4] 	33103
scalar tree_4_3_u08_r18_network.node[4].content_store 	decision_ratio[4] 	0.020476401834591
scalar tree_4_3_u08_r18_network.node[5].core_layer 	interests[5] 	26451
scalar tree_4_3_u08_r18_network.node[5].core_layer 	data[5] 	25522
scalar tree_4_3_u08_r18_network.node[5].content_store 	p_hit[5] 	0.035083739745189
scalar tree_4_3_u08_r18_network.node[5].content_store 	hits[5] 	928
scalar tree_4_3_u08_r18_network.node[5].content_store 	misses[5] 	25523
scalar tree_4_3_u08_r18_network.node[5].content_store 	decision_yes[5] 	589
scalar tree_4_3_u08_r18_network.node[5].content_store 	decision_no[5] 	24933
scalar tree_4_3_u08_r18_network.node[5].content_store 	decision_ratio[5] 	0.023078128673301
scalar tree_4_3_u08_r18_network.node[6].core_layer 	interests[6] 	17394
scalar tree_4_3_u08_r18_network.node[6].core_layer 	data[6] 	16830
scalar tree_4_3_u08_r18_network.node[6].content_store 	p_hit[6] 	0.03242497412901
scalar tree_4_3_u08_r18_network.node[6].content_store 	hits[6] 	564
scalar tree_4_3_u08_r18_network.node[6].content_store 	misses[6] 	16830
scalar tree_4_3_u08_r18_network.node[6].content_store 	decision_yes[6] 	456
scalar tree_4_3_u08_r18_network.node[6].content_store 	decision_no[6] 	16374
scalar tree_4_3_u08_r18_network.node[6].content_store 	decision_ratio[6] 	0.027094474153298
scalar tree_4_3_u08_r18_network.node[7].core_layer 	interests[7] 	35386
scalar tree_4_3_u08_r18_network.node[7].core_layer 	data[7] 	34083
scalar tree_4_3_u08_r18_network.node[7].content_store 	p_hit[7] 	0.036822472164133
scalar tree_4_3_u08_r18_network.node[7].content_store 	hits[7] 	1303
scalar tree_4_3_u08_r18_network.node[7].content_store 	misses[7] 	34083
scalar tree_4_3_u08_r18_network.node[7].content_store 	decision_yes[7] 	710
scalar tree_4_3_u08_r18_network.node[7].content_store 	decision_no[7] 	33373
scalar tree_4_3_u08_r18_network.node[7].content_store 	decision_ratio[7] 	0.020831499574568
scalar tree_4_3_u08_r18_network.node[8].core_layer 	interests[8] 	26345
scalar tree_4_3_u08_r18_network.node[8].core_layer 	data[8] 	25551
scalar tree_4_3_u08_r18_network.node[8].content_store 	p_hit[8] 	0.030100588346935
scalar tree_4_3_u08_r18_network.node[8].content_store 	hits[8] 	793
scalar tree_4_3_u08_r18_network.node[8].content_store 	misses[8] 	25552
scalar tree_4_3_u08_r18_network.node[8].content_store 	decision_yes[8] 	405
scalar tree_4_3_u08_r18_network.node[8].content_store 	decision_no[8] 	25146
scalar tree_4_3_u08_r18_network.node[8].content_store 	decision_ratio[8] 	0.015850651637901
scalar tree_4_3_u08_r18_network.node[9].core_layer 	interests[9] 	17535
scalar tree_4_3_u08_r18_network.node[9].core_layer 	data[9] 	17055
scalar tree_4_3_u08_r18_network.node[9].content_store 	p_hit[9] 	0.027373823781009
scalar tree_4_3_u08_r18_network.node[9].content_store 	hits[9] 	480
scalar tree_4_3_u08_r18_network.node[9].content_store 	misses[9] 	17055
scalar tree_4_3_u08_r18_network.node[9].content_store 	decision_yes[9] 	352
scalar tree_4_3_u08_r18_network.node[9].content_store 	decision_no[9] 	16703
scalar tree_4_3_u08_r18_network.node[9].content_store 	decision_ratio[9] 	0.020639108765758
scalar tree_4_3_u08_r18_network.node[10].core_layer 	interests[10] 	44000
scalar tree_4_3_u08_r18_network.node[10].core_layer 	data[10] 	42376
scalar tree_4_3_u08_r18_network.node[10].content_store 	p_hit[10] 	0.036863636363636
scalar tree_4_3_u08_r18_network.node[10].content_store 	hits[10] 	1622
scalar tree_4_3_u08_r18_network.node[10].content_store 	misses[10] 	42378
scalar tree_4_3_u08_r18_network.node[10].content_store 	decision_yes[10] 	776
scalar tree_4_3_u08_r18_network.node[10].content_store 	decision_no[10] 	41600
scalar tree_4_3_u08_r18_network.node[10].content_store 	decision_ratio[10] 	0.018312252218237
scalar tree_4_3_u08_r18_network.node[11].core_layer 	interests[11] 	26446
scalar tree_4_3_u08_r18_network.node[11].core_layer 	data[11] 	25627
scalar tree_4_3_u08_r18_network.node[11].content_store 	p_hit[11] 	0.030930953641382
scalar tree_4_3_u08_r18_network.node[11].content_store 	hits[11] 	818
scalar tree_4_3_u08_r18_network.node[11].content_store 	misses[11] 	25628
scalar tree_4_3_u08_r18_network.node[11].content_store 	decision_yes[11] 	419
scalar tree_4_3_u08_r18_network.node[11].content_store 	decision_no[11] 	25208
scalar tree_4_3_u08_r18_network.node[11].content_store 	decision_ratio[11] 	0.01634994341905
scalar tree_4_3_u08_r18_network.node[12].core_layer 	interests[12] 	8888
scalar tree_4_3_u08_r18_network.node[12].core_layer 	data[12] 	8704
scalar tree_4_3_u08_r18_network.node[12].content_store 	p_hit[12] 	0.020702070207021
scalar tree_4_3_u08_r18_network.node[12].content_store 	hits[12] 	184
scalar tree_4_3_u08_r18_network.node[12].content_store 	misses[12] 	8704
scalar tree_4_3_u08_r18_network.node[12].content_store 	decision_yes[12] 	71
scalar tree_4_3_u08_r18_network.node[12].content_store 	decision_no[12] 	8633
scalar tree_4_3_u08_r18_network.node[12].content_store 	decision_ratio[12] 	0.0081571691176471
scalar tree_4_3_u08_r18_network.node[13].core_layer 	interests[13] 	11873
scalar tree_4_3_u08_r18_network.node[13].core_layer 	data[13] 	8741
scalar tree_4_3_u08_r18_network.node[13].content_store 	p_hit[13] 	0.2637917965131
scalar tree_4_3_u08_r18_network.node[13].content_store 	hits[13] 	3132
scalar tree_4_3_u08_r18_network.node[13].content_store 	misses[13] 	8741
scalar tree_4_3_u08_r18_network.node[13].content_store 	decision_yes[13] 	310
scalar tree_4_3_u08_r18_network.node[13].content_store 	decision_no[13] 	8431
scalar tree_4_3_u08_r18_network.node[13].content_store 	decision_ratio[13] 	0.035465049765473
scalar tree_4_3_u08_r18_network.node[14].core_layer 	interests[14] 	12149
scalar tree_4_3_u08_r18_network.node[14].core_layer 	data[14] 	8845
scalar tree_4_3_u08_r18_network.node[14].content_store 	p_hit[14] 	0.27195653963289
scalar tree_4_3_u08_r18_network.node[14].content_store 	hits[14] 	3304
scalar tree_4_3_u08_r18_network.node[14].content_store 	misses[14] 	8845
scalar tree_4_3_u08_r18_network.node[14].content_store 	decision_yes[14] 	296
scalar tree_4_3_u08_r18_network.node[14].content_store 	decision_no[14] 	8549
scalar tree_4_3_u08_r18_network.node[14].content_store 	decision_ratio[14] 	0.033465234595817
scalar tree_4_3_u08_r18_network.node[15].core_layer 	interests[15] 	12056
scalar tree_4_3_u08_r18_network.node[15].core_layer 	data[15] 	8742
scalar tree_4_3_u08_r18_network.node[15].content_store 	p_hit[15] 	0.27488387524884
scalar tree_4_3_u08_r18_network.node[15].content_store 	hits[15] 	3314
scalar tree_4_3_u08_r18_network.node[15].content_store 	misses[15] 	8742
scalar tree_4_3_u08_r18_network.node[15].content_store 	decision_yes[15] 	305
scalar tree_4_3_u08_r18_network.node[15].content_store 	decision_no[15] 	8437
scalar tree_4_3_u08_r18_network.node[15].content_store 	decision_ratio[15] 	0.034889041409288
scalar tree_4_3_u08_r18_network.node[16].core_layer 	interests[16] 	11888
scalar tree_4_3_u08_r18_network.node[16].core_layer 	data[16] 	8670
scalar tree_4_3_u08_r18_network.node[16].content_store 	p_hit[16] 	0.2706931359354
scalar tree_4_3_u08_r18_network.node[16].content_store 	hits[16] 	3218
scalar tree_4_3_u08_r18_network.node[16].content_store 	misses[16] 	8670
scalar tree_4_3_u08_r18_network.node[16].content_store 	decision_yes[16] 	292
scalar tree_4_3_u08_r18_network.node[16].content_store 	decision_no[16] 	8378
scalar tree_4_3_u08_r18_network.node[16].content_store 	decision_ratio[16] 	0.033679354094579
scalar tree_4_3_u08_r18_network.node[17].core_layer 	interests[17] 	12050
scalar tree_4_3_u08_r18_network.node[17].core_layer 	data[17] 	8884
scalar tree_4_3_u08_r18_network.node[17].content_store 	p_hit[17] 	0.26273858921162
scalar tree_4_3_u08_r18_network.node[17].content_store 	hits[17] 	3166
scalar tree_4_3_u08_r18_network.node[17].content_store 	misses[17] 	8884
scalar tree_4_3_u08_r18_network.node[17].content_store 	decision_yes[17] 	302
scalar tree_4_3_u08_r18_network.node[17].content_store 	decision_no[17] 	8582
scalar tree_4_3_u08_r18_network.node[17].content_store 	decision_ratio[17] 	0.033993696533093
scalar tree_4_3_u08_r18_network.node[18].core_layer 	interests[18] 	11958
scalar tree_4_3_u08_r18_network.node[18].core_layer 	data[18] 	8656
scalar tree_4_3_u08_r18_network.node[18].content_store 	p_hit[18] 	0.27613313263087
scalar tree_4_3_u08_r18_network.node[18].content_store 	hits[18] 	3302
scalar tree_4_3_u08_r18_network.node[18].content_store 	misses[18] 	8656
scalar tree_4_3_u08_r18_network.node[18].content_store 	decision_yes[18] 	313
scalar tree_4_3_u08_r18_network.node[18].content_store 	decision_no[18] 	8343
scalar tree_4_3_u08_r18_network.node[18].content_store 	decision_ratio[18] 	0.03615988909427
scalar tree_4_3_u08_r18_network.node[19].core_layer 	interests[19] 	12055
scalar tree_4_3_u08_r18_network.node[19].core_layer 	data[19] 	8839
scalar tree_4_3_u08_r18_network.node[19].content_store 	p_hit[19] 	0.26677727084197
scalar tree_4_3_u08_r18_network.node[19].content_store 	hits[19] 	3216
scalar tree_4_3_u08_r18_network.node[19].content_store 	misses[19] 	8839
scalar tree_4_3_u08_r18_network.node[19].content_store 	decision_yes[19] 	292
scalar tree_4_3_u08_r18_network.node[19].content_store 	decision_no[19] 	8547
scalar tree_4_3_u08_r18_network.node[19].content_store 	decision_ratio[19] 	0.033035411245616
scalar tree_4_3_u08_r18_network.node[20].core_layer 	interests[20] 	12141
scalar tree_4_3_u08_r18_network.node[20].core_layer 	data[20] 	8911
scalar tree_4_3_u08_r18_network.node[20].content_store 	p_hit[20] 	0.2660406885759
scalar tree_4_3_u08_r18_network.node[20].content_store 	hits[20] 	3230
scalar tree_4_3_u08_r18_network.node[20].content_store 	misses[20] 	8911
scalar tree_4_3_u08_r18_network.node[20].content_store 	decision_yes[20] 	313
scalar tree_4_3_u08_r18_network.node[20].content_store 	decision_no[20] 	8598
scalar tree_4_3_u08_r18_network.node[20].content_store 	decision_ratio[20] 	0.035125126248457
scalar tree_4_3_u08_r18_network.node[21].core_layer 	interests[21] 	11650
scalar tree_4_3_u08_r18_network.node[21].core_layer 	data[21] 	8555
scalar tree_4_3_u08_r18_network.node[21].content_store 	p_hit[21] 	0.26557939914163
scalar tree_4_3_u08_r18_network.node[21].content_store 	hits[21] 	3094
scalar tree_4_3_u08_r18_network.node[21].content_store 	misses[21] 	8556
scalar tree_4_3_u08_r18_network.node[21].content_store 	decision_yes[21] 	272
scalar tree_4_3_u08_r18_network.node[21].content_store 	decision_no[21] 	8283
scalar tree_4_3_u08_r18_network.node[21].content_store 	decision_ratio[21] 	0.031794272355348
scalar tree_4_3_u08_r18_network.node[22].core_layer 	interests[22] 	11846
scalar tree_4_3_u08_r18_network.node[22].core_layer 	data[22] 	8661
scalar tree_4_3_u08_r18_network.node[22].content_store 	p_hit[22] 	0.26886712814452
scalar tree_4_3_u08_r18_network.node[22].content_store 	hits[22] 	3185
scalar tree_4_3_u08_r18_network.node[22].content_store 	misses[22] 	8661
scalar tree_4_3_u08_r18_network.node[22].content_store 	decision_yes[22] 	305
scalar tree_4_3_u08_r18_network.node[22].content_store 	decision_no[22] 	8356
scalar tree_4_3_u08_r18_network.node[22].content_store 	decision_ratio[22] 	0.035215333102413
scalar tree_4_3_u08_r18_network.node[23].core_layer 	interests[23] 	12050
scalar tree_4_3_u08_r18_network.node[23].core_layer 	data[23] 	8868
scalar tree_4_3_u08_r18_network.node[23].content_store 	p_hit[23] 	0.26406639004149
scalar tree_4_3_u08_r18_network.node[23].content_store 	hits[23] 	3182
scalar tree_4_3_u08_r18_network.node[23].content_store 	misses[23] 	8868
scalar tree_4_3_u08_r18_network.node[23].content_store 	decision_yes[23] 	316
scalar tree_4_3_u08_r18_network.node[23].content_store 	decision_no[23] 	8552
scalar tree_4_3_u08_r18_network.node[23].content_store 	decision_ratio[23] 	0.035633739287325
scalar tree_4_3_u08_r18_network.node[24].core_layer 	interests[24] 	12000
scalar tree_4_3_u08_r18_network.node[24].core_layer 	data[24] 	8907
scalar tree_4_3_u08_r18_network.node[24].content_store 	p_hit[24] 	0.25775
scalar tree_4_3_u08_r18_network.node[24].content_store 	hits[24] 	3093
scalar tree_4_3_u08_r18_network.node[24].content_store 	misses[24] 	8907
scalar tree_4_3_u08_r18_network.node[24].content_store 	decision_yes[24] 	350
scalar tree_4_3_u08_r18_network.node[24].content_store 	decision_no[24] 	8557
scalar tree_4_3_u08_r18_network.node[24].content_store 	decision_ratio[24] 	0.039294936566745
scalar tree_4_3_u08_r18_network.node[25].core_layer 	interests[25] 	12066
scalar tree_4_3_u08_r18_network.node[25].core_layer 	data[25] 	8950
scalar tree_4_3_u08_r18_network.node[25].content_store 	p_hit[25] 	0.25824631195094
scalar tree_4_3_u08_r18_network.node[25].content_store 	hits[25] 	3116
scalar tree_4_3_u08_r18_network.node[25].content_store 	misses[25] 	8950
scalar tree_4_3_u08_r18_network.node[25].content_store 	decision_yes[25] 	332
scalar tree_4_3_u08_r18_network.node[25].content_store 	decision_no[25] 	8618
scalar tree_4_3_u08_r18_network.node[25].content_store 	decision_ratio[25] 	0.037094972067039
scalar tree_4_3_u08_r18_network.node[26].core_layer 	interests[26] 	12038
scalar tree_4_3_u08_r18_network.node[26].core_layer 	data[26] 	8799
scalar tree_4_3_u08_r18_network.node[26].content_store 	p_hit[26] 	0.26898155839841
scalar tree_4_3_u08_r18_network.node[26].content_store 	hits[26] 	3238
scalar tree_4_3_u08_r18_network.node[26].content_store 	misses[26] 	8800
scalar tree_4_3_u08_r18_network.node[26].content_store 	decision_yes[26] 	265
scalar tree_4_3_u08_r18_network.node[26].content_store 	decision_no[26] 	8534
scalar tree_4_3_u08_r18_network.node[26].content_store 	decision_ratio[26] 	0.030117058756677
scalar tree_4_3_u08_r18_network.node[27].core_layer 	interests[27] 	12063
scalar tree_4_3_u08_r18_network.node[27].core_layer 	data[27] 	8867
scalar tree_4_3_u08_r18_network.node[27].content_store 	p_hit[27] 	0.26494238580784
scalar tree_4_3_u08_r18_network.node[27].content_store 	hits[27] 	3196
scalar tree_4_3_u08_r18_network.node[27].content_store 	misses[27] 	8867
scalar tree_4_3_u08_r18_network.node[27].content_store 	decision_yes[27] 	271
scalar tree_4_3_u08_r18_network.node[27].content_store 	decision_no[27] 	8596
scalar tree_4_3_u08_r18_network.node[27].content_store 	decision_ratio[27] 	0.030562760798466
scalar tree_4_3_u08_r18_network.node[28].core_layer 	interests[28] 	12020
scalar tree_4_3_u08_r18_network.node[28].core_layer 	data[28] 	8847
scalar tree_4_3_u08_r18_network.node[28].content_store 	p_hit[28] 	0.26397670549085
scalar tree_4_3_u08_r18_network.node[28].content_store 	hits[28] 	3173
scalar tree_4_3_u08_r18_network.node[28].content_store 	misses[28] 	8847
scalar tree_4_3_u08_r18_network.node[28].content_store 	decision_yes[28] 	265
scalar tree_4_3_u08_r18_network.node[28].content_store 	decision_no[28] 	8582
scalar tree_4_3_u08_r18_network.node[28].content_store 	decision_ratio[28] 	0.029953656606759
scalar tree_4_3_u08_r18_network.node[29].core_layer 	interests[29] 	11841
scalar tree_4_3_u08_r18_network.node[29].core_layer 	data[29] 	8678
scalar tree_4_3_u08_r18_network.node[29].content_store 	p_hit[29] 	0.26695380457732
scalar tree_4_3_u08_r18_network.node[29].content_store 	hits[29] 	3161
scalar tree_4_3_u08_r18_network.node[29].content_store 	misses[29] 	8680
scalar tree_4_3_u08_r18_network.node[29].content_store 	decision_yes[29] 	257
scalar tree_4_3_u08_r18_network.node[29].content_store 	decision_no[29] 	8421
scalar tree_4_3_u08_r18_network.node[29].content_store 	decision_ratio[29] 	0.029615118690943
scalar tree_4_3_u08_r18_network.node[30].core_layer 	interests[30] 	11880
scalar tree_4_3_u08_r18_network.node[30].core_layer 	data[30] 	8688
scalar tree_4_3_u08_r18_network.node[30].content_store 	p_hit[30] 	0.26868686868687
scalar tree_4_3_u08_r18_network.node[30].content_store 	hits[30] 	3192
scalar tree_4_3_u08_r18_network.node[30].content_store 	misses[30] 	8688
scalar tree_4_3_u08_r18_network.node[30].content_store 	decision_yes[30] 	215
scalar tree_4_3_u08_r18_network.node[30].content_store 	decision_no[30] 	8473
scalar tree_4_3_u08_r18_network.node[30].content_store 	decision_ratio[30] 	0.024746777163904
scalar tree_4_3_u08_r18_network.node[31].core_layer 	interests[31] 	11898
scalar tree_4_3_u08_r18_network.node[31].core_layer 	data[31] 	8701
scalar tree_4_3_u08_r18_network.node[31].content_store 	p_hit[31] 	0.26878466969239
scalar tree_4_3_u08_r18_network.node[31].content_store 	hits[31] 	3198
scalar tree_4_3_u08_r18_network.node[31].content_store 	misses[31] 	8700
scalar tree_4_3_u08_r18_network.node[31].content_store 	decision_yes[31] 	351
scalar tree_4_3_u08_r18_network.node[31].content_store 	decision_no[31] 	8350
scalar tree_4_3_u08_r18_network.node[31].content_store 	decision_ratio[31] 	0.040340190782669
scalar tree_4_3_u08_r18_network.node[32].core_layer 	interests[32] 	12103
scalar tree_4_3_u08_r18_network.node[32].core_layer 	data[32] 	8848
scalar tree_4_3_u08_r18_network.node[32].content_store 	p_hit[32] 	0.26894158473106
scalar tree_4_3_u08_r18_network.node[32].content_store 	hits[32] 	3255
scalar tree_4_3_u08_r18_network.node[32].content_store 	misses[32] 	8848
scalar tree_4_3_u08_r18_network.node[32].content_store 	decision_yes[32] 	315
scalar tree_4_3_u08_r18_network.node[32].content_store 	decision_no[32] 	8533
scalar tree_4_3_u08_r18_network.node[32].content_store 	decision_ratio[32] 	0.035601265822785
scalar tree_4_3_u08_r18_network.node[33].core_layer 	interests[33] 	12019
scalar tree_4_3_u08_r18_network.node[33].core_layer 	data[33] 	8804
scalar tree_4_3_u08_r18_network.node[33].content_store 	p_hit[33] 	0.26749313586821
scalar tree_4_3_u08_r18_network.node[33].content_store 	hits[33] 	3215
scalar tree_4_3_u08_r18_network.node[33].content_store 	misses[33] 	8804
scalar tree_4_3_u08_r18_network.node[33].content_store 	decision_yes[33] 	325
scalar tree_4_3_u08_r18_network.node[33].content_store 	decision_no[33] 	8479
scalar tree_4_3_u08_r18_network.node[33].content_store 	decision_ratio[33] 	0.03691503861881
scalar tree_4_3_u08_r18_network.node[34].core_layer 	interests[34] 	12065
scalar tree_4_3_u08_r18_network.node[34].core_layer 	data[34] 	8834
scalar tree_4_3_u08_r18_network.node[34].content_store 	p_hit[34] 	0.26779941980937
scalar tree_4_3_u08_r18_network.node[34].content_store 	hits[34] 	3231
scalar tree_4_3_u08_r18_network.node[34].content_store 	misses[34] 	8834
scalar tree_4_3_u08_r18_network.node[34].content_store 	decision_yes[34] 	314
scalar tree_4_3_u08_r18_network.node[34].content_store 	decision_no[34] 	8520
scalar tree_4_3_u08_r18_network.node[34].content_store 	decision_ratio[34] 	0.035544487208513
scalar tree_4_3_u08_r18_network.node[35].core_layer 	interests[35] 	11981
scalar tree_4_3_u08_r18_network.node[35].core_layer 	data[35] 	8806
scalar tree_4_3_u08_r18_network.node[35].content_store 	p_hit[35] 	0.26500292129205
scalar tree_4_3_u08_r18_network.node[35].content_store 	hits[35] 	3175
scalar tree_4_3_u08_r18_network.node[35].content_store 	misses[35] 	8806
scalar tree_4_3_u08_r18_network.node[35].content_store 	decision_yes[35] 	272
scalar tree_4_3_u08_r18_network.node[35].content_store 	decision_no[35] 	8534
scalar tree_4_3_u08_r18_network.node[35].content_store 	decision_ratio[35] 	0.030888030888031
scalar tree_4_3_u08_r18_network.node[36].core_layer 	interests[36] 	12163
scalar tree_4_3_u08_r18_network.node[36].core_layer 	data[36] 	8936
scalar tree_4_3_u08_r18_network.node[36].content_store 	p_hit[36] 	0.26539505056318
scalar tree_4_3_u08_r18_network.node[36].content_store 	hits[36] 	3228
scalar tree_4_3_u08_r18_network.node[36].content_store 	misses[36] 	8935
scalar tree_4_3_u08_r18_network.node[36].content_store 	decision_yes[36] 	277
scalar tree_4_3_u08_r18_network.node[36].content_store 	decision_no[36] 	8659
scalar tree_4_3_u08_r18_network.node[36].content_store 	decision_ratio[36] 	0.030998209489705
scalar tree_4_3_u08_r18_network.node[37].core_layer 	interests[37] 	11918
scalar tree_4_3_u08_r18_network.node[37].core_layer 	data[37] 	8814
scalar tree_4_3_u08_r18_network.node[37].content_store 	p_hit[37] 	0.26044638362141
scalar tree_4_3_u08_r18_network.node[37].content_store 	hits[37] 	3104
scalar tree_4_3_u08_r18_network.node[37].content_store 	misses[37] 	8814
scalar tree_4_3_u08_r18_network.node[37].content_store 	decision_yes[37] 	317
scalar tree_4_3_u08_r18_network.node[37].content_store 	decision_no[37] 	8497
scalar tree_4_3_u08_r18_network.node[37].content_store 	decision_ratio[37] 	0.035965509416837
scalar tree_4_3_u08_r18_network.node[38].core_layer 	interests[38] 	11928
scalar tree_4_3_u08_r18_network.node[38].core_layer 	data[38] 	8704
scalar tree_4_3_u08_r18_network.node[38].content_store 	p_hit[38] 	0.27028839704896
scalar tree_4_3_u08_r18_network.node[38].content_store 	hits[38] 	3224
scalar tree_4_3_u08_r18_network.node[38].content_store 	misses[38] 	8704
scalar tree_4_3_u08_r18_network.node[38].content_store 	decision_yes[38] 	269
scalar tree_4_3_u08_r18_network.node[38].content_store 	decision_no[38] 	8435
scalar tree_4_3_u08_r18_network.node[38].content_store 	decision_ratio[38] 	0.030905330882353
scalar tree_4_3_u08_r18_network.node[39].core_layer 	interests[39] 	12025
scalar tree_4_3_u08_r18_network.node[39].core_layer 	data[39] 	8888
scalar tree_4_3_u08_r18_network.node[39].content_store 	p_hit[39] 	0.26087318087318
scalar tree_4_3_u08_r18_network.node[39].content_store 	hits[39] 	3137
scalar tree_4_3_u08_r18_network.node[39].content_store 	misses[39] 	8888
scalar tree_4_3_u08_r18_network.node[39].content_store 	decision_yes[39] 	184
scalar tree_4_3_u08_r18_network.node[39].content_store 	decision_no[39] 	8704
scalar tree_4_3_u08_r18_network.node[39].content_store 	decision_ratio[39] 	0.020702070207021
scalar tree_4_3_u08_r18_network.client[13] 	hdistance[13] 	2.8332350711699
scalar tree_4_3_u08_r18_network.client[13] 	downloads[13] 	11873
scalar tree_4_3_u08_r18_network.client[13] 	avg_time[13] 	0.00428703485
scalar tree_4_3_u08_r18_network.client[14] 	hdistance[14] 	2.8051691497243
scalar tree_4_3_u08_r18_network.client[14] 	downloads[14] 	12149
scalar tree_4_3_u08_r18_network.client[14] 	avg_time[14] 	0.004243993129
scalar tree_4_3_u08_r18_network.client[15] 	hdistance[15] 	2.7865792966158
scalar tree_4_3_u08_r18_network.client[15] 	downloads[15] 	12056
scalar tree_4_3_u08_r18_network.client[15] 	avg_time[15] 	0.00421880919
scalar tree_4_3_u08_r18_network.client[16] 	hdistance[16] 	2.8045928667564
scalar tree_4_3_u08_r18_network.client[16] 	downloads[16] 	11888
scalar tree_4_3_u08_r18_network.client[16] 	avg_time[16] 	0.004245286422
scalar tree_4_3_u08_r18_network.client[17] 	hdistance[17] 	2.8352697095436
scalar tree_4_3_u08_r18_network.client[17] 	downloads[17] 	12050
scalar tree_4_3_u08_r18_network.client[17] 	avg_time[17] 	0.004291615275
scalar tree_4_3_u08_r18_network.client[18] 	hdistance[18] 	2.7757986285332
scalar tree_4_3_u08_r18_network.client[18] 	downloads[18] 	11958
scalar tree_4_3_u08_r18_network.client[18] 	avg_time[18] 	0.004203554408
scalar tree_4_3_u08_r18_network.client[19] 	hdistance[19] 	2.8145167980091
scalar tree_4_3_u08_r18_network.client[19] 	downloads[19] 	12055
scalar tree_4_3_u08_r18_network.client[19] 	avg_time[19] 	0.004264949295
scalar tree_4_3_u08_r18_network.client[20] 	hdistance[20] 	2.8200312989045
scalar tree_4_3_u08_r18_network.client[20] 	downloads[20] 	12141
scalar tree_4_3_u08_r18_network.client[20] 	avg_time[20] 	0.00426916474
scalar tree_4_3_u08_r18_network.client[21] 	hdistance[21] 	2.8223881878273
scalar tree_4_3_u08_r18_network.client[21] 	downloads[21] 	11649
scalar tree_4_3_u08_r18_network.client[21] 	avg_time[21] 	0.004273229507
scalar tree_4_3_u08_r18_network.client[22] 	hdistance[22] 	2.8120040520007
scalar tree_4_3_u08_r18_network.client[22] 	downloads[22] 	11846
scalar tree_4_3_u08_r18_network.client[22] 	avg_time[22] 	0.004256299676
scalar tree_4_3_u08_r18_network.client[23] 	hdistance[23] 	2.8259751037344
scalar tree_4_3_u08_r18_network.client[23] 	downloads[23] 	12050
scalar tree_4_3_u08_r18_network.client[23] 	avg_time[23] 	0.004278550192
scalar tree_4_3_u08_r18_network.client[24] 	hdistance[24] 	2.8455
scalar tree_4_3_u08_r18_network.client[24] 	downloads[24] 	12000
scalar tree_4_3_u08_r18_network.client[24] 	avg_time[24] 	0.004308330299
scalar tree_4_3_u08_r18_network.client[25] 	hdistance[25] 	2.8469252444886
scalar tree_4_3_u08_r18_network.client[25] 	downloads[25] 	12066
scalar tree_4_3_u08_r18_network.client[25] 	avg_time[25] 	0.004309958869
scalar tree_4_3_u08_r18_network.client[26] 	hdistance[26] 	2.8293594749522
scalar tree_4_3_u08_r18_network.client[26] 	downloads[26] 	12037
scalar tree_4_3_u08_r18_network.client[26] 	avg_time[26] 	0.004275790014
scalar tree_4_3_u08_r18_network.client[27] 	hdistance[27] 	2.8446489264694
scalar tree_4_3_u08_r18_network.client[27] 	downloads[27] 	12063
scalar tree_4_3_u08_r18_network.client[27] 	avg_time[27] 	0.004298430207
scalar tree_4_3_u08_r18_network.client[28] 	hdistance[28] 	2.8384359400998
scalar tree_4_3_u08_r18_network.client[28] 	downloads[28] 	12020
scalar tree_4_3_u08_r18_network.client[28] 	avg_time[28] 	0.004295338076
scalar tree_4_3_u08_r18_network.client[29] 	hdistance[29] 	2.8368105414309
scalar tree_4_3_u08_r18_network.client[29] 	downloads[29] 	11839
scalar tree_4_3_u08_r18_network.client[29] 	avg_time[29] 	0.004287337823
scalar tree_4_3_u08_r18_network.client[30] 	hdistance[30] 	2.8378787878788
scalar tree_4_3_u08_r18_network.client[30] 	downloads[30] 	11880
scalar tree_4_3_u08_r18_network.client[30] 	avg_time[30] 	0.004289090592
scalar tree_4_3_u08_r18_network.client[31] 	hdistance[31] 	2.8019161274057
scalar tree_4_3_u08_r18_network.client[31] 	downloads[31] 	11899
scalar tree_4_3_u08_r18_network.client[31] 	avg_time[31] 	0.004242304084
scalar tree_4_3_u08_r18_network.client[32] 	hdistance[32] 	2.8130215649013
scalar tree_4_3_u08_r18_network.client[32] 	downloads[32] 	12103
scalar tree_4_3_u08_r18_network.client[32] 	avg_time[32] 	0.004256115446
scalar tree_4_3_u08_r18_network.client[33] 	hdistance[33] 	2.8167068807721
scalar tree_4_3_u08_r18_network.client[33] 	downloads[33] 	12019
scalar tree_4_3_u08_r18_network.client[33] 	avg_time[33] 	0.004261416427
scalar tree_4_3_u08_r18_network.client[34] 	hdistance[34] 	2.8172399502694
scalar tree_4_3_u08_r18_network.client[34] 	downloads[34] 	12065
scalar tree_4_3_u08_r18_network.client[34] 	avg_time[34] 	0.004262077407
scalar tree_4_3_u08_r18_network.client[35] 	hdistance[35] 	2.8432518153743
scalar tree_4_3_u08_r18_network.client[35] 	downloads[35] 	11981
scalar tree_4_3_u08_r18_network.client[35] 	avg_time[35] 	0.004297968818
scalar tree_4_3_u08_r18_network.client[36] 	hdistance[36] 	2.8402663597501
scalar tree_4_3_u08_r18_network.client[36] 	downloads[36] 	12164
scalar tree_4_3_u08_r18_network.client[36] 	avg_time[36] 	0.004293814795
scalar tree_4_3_u08_r18_network.client[37] 	hdistance[37] 	2.8472898137271
scalar tree_4_3_u08_r18_network.client[37] 	downloads[37] 	11918
scalar tree_4_3_u08_r18_network.client[37] 	avg_time[37] 	0.004306650885
scalar tree_4_3_u08_r18_network.client[38] 	hdistance[38] 	2.8190811535882
scalar tree_4_3_u08_r18_network.client[38] 	downloads[38] 	11928
scalar tree_4_3_u08_r18_network.client[38] 	avg_time[38] 	0.004262400172
scalar tree_4_3_u08_r18_network.client[39] 	hdistance[39] 	2.8916424116424
scalar tree_4_3_u08_r18_network.client[39] 	downloads[39] 	12025
scalar tree_4_3_u08_r18_network.client[39] 	avg_time[39] 	0.00436174334
