version 2
run General-167-20160820-10:45:31-856
attr a 0.9
attr cd lcd
attr configname General
attr cr lru
attr datetime 20160820-10:45:31
attr experiment General
attr fsize 1
attr inifile hw5115/scenario_A/SPR-LCD.ini
attr iterationvars "$name=tree_4_3, $un=08, $rep=8, $cd=lcd, $cr=lru, $fsize=1, $a=0.9, $sl=spr, $ttl=1000, $variance=0.05"
attr iterationvars2 "$name=tree_4_3, $un=08, $rep=8, $cd=lcd, $cr=lru, $fsize=1, $a=0.9, $sl=spr, $ttl=1000, $variance=0.05, $repetition=0"
attr measurement "$name=tree_4_3, $un=08, $rep=8, $cd=lcd, $cr=lru, $fsize=1, $a=0.9, $sl=spr, $ttl=1000, $variance=0.05"
attr name tree_4_3
attr network networks.${name}_u${un}_r${rep}_network
attr processid 856
attr rep 8
attr repetition 0
attr replication #0
attr resultdir results
attr runnumber 167
attr seedset 8
attr sl spr
attr ttl 1000
attr un 08
attr variance 0.05

scalar . 	a 	0.9
scalar . 	fsize 	1
scalar . 	rep 	8
scalar . 	ttl 	1000
scalar . 	un 	08
scalar . 	variance 	0.05
scalar tree_4_3_u08_r8_network.content_distribution 	repo-0 	0
scalar tree_4_3_u08_r8_network.content_distribution 	client-0 	13
scalar tree_4_3_u08_r8_network.content_distribution 	client-1 	14
scalar tree_4_3_u08_r8_network.content_distribution 	client-2 	15
scalar tree_4_3_u08_r8_network.content_distribution 	client-3 	16
scalar tree_4_3_u08_r8_network.content_distribution 	client-4 	17
scalar tree_4_3_u08_r8_network.content_distribution 	client-5 	18
scalar tree_4_3_u08_r8_network.content_distribution 	client-6 	19
scalar tree_4_3_u08_r8_network.content_distribution 	client-7 	20
scalar tree_4_3_u08_r8_network.content_distribution 	client-8 	21
scalar tree_4_3_u08_r8_network.content_distribution 	client-9 	22
scalar tree_4_3_u08_r8_network.content_distribution 	client-10 	23
scalar tree_4_3_u08_r8_network.content_distribution 	client-11 	24
scalar tree_4_3_u08_r8_network.content_distribution 	client-12 	25
scalar tree_4_3_u08_r8_network.content_distribution 	client-13 	26
scalar tree_4_3_u08_r8_network.content_distribution 	client-14 	27
scalar tree_4_3_u08_r8_network.content_distribution 	client-15 	28
scalar tree_4_3_u08_r8_network.content_distribution 	client-16 	29
scalar tree_4_3_u08_r8_network.content_distribution 	client-17 	30
scalar tree_4_3_u08_r8_network.content_distribution 	client-18 	31
scalar tree_4_3_u08_r8_network.content_distribution 	client-19 	32
scalar tree_4_3_u08_r8_network.content_distribution 	client-20 	33
scalar tree_4_3_u08_r8_network.content_distribution 	client-21 	34
scalar tree_4_3_u08_r8_network.content_distribution 	client-22 	35
scalar tree_4_3_u08_r8_network.content_distribution 	client-23 	36
scalar tree_4_3_u08_r8_network.content_distribution 	client-24 	37
scalar tree_4_3_u08_r8_network.content_distribution 	client-25 	38
scalar tree_4_3_u08_r8_network.content_distribution 	client-26 	39
scalar tree_4_3_u08_r8_network.content_distribution 	repo-0_card 	100000
scalar tree_4_3_u08_r8_network.content_distribution 	repo-0_price 	0
scalar tree_4_3_u08_r8_network.statistics 	stabilization_time 	4913.3
scalar tree_4_3_u08_r8_network.statistics 	p_hit 	0.18883958156762
scalar tree_4_3_u08_r8_network.statistics 	interests 	25436.725
scalar tree_4_3_u08_r8_network.statistics 	data 	17323.25
scalar tree_4_3_u08_r8_network.statistics 	hdistance 	2.8223881002143
scalar tree_4_3_u08_r8_network.statistics 	avg_time 	0.004270272347
scalar tree_4_3_u08_r8_network.statistics 	downloads 	324543
scalar tree_4_3_u08_r8_network.statistics 	total_cost 	0
scalar tree_4_3_u08_r8_network.statistics 	total_replicas 	100000
scalar tree_4_3_u08_r8_network.statistics 	inner_hit 	0.31283373851847
scalar tree_4_3_u08_r8_network.node[0].core_layer 	interests[0] 	225301
scalar tree_4_3_u08_r8_network.node[0].core_layer 	repo_load[0] 	223015
scalar tree_4_3_u08_r8_network.node[0].core_layer 	data[0] 	0
scalar tree_4_3_u08_r8_network.node[0].core_layer 	repo_int[0] 	223015
scalar tree_4_3_u08_r8_network.node[0].content_store 	p_hit[0] 	0.010146426336323
scalar tree_4_3_u08_r8_network.node[0].content_store 	hits[0] 	2286
scalar tree_4_3_u08_r8_network.node[0].content_store 	misses[0] 	223015
scalar tree_4_3_u08_r8_network.node[0].content_store 	decision_yes[0] 	223015
scalar tree_4_3_u08_r8_network.node[0].content_store 	decision_no[0] 	0
scalar tree_4_3_u08_r8_network.node[0].content_store 	decision_ratio[0] 	1
scalar tree_4_3_u08_r8_network.node[1].core_layer 	interests[1] 	161066
scalar tree_4_3_u08_r8_network.node[1].core_layer 	data[1] 	157756
scalar tree_4_3_u08_r8_network.node[1].content_store 	p_hit[1] 	0.02051332993928
scalar tree_4_3_u08_r8_network.node[1].content_store 	hits[1] 	3304
scalar tree_4_3_u08_r8_network.node[1].content_store 	misses[1] 	157762
scalar tree_4_3_u08_r8_network.node[1].content_store 	decision_yes[1] 	1580
scalar tree_4_3_u08_r8_network.node[1].content_store 	decision_no[1] 	156176
scalar tree_4_3_u08_r8_network.node[1].content_store 	decision_ratio[1] 	0.010015466923604
scalar tree_4_3_u08_r8_network.node[2].core_layer 	interests[2] 	60007
scalar tree_4_3_u08_r8_network.node[2].core_layer 	data[2] 	58977
scalar tree_4_3_u08_r8_network.node[2].content_store 	p_hit[2] 	0.01714799940007
scalar tree_4_3_u08_r8_network.node[2].content_store 	hits[2] 	1029
scalar tree_4_3_u08_r8_network.node[2].content_store 	misses[2] 	58978
scalar tree_4_3_u08_r8_network.node[2].content_store 	decision_yes[2] 	627
scalar tree_4_3_u08_r8_network.node[2].content_store 	decision_no[2] 	58350
scalar tree_4_3_u08_r8_network.node[2].content_store 	decision_ratio[2] 	0.010631263034742
scalar tree_4_3_u08_r8_network.node[3].core_layer 	interests[3] 	8647
scalar tree_4_3_u08_r8_network.node[3].core_layer 	data[3] 	8568
scalar tree_4_3_u08_r8_network.node[3].content_store 	p_hit[3] 	0.0091361165722216
scalar tree_4_3_u08_r8_network.node[3].content_store 	hits[3] 	79
scalar tree_4_3_u08_r8_network.node[3].content_store 	misses[3] 	8568
scalar tree_4_3_u08_r8_network.node[3].content_store 	decision_yes[3] 	79
scalar tree_4_3_u08_r8_network.node[3].content_store 	decision_no[3] 	8489
scalar tree_4_3_u08_r8_network.node[3].content_store 	decision_ratio[3] 	0.0092203548085901
scalar tree_4_3_u08_r8_network.node[4].core_layer 	interests[4] 	43921
scalar tree_4_3_u08_r8_network.node[4].core_layer 	data[4] 	42250
scalar tree_4_3_u08_r8_network.node[4].content_store 	p_hit[4] 	0.038045581840122
scalar tree_4_3_u08_r8_network.node[4].content_store 	hits[4] 	1671
scalar tree_4_3_u08_r8_network.node[4].content_store 	misses[4] 	42250
scalar tree_4_3_u08_r8_network.node[4].content_store 	decision_yes[4] 	822
scalar tree_4_3_u08_r8_network.node[4].content_store 	decision_no[4] 	41428
scalar tree_4_3_u08_r8_network.node[4].content_store 	decision_ratio[4] 	0.019455621301775
scalar tree_4_3_u08_r8_network.node[5].core_layer 	interests[5] 	26409
scalar tree_4_3_u08_r8_network.node[5].core_layer 	data[5] 	25494
scalar tree_4_3_u08_r8_network.node[5].content_store 	p_hit[5] 	0.03464727933659
scalar tree_4_3_u08_r8_network.node[5].content_store 	hits[5] 	915
scalar tree_4_3_u08_r8_network.node[5].content_store 	misses[5] 	25494
scalar tree_4_3_u08_r8_network.node[5].content_store 	decision_yes[5] 	598
scalar tree_4_3_u08_r8_network.node[5].content_store 	decision_no[5] 	24896
scalar tree_4_3_u08_r8_network.node[5].content_store 	decision_ratio[5] 	0.023456499568526
scalar tree_4_3_u08_r8_network.node[6].core_layer 	interests[6] 	8912
scalar tree_4_3_u08_r8_network.node[6].core_layer 	data[6] 	8640
scalar tree_4_3_u08_r8_network.node[6].content_store 	p_hit[6] 	0.030520646319569
scalar tree_4_3_u08_r8_network.node[6].content_store 	hits[6] 	272
scalar tree_4_3_u08_r8_network.node[6].content_store 	misses[6] 	8640
scalar tree_4_3_u08_r8_network.node[6].content_store 	decision_yes[6] 	241
scalar tree_4_3_u08_r8_network.node[6].content_store 	decision_no[6] 	8399
scalar tree_4_3_u08_r8_network.node[6].content_store 	decision_ratio[6] 	0.027893518518519
scalar tree_4_3_u08_r8_network.node[7].core_layer 	interests[7] 	44285
scalar tree_4_3_u08_r8_network.node[7].core_layer 	data[7] 	42620
scalar tree_4_3_u08_r8_network.node[7].content_store 	p_hit[7] 	0.037484475556057
scalar tree_4_3_u08_r8_network.node[7].content_store 	hits[7] 	1660
scalar tree_4_3_u08_r8_network.node[7].content_store 	misses[7] 	42625
scalar tree_4_3_u08_r8_network.node[7].content_store 	decision_yes[7] 	837
scalar tree_4_3_u08_r8_network.node[7].content_store 	decision_no[7] 	41783
scalar tree_4_3_u08_r8_network.node[7].content_store 	decision_ratio[7] 	0.019638667292351
scalar tree_4_3_u08_r8_network.node[8].core_layer 	interests[8] 	26392
scalar tree_4_3_u08_r8_network.node[8].core_layer 	data[8] 	25628
scalar tree_4_3_u08_r8_network.node[8].content_store 	p_hit[8] 	0.028948166110943
scalar tree_4_3_u08_r8_network.node[8].content_store 	hits[8] 	764
scalar tree_4_3_u08_r8_network.node[8].content_store 	misses[8] 	25628
scalar tree_4_3_u08_r8_network.node[8].content_store 	decision_yes[8] 	393
scalar tree_4_3_u08_r8_network.node[8].content_store 	decision_no[8] 	25235
scalar tree_4_3_u08_r8_network.node[8].content_store 	decision_ratio[8] 	0.015334790073357
scalar tree_4_3_u08_r8_network.node[9].core_layer 	interests[9] 	8799
scalar tree_4_3_u08_r8_network.node[9].core_layer 	data[9] 	8545
scalar tree_4_3_u08_r8_network.node[9].content_store 	p_hit[9] 	0.028866916695079
scalar tree_4_3_u08_r8_network.node[9].content_store 	hits[9] 	254
scalar tree_4_3_u08_r8_network.node[9].content_store 	misses[9] 	8545
scalar tree_4_3_u08_r8_network.node[9].content_store 	decision_yes[9] 	221
scalar tree_4_3_u08_r8_network.node[9].content_store 	decision_no[9] 	8324
scalar tree_4_3_u08_r8_network.node[9].content_store 	decision_ratio[9] 	0.025863077823288
scalar tree_4_3_u08_r8_network.node[10].core_layer 	interests[10] 	43715
scalar tree_4_3_u08_r8_network.node[10].core_layer 	data[10] 	42064
scalar tree_4_3_u08_r8_network.node[10].content_store 	p_hit[10] 	0.037790232185749
scalar tree_4_3_u08_r8_network.node[10].content_store 	hits[10] 	1652
scalar tree_4_3_u08_r8_network.node[10].content_store 	misses[10] 	42063
scalar tree_4_3_u08_r8_network.node[10].content_store 	decision_yes[10] 	806
scalar tree_4_3_u08_r8_network.node[10].content_store 	decision_no[10] 	41258
scalar tree_4_3_u08_r8_network.node[10].content_store 	decision_ratio[10] 	0.019161278052491
scalar tree_4_3_u08_r8_network.node[11].core_layer 	interests[11] 	26616
scalar tree_4_3_u08_r8_network.node[11].core_layer 	data[11] 	25834
scalar tree_4_3_u08_r8_network.node[11].content_store 	p_hit[11] 	0.029380823564773
scalar tree_4_3_u08_r8_network.node[11].content_store 	hits[11] 	782
scalar tree_4_3_u08_r8_network.node[11].content_store 	misses[11] 	25834
scalar tree_4_3_u08_r8_network.node[11].content_store 	decision_yes[11] 	415
scalar tree_4_3_u08_r8_network.node[11].content_store 	decision_no[11] 	25419
scalar tree_4_3_u08_r8_network.node[11].content_store 	decision_ratio[11] 	0.016064101571572
scalar tree_4_3_u08_r8_network.node[12].core_layer 	interests[12] 	8856
scalar tree_4_3_u08_r8_network.node[12].core_layer 	data[12] 	8647
scalar tree_4_3_u08_r8_network.node[12].content_store 	p_hit[12] 	0.023599819331527
scalar tree_4_3_u08_r8_network.node[12].content_store 	hits[12] 	209
scalar tree_4_3_u08_r8_network.node[12].content_store 	misses[12] 	8647
scalar tree_4_3_u08_r8_network.node[12].content_store 	decision_yes[12] 	79
scalar tree_4_3_u08_r8_network.node[12].content_store 	decision_no[12] 	8568
scalar tree_4_3_u08_r8_network.node[12].content_store 	decision_ratio[12] 	0.0091361165722216
scalar tree_4_3_u08_r8_network.node[13].core_layer 	interests[13] 	11986
scalar tree_4_3_u08_r8_network.node[13].core_layer 	data[13] 	8812
scalar tree_4_3_u08_r8_network.node[13].content_store 	p_hit[13] 	0.26480894376773
scalar tree_4_3_u08_r8_network.node[13].content_store 	hits[13] 	3174
scalar tree_4_3_u08_r8_network.node[13].content_store 	misses[13] 	8812
scalar tree_4_3_u08_r8_network.node[13].content_store 	decision_yes[13] 	329
scalar tree_4_3_u08_r8_network.node[13].content_store 	decision_no[13] 	8483
scalar tree_4_3_u08_r8_network.node[13].content_store 	decision_ratio[13] 	0.037335451656832
scalar tree_4_3_u08_r8_network.node[14].core_layer 	interests[14] 	11903
scalar tree_4_3_u08_r8_network.node[14].core_layer 	data[14] 	8817
scalar tree_4_3_u08_r8_network.node[14].content_store 	p_hit[14] 	0.25926237083088
scalar tree_4_3_u08_r8_network.node[14].content_store 	hits[14] 	3086
scalar tree_4_3_u08_r8_network.node[14].content_store 	misses[14] 	8817
scalar tree_4_3_u08_r8_network.node[14].content_store 	decision_yes[14] 	338
scalar tree_4_3_u08_r8_network.node[14].content_store 	decision_no[14] 	8479
scalar tree_4_3_u08_r8_network.node[14].content_store 	decision_ratio[14] 	0.038335034592265
scalar tree_4_3_u08_r8_network.node[15].core_layer 	interests[15] 	11906
scalar tree_4_3_u08_r8_network.node[15].core_layer 	data[15] 	8726
scalar tree_4_3_u08_r8_network.node[15].content_store 	p_hit[15] 	0.26709222240887
scalar tree_4_3_u08_r8_network.node[15].content_store 	hits[15] 	3180
scalar tree_4_3_u08_r8_network.node[15].content_store 	misses[15] 	8726
scalar tree_4_3_u08_r8_network.node[15].content_store 	decision_yes[15] 	336
scalar tree_4_3_u08_r8_network.node[15].content_store 	decision_no[15] 	8390
scalar tree_4_3_u08_r8_network.node[15].content_store 	decision_ratio[15] 	0.038505615402246
scalar tree_4_3_u08_r8_network.node[16].core_layer 	interests[16] 	12067
scalar tree_4_3_u08_r8_network.node[16].core_layer 	data[16] 	8862
scalar tree_4_3_u08_r8_network.node[16].content_store 	p_hit[16] 	0.26560039777907
scalar tree_4_3_u08_r8_network.node[16].content_store 	hits[16] 	3205
scalar tree_4_3_u08_r8_network.node[16].content_store 	misses[16] 	8862
scalar tree_4_3_u08_r8_network.node[16].content_store 	decision_yes[16] 	337
scalar tree_4_3_u08_r8_network.node[16].content_store 	decision_no[16] 	8525
scalar tree_4_3_u08_r8_network.node[16].content_store 	decision_ratio[16] 	0.038027533288197
scalar tree_4_3_u08_r8_network.node[17].core_layer 	interests[17] 	12163
scalar tree_4_3_u08_r8_network.node[17].core_layer 	data[17] 	8826
scalar tree_4_3_u08_r8_network.node[17].content_store 	p_hit[17] 	0.2743566554304
scalar tree_4_3_u08_r8_network.node[17].content_store 	hits[17] 	3337
scalar tree_4_3_u08_r8_network.node[17].content_store 	misses[17] 	8826
scalar tree_4_3_u08_r8_network.node[17].content_store 	decision_yes[17] 	306
scalar tree_4_3_u08_r8_network.node[17].content_store 	decision_no[17] 	8520
scalar tree_4_3_u08_r8_network.node[17].content_store 	decision_ratio[17] 	0.034670292318151
scalar tree_4_3_u08_r8_network.node[18].core_layer 	interests[18] 	11872
scalar tree_4_3_u08_r8_network.node[18].core_layer 	data[18] 	8662
scalar tree_4_3_u08_r8_network.node[18].content_store 	p_hit[18] 	0.27038409703504
scalar tree_4_3_u08_r8_network.node[18].content_store 	hits[18] 	3210
scalar tree_4_3_u08_r8_network.node[18].content_store 	misses[18] 	8662
scalar tree_4_3_u08_r8_network.node[18].content_store 	decision_yes[18] 	298
scalar tree_4_3_u08_r8_network.node[18].content_store 	decision_no[18] 	8364
scalar tree_4_3_u08_r8_network.node[18].content_store 	decision_ratio[18] 	0.03440314015239
scalar tree_4_3_u08_r8_network.node[19].core_layer 	interests[19] 	11849
scalar tree_4_3_u08_r8_network.node[19].core_layer 	data[19] 	8706
scalar tree_4_3_u08_r8_network.node[19].content_store 	p_hit[19] 	0.2653388471601
scalar tree_4_3_u08_r8_network.node[19].content_store 	hits[19] 	3144
scalar tree_4_3_u08_r8_network.node[19].content_store 	misses[19] 	8705
scalar tree_4_3_u08_r8_network.node[19].content_store 	decision_yes[19] 	331
scalar tree_4_3_u08_r8_network.node[19].content_store 	decision_no[19] 	8375
scalar tree_4_3_u08_r8_network.node[19].content_store 	decision_ratio[19] 	0.038019756489777
scalar tree_4_3_u08_r8_network.node[20].core_layer 	interests[20] 	12037
scalar tree_4_3_u08_r8_network.node[20].core_layer 	data[20] 	8921
scalar tree_4_3_u08_r8_network.node[20].content_store 	p_hit[20] 	0.25886848882612
scalar tree_4_3_u08_r8_network.node[20].content_store 	hits[20] 	3116
scalar tree_4_3_u08_r8_network.node[20].content_store 	misses[20] 	8921
scalar tree_4_3_u08_r8_network.node[20].content_store 	decision_yes[20] 	311
scalar tree_4_3_u08_r8_network.node[20].content_store 	decision_no[20] 	8610
scalar tree_4_3_u08_r8_network.node[20].content_store 	decision_ratio[20] 	0.034861562605089
scalar tree_4_3_u08_r8_network.node[21].core_layer 	interests[21] 	12176
scalar tree_4_3_u08_r8_network.node[21].core_layer 	data[21] 	8912
scalar tree_4_3_u08_r8_network.node[21].content_store 	p_hit[21] 	0.26806833114323
scalar tree_4_3_u08_r8_network.node[21].content_store 	hits[21] 	3264
scalar tree_4_3_u08_r8_network.node[21].content_store 	misses[21] 	8912
scalar tree_4_3_u08_r8_network.node[21].content_store 	decision_yes[21] 	272
scalar tree_4_3_u08_r8_network.node[21].content_store 	decision_no[21] 	8640
scalar tree_4_3_u08_r8_network.node[21].content_store 	decision_ratio[21] 	0.030520646319569
scalar tree_4_3_u08_r8_network.node[22].core_layer 	interests[22] 	12082
scalar tree_4_3_u08_r8_network.node[22].core_layer 	data[22] 	8899
scalar tree_4_3_u08_r8_network.node[22].content_store 	p_hit[22] 	0.26344975997351
scalar tree_4_3_u08_r8_network.node[22].content_store 	hits[22] 	3183
scalar tree_4_3_u08_r8_network.node[22].content_store 	misses[22] 	8899
scalar tree_4_3_u08_r8_network.node[22].content_store 	decision_yes[22] 	343
scalar tree_4_3_u08_r8_network.node[22].content_store 	decision_no[22] 	8556
scalar tree_4_3_u08_r8_network.node[22].content_store 	decision_ratio[22] 	0.038543656590628
scalar tree_4_3_u08_r8_network.node[23].core_layer 	interests[23] 	11999
scalar tree_4_3_u08_r8_network.node[23].core_layer 	data[23] 	8721
scalar tree_4_3_u08_r8_network.node[23].content_store 	p_hit[23] 	0.2731894324527
scalar tree_4_3_u08_r8_network.node[23].content_store 	hits[23] 	3278
scalar tree_4_3_u08_r8_network.node[23].content_store 	misses[23] 	8721
scalar tree_4_3_u08_r8_network.node[23].content_store 	decision_yes[23] 	344
scalar tree_4_3_u08_r8_network.node[23].content_store 	decision_no[23] 	8377
scalar tree_4_3_u08_r8_network.node[23].content_store 	decision_ratio[23] 	0.039445017773191
scalar tree_4_3_u08_r8_network.node[24].core_layer 	interests[24] 	12077
scalar tree_4_3_u08_r8_network.node[24].core_layer 	data[24] 	8908
scalar tree_4_3_u08_r8_network.node[24].content_store 	p_hit[24] 	0.2623996025503
scalar tree_4_3_u08_r8_network.node[24].content_store 	hits[24] 	3169
scalar tree_4_3_u08_r8_network.node[24].content_store 	misses[24] 	8908
scalar tree_4_3_u08_r8_network.node[24].content_store 	decision_yes[24] 	340
scalar tree_4_3_u08_r8_network.node[24].content_store 	decision_no[24] 	8568
scalar tree_4_3_u08_r8_network.node[24].content_store 	decision_ratio[24] 	0.038167938931298
scalar tree_4_3_u08_r8_network.node[25].core_layer 	interests[25] 	12165
scalar tree_4_3_u08_r8_network.node[25].core_layer 	data[25] 	8922
scalar tree_4_3_u08_r8_network.node[25].content_store 	p_hit[25] 	0.26650226058364
scalar tree_4_3_u08_r8_network.node[25].content_store 	hits[25] 	3242
scalar tree_4_3_u08_r8_network.node[25].content_store 	misses[25] 	8923
scalar tree_4_3_u08_r8_network.node[25].content_store 	decision_yes[25] 	305
scalar tree_4_3_u08_r8_network.node[25].content_store 	decision_no[25] 	8617
scalar tree_4_3_u08_r8_network.node[25].content_store 	decision_ratio[25] 	0.034185160277965
scalar tree_4_3_u08_r8_network.node[26].core_layer 	interests[26] 	12019
scalar tree_4_3_u08_r8_network.node[26].core_layer 	data[26] 	8921
scalar tree_4_3_u08_r8_network.node[26].content_store 	p_hit[26] 	0.25767534736667
scalar tree_4_3_u08_r8_network.node[26].content_store 	hits[26] 	3097
scalar tree_4_3_u08_r8_network.node[26].content_store 	misses[26] 	8922
scalar tree_4_3_u08_r8_network.node[26].content_store 	decision_yes[26] 	271
scalar tree_4_3_u08_r8_network.node[26].content_store 	decision_no[26] 	8650
scalar tree_4_3_u08_r8_network.node[26].content_store 	decision_ratio[26] 	0.030377760340769
scalar tree_4_3_u08_r8_network.node[27].core_layer 	interests[27] 	12013
scalar tree_4_3_u08_r8_network.node[27].core_layer 	data[27] 	8712
scalar tree_4_3_u08_r8_network.node[27].content_store 	p_hit[27] 	0.27478564888038
scalar tree_4_3_u08_r8_network.node[27].content_store 	hits[27] 	3301
scalar tree_4_3_u08_r8_network.node[27].content_store 	misses[27] 	8712
scalar tree_4_3_u08_r8_network.node[27].content_store 	decision_yes[27] 	244
scalar tree_4_3_u08_r8_network.node[27].content_store 	decision_no[27] 	8468
scalar tree_4_3_u08_r8_network.node[27].content_store 	decision_ratio[27] 	0.028007346189164
scalar tree_4_3_u08_r8_network.node[28].core_layer 	interests[28] 	11971
scalar tree_4_3_u08_r8_network.node[28].core_layer 	data[28] 	8834
scalar tree_4_3_u08_r8_network.node[28].content_store 	p_hit[28] 	0.26204995405563
scalar tree_4_3_u08_r8_network.node[28].content_store 	hits[28] 	3137
scalar tree_4_3_u08_r8_network.node[28].content_store 	misses[28] 	8834
scalar tree_4_3_u08_r8_network.node[28].content_store 	decision_yes[28] 	328
scalar tree_4_3_u08_r8_network.node[28].content_store 	decision_no[28] 	8506
scalar tree_4_3_u08_r8_network.node[28].content_store 	decision_ratio[28] 	0.037129273262395
scalar tree_4_3_u08_r8_network.node[29].core_layer 	interests[29] 	11907
scalar tree_4_3_u08_r8_network.node[29].core_layer 	data[29] 	8758
scalar tree_4_3_u08_r8_network.node[29].content_store 	p_hit[29] 	0.2644662803393
scalar tree_4_3_u08_r8_network.node[29].content_store 	hits[29] 	3149
scalar tree_4_3_u08_r8_network.node[29].content_store 	misses[29] 	8758
scalar tree_4_3_u08_r8_network.node[29].content_store 	decision_yes[29] 	249
scalar tree_4_3_u08_r8_network.node[29].content_store 	decision_no[29] 	8509
scalar tree_4_3_u08_r8_network.node[29].content_store 	decision_ratio[29] 	0.028431148664079
scalar tree_4_3_u08_r8_network.node[30].core_layer 	interests[30] 	11983
scalar tree_4_3_u08_r8_network.node[30].core_layer 	data[30] 	8799
scalar tree_4_3_u08_r8_network.node[30].content_store 	p_hit[30] 	0.26570975548694
scalar tree_4_3_u08_r8_network.node[30].content_store 	hits[30] 	3184
scalar tree_4_3_u08_r8_network.node[30].content_store 	misses[30] 	8799
scalar tree_4_3_u08_r8_network.node[30].content_store 	decision_yes[30] 	254
scalar tree_4_3_u08_r8_network.node[30].content_store 	decision_no[30] 	8545
scalar tree_4_3_u08_r8_network.node[30].content_store 	decision_ratio[30] 	0.028866916695079
scalar tree_4_3_u08_r8_network.node[31].core_layer 	interests[31] 	11968
scalar tree_4_3_u08_r8_network.node[31].core_layer 	data[31] 	8716
scalar tree_4_3_u08_r8_network.node[31].content_store 	p_hit[31] 	0.27189171122995
scalar tree_4_3_u08_r8_network.node[31].content_store 	hits[31] 	3254
scalar tree_4_3_u08_r8_network.node[31].content_store 	misses[31] 	8714
scalar tree_4_3_u08_r8_network.node[31].content_store 	decision_yes[31] 	322
scalar tree_4_3_u08_r8_network.node[31].content_store 	decision_no[31] 	8394
scalar tree_4_3_u08_r8_network.node[31].content_store 	decision_ratio[31] 	0.036943552088114
scalar tree_4_3_u08_r8_network.node[32].core_layer 	interests[32] 	11944
scalar tree_4_3_u08_r8_network.node[32].core_layer 	data[32] 	8698
scalar tree_4_3_u08_r8_network.node[32].content_store 	p_hit[32] 	0.27185197588747
scalar tree_4_3_u08_r8_network.node[32].content_store 	hits[32] 	3247
scalar tree_4_3_u08_r8_network.node[32].content_store 	misses[32] 	8697
scalar tree_4_3_u08_r8_network.node[32].content_store 	decision_yes[32] 	324
scalar tree_4_3_u08_r8_network.node[32].content_store 	decision_no[32] 	8374
scalar tree_4_3_u08_r8_network.node[32].content_store 	decision_ratio[32] 	0.037249942515521
scalar tree_4_3_u08_r8_network.node[33].core_layer 	interests[33] 	11996
scalar tree_4_3_u08_r8_network.node[33].core_layer 	data[33] 	8701
scalar tree_4_3_u08_r8_network.node[33].content_store 	p_hit[33] 	0.27467489163054
scalar tree_4_3_u08_r8_network.node[33].content_store 	hits[33] 	3295
scalar tree_4_3_u08_r8_network.node[33].content_store 	misses[33] 	8701
scalar tree_4_3_u08_r8_network.node[33].content_store 	decision_yes[33] 	332
scalar tree_4_3_u08_r8_network.node[33].content_store 	decision_no[33] 	8369
scalar tree_4_3_u08_r8_network.node[33].content_store 	decision_ratio[33] 	0.038156533731755
scalar tree_4_3_u08_r8_network.node[34].core_layer 	interests[34] 	12116
scalar tree_4_3_u08_r8_network.node[34].core_layer 	data[34] 	8808
scalar tree_4_3_u08_r8_network.node[34].content_store 	p_hit[34] 	0.27286233080224
scalar tree_4_3_u08_r8_network.node[34].content_store 	hits[34] 	3306
scalar tree_4_3_u08_r8_network.node[34].content_store 	misses[34] 	8810
scalar tree_4_3_u08_r8_network.node[34].content_store 	decision_yes[34] 	331
scalar tree_4_3_u08_r8_network.node[34].content_store 	decision_no[34] 	8477
scalar tree_4_3_u08_r8_network.node[34].content_store 	decision_ratio[34] 	0.037579473206176
scalar tree_4_3_u08_r8_network.node[35].core_layer 	interests[35] 	12061
scalar tree_4_3_u08_r8_network.node[35].core_layer 	data[35] 	8805
scalar tree_4_3_u08_r8_network.node[35].content_store 	p_hit[35] 	0.2699610314236
scalar tree_4_3_u08_r8_network.node[35].content_store 	hits[35] 	3256
scalar tree_4_3_u08_r8_network.node[35].content_store 	misses[35] 	8805
scalar tree_4_3_u08_r8_network.node[35].content_store 	decision_yes[35] 	264
scalar tree_4_3_u08_r8_network.node[35].content_store 	decision_no[35] 	8541
scalar tree_4_3_u08_r8_network.node[35].content_store 	decision_ratio[35] 	0.029982964224872
scalar tree_4_3_u08_r8_network.node[36].core_layer 	interests[36] 	12261
scalar tree_4_3_u08_r8_network.node[36].core_layer 	data[36] 	8950
scalar tree_4_3_u08_r8_network.node[36].content_store 	p_hit[36] 	0.2700432264905
scalar tree_4_3_u08_r8_network.node[36].content_store 	hits[36] 	3311
scalar tree_4_3_u08_r8_network.node[36].content_store 	misses[36] 	8950
scalar tree_4_3_u08_r8_network.node[36].content_store 	decision_yes[36] 	275
scalar tree_4_3_u08_r8_network.node[36].content_store 	decision_no[36] 	8675
scalar tree_4_3_u08_r8_network.node[36].content_store 	decision_ratio[36] 	0.03072625698324
scalar tree_4_3_u08_r8_network.node[37].core_layer 	interests[37] 	12014
scalar tree_4_3_u08_r8_network.node[37].core_layer 	data[37] 	8794
scalar tree_4_3_u08_r8_network.node[37].content_store 	p_hit[37] 	0.26802064258365
scalar tree_4_3_u08_r8_network.node[37].content_store 	hits[37] 	3220
scalar tree_4_3_u08_r8_network.node[37].content_store 	misses[37] 	8794
scalar tree_4_3_u08_r8_network.node[37].content_store 	decision_yes[37] 	343
scalar tree_4_3_u08_r8_network.node[37].content_store 	decision_no[37] 	8451
scalar tree_4_3_u08_r8_network.node[37].content_store 	decision_ratio[37] 	0.039003866272458
scalar tree_4_3_u08_r8_network.node[38].core_layer 	interests[38] 	11948
scalar tree_4_3_u08_r8_network.node[38].core_layer 	data[38] 	8861
scalar tree_4_3_u08_r8_network.node[38].content_store 	p_hit[38] 	0.25836960160696
scalar tree_4_3_u08_r8_network.node[38].content_store 	hits[38] 	3087
scalar tree_4_3_u08_r8_network.node[38].content_store 	misses[38] 	8861
scalar tree_4_3_u08_r8_network.node[38].content_store 	decision_yes[38] 	243
scalar tree_4_3_u08_r8_network.node[38].content_store 	decision_no[38] 	8618
scalar tree_4_3_u08_r8_network.node[38].content_store 	decision_ratio[38] 	0.02742354136102
scalar tree_4_3_u08_r8_network.node[39].core_layer 	interests[39] 	12060
scalar tree_4_3_u08_r8_network.node[39].core_layer 	data[39] 	8856
scalar tree_4_3_u08_r8_network.node[39].content_store 	p_hit[39] 	0.26567164179104
scalar tree_4_3_u08_r8_network.node[39].content_store 	hits[39] 	3204
scalar tree_4_3_u08_r8_network.node[39].content_store 	misses[39] 	8856
scalar tree_4_3_u08_r8_network.node[39].content_store 	decision_yes[39] 	209
scalar tree_4_3_u08_r8_network.node[39].content_store 	decision_no[39] 	8647
scalar tree_4_3_u08_r8_network.node[39].content_store 	decision_ratio[39] 	0.023599819331527
scalar tree_4_3_u08_r8_network.client[13] 	hdistance[13] 	2.8233772734857
scalar tree_4_3_u08_r8_network.client[13] 	downloads[13] 	11986
scalar tree_4_3_u08_r8_network.client[13] 	avg_time[13] 	0.004272982132
scalar tree_4_3_u08_r8_network.client[14] 	hdistance[14] 	2.841720574645
scalar tree_4_3_u08_r8_network.client[14] 	downloads[14] 	11903
scalar tree_4_3_u08_r8_network.client[14] 	avg_time[14] 	0.004300593518
scalar tree_4_3_u08_r8_network.client[15] 	hdistance[15] 	2.8141273307576
scalar tree_4_3_u08_r8_network.client[15] 	downloads[15] 	11906
scalar tree_4_3_u08_r8_network.client[15] 	avg_time[15] 	0.004260029796
scalar tree_4_3_u08_r8_network.client[16] 	hdistance[16] 	2.8210822905445
scalar tree_4_3_u08_r8_network.client[16] 	downloads[16] 	12067
scalar tree_4_3_u08_r8_network.client[16] 	avg_time[16] 	0.004270267796
scalar tree_4_3_u08_r8_network.client[17] 	hdistance[17] 	2.7868124640303
scalar tree_4_3_u08_r8_network.client[17] 	downloads[17] 	12163
scalar tree_4_3_u08_r8_network.client[17] 	avg_time[17] 	0.004219350755
scalar tree_4_3_u08_r8_network.client[18] 	hdistance[18] 	2.8061826145553
scalar tree_4_3_u08_r8_network.client[18] 	downloads[18] 	11872
scalar tree_4_3_u08_r8_network.client[18] 	avg_time[18] 	0.00424648368
scalar tree_4_3_u08_r8_network.client[19] 	hdistance[19] 	2.8182278481013
scalar tree_4_3_u08_r8_network.client[19] 	downloads[19] 	11850
scalar tree_4_3_u08_r8_network.client[19] 	avg_time[19] 	0.004265651047
scalar tree_4_3_u08_r8_network.client[20] 	hdistance[20] 	2.8456426019772
scalar tree_4_3_u08_r8_network.client[20] 	downloads[20] 	12037
scalar tree_4_3_u08_r8_network.client[20] 	avg_time[20] 	0.004308545643
scalar tree_4_3_u08_r8_network.client[21] 	hdistance[21] 	2.814635348226
scalar tree_4_3_u08_r8_network.client[21] 	downloads[21] 	12176
scalar tree_4_3_u08_r8_network.client[21] 	avg_time[21] 	0.004262582116
scalar tree_4_3_u08_r8_network.client[22] 	hdistance[22] 	2.8281741433538
scalar tree_4_3_u08_r8_network.client[22] 	downloads[22] 	12082
scalar tree_4_3_u08_r8_network.client[22] 	avg_time[22] 	0.004280248567
scalar tree_4_3_u08_r8_network.client[23] 	hdistance[23] 	2.7860655054588
scalar tree_4_3_u08_r8_network.client[23] 	downloads[23] 	11999
scalar tree_4_3_u08_r8_network.client[23] 	avg_time[23] 	0.004218743844
scalar tree_4_3_u08_r8_network.client[24] 	hdistance[24] 	2.8317462946096
scalar tree_4_3_u08_r8_network.client[24] 	downloads[24] 	12077
scalar tree_4_3_u08_r8_network.client[24] 	avg_time[24] 	0.004285428815
scalar tree_4_3_u08_r8_network.client[25] 	hdistance[25] 	2.8244820782637
scalar tree_4_3_u08_r8_network.client[25] 	downloads[25] 	12164
scalar tree_4_3_u08_r8_network.client[25] 	avg_time[25] 	0.00427178254
scalar tree_4_3_u08_r8_network.client[26] 	hdistance[26] 	2.870777167582
scalar tree_4_3_u08_r8_network.client[26] 	downloads[26] 	12018
scalar tree_4_3_u08_r8_network.client[26] 	avg_time[26] 	0.004340486249
scalar tree_4_3_u08_r8_network.client[27] 	hdistance[27] 	2.8102888537418
scalar tree_4_3_u08_r8_network.client[27] 	downloads[27] 	12013
scalar tree_4_3_u08_r8_network.client[27] 	avg_time[27] 	0.004248727514
scalar tree_4_3_u08_r8_network.client[28] 	hdistance[28] 	2.8309247347757
scalar tree_4_3_u08_r8_network.client[28] 	downloads[28] 	11971
scalar tree_4_3_u08_r8_network.client[28] 	avg_time[28] 	0.004287525163
scalar tree_4_3_u08_r8_network.client[29] 	hdistance[29] 	2.8516838834299
scalar tree_4_3_u08_r8_network.client[29] 	downloads[29] 	11907
scalar tree_4_3_u08_r8_network.client[29] 	avg_time[29] 	0.004308387039
scalar tree_4_3_u08_r8_network.client[30] 	hdistance[30] 	2.8287574063256
scalar tree_4_3_u08_r8_network.client[30] 	downloads[30] 	11983
scalar tree_4_3_u08_r8_network.client[30] 	avg_time[30] 	0.004284066099
scalar tree_4_3_u08_r8_network.client[31] 	hdistance[31] 	2.7990810359231
scalar tree_4_3_u08_r8_network.client[31] 	downloads[31] 	11970
scalar tree_4_3_u08_r8_network.client[31] 	avg_time[31] 	0.00423541889
scalar tree_4_3_u08_r8_network.client[32] 	hdistance[32] 	2.7975722059439
scalar tree_4_3_u08_r8_network.client[32] 	downloads[32] 	11945
scalar tree_4_3_u08_r8_network.client[32] 	avg_time[32] 	0.004234069876
scalar tree_4_3_u08_r8_network.client[33] 	hdistance[33] 	2.788846282094
scalar tree_4_3_u08_r8_network.client[33] 	downloads[33] 	11996
scalar tree_4_3_u08_r8_network.client[33] 	avg_time[33] 	0.004217569524
scalar tree_4_3_u08_r8_network.client[34] 	hdistance[34] 	2.7915634802708
scalar tree_4_3_u08_r8_network.client[34] 	downloads[34] 	12114
scalar tree_4_3_u08_r8_network.client[34] 	avg_time[34] 	0.00422493092
scalar tree_4_3_u08_r8_network.client[35] 	hdistance[35] 	2.8273774977199
scalar tree_4_3_u08_r8_network.client[35] 	downloads[35] 	12061
scalar tree_4_3_u08_r8_network.client[35] 	avg_time[35] 	0.004272092364
scalar tree_4_3_u08_r8_network.client[36] 	hdistance[36] 	2.8241578990295
scalar tree_4_3_u08_r8_network.client[36] 	downloads[36] 	12261
scalar tree_4_3_u08_r8_network.client[36] 	avg_time[36] 	0.004268490522
scalar tree_4_3_u08_r8_network.client[37] 	hdistance[37] 	2.804894289995
scalar tree_4_3_u08_r8_network.client[37] 	downloads[37] 	12014
scalar tree_4_3_u08_r8_network.client[37] 	avg_time[37] 	0.004247541526
scalar tree_4_3_u08_r8_network.client[38] 	hdistance[38] 	2.8706059591563
scalar tree_4_3_u08_r8_network.client[38] 	downloads[38] 	11948
scalar tree_4_3_u08_r8_network.client[38] 	avg_time[38] 	0.004341811535
scalar tree_4_3_u08_r8_network.client[39] 	hdistance[39] 	2.865671641791
scalar tree_4_3_u08_r8_network.client[39] 	downloads[39] 	12060
scalar tree_4_3_u08_r8_network.client[39] 	avg_time[39] 	0.004323545899
