version 2
run General-166-20160820-10:43:49-856
attr a 0.9
attr cd lcd
attr configname General
attr cr lru
attr datetime 20160820-10:43:49
attr experiment General
attr fsize 1
attr inifile hw5115/scenario_A/SPR-LCD.ini
attr iterationvars "$name=tree_4_3, $un=08, $rep=7, $cd=lcd, $cr=lru, $fsize=1, $a=0.9, $sl=spr, $ttl=1000, $variance=0.05"
attr iterationvars2 "$name=tree_4_3, $un=08, $rep=7, $cd=lcd, $cr=lru, $fsize=1, $a=0.9, $sl=spr, $ttl=1000, $variance=0.05, $repetition=0"
attr measurement "$name=tree_4_3, $un=08, $rep=7, $cd=lcd, $cr=lru, $fsize=1, $a=0.9, $sl=spr, $ttl=1000, $variance=0.05"
attr name tree_4_3
attr network networks.${name}_u${un}_r${rep}_network
attr processid 856
attr rep 7
attr repetition 0
attr replication #0
attr resultdir results
attr runnumber 166
attr seedset 7
attr sl spr
attr ttl 1000
attr un 08
attr variance 0.05

scalar . 	a 	0.9
scalar . 	fsize 	1
scalar . 	rep 	7
scalar . 	ttl 	1000
scalar . 	un 	08
scalar . 	variance 	0.05
scalar tree_4_3_u08_r7_network.content_distribution 	repo-0 	0
scalar tree_4_3_u08_r7_network.content_distribution 	client-0 	13
scalar tree_4_3_u08_r7_network.content_distribution 	client-1 	14
scalar tree_4_3_u08_r7_network.content_distribution 	client-2 	15
scalar tree_4_3_u08_r7_network.content_distribution 	client-3 	16
scalar tree_4_3_u08_r7_network.content_distribution 	client-4 	17
scalar tree_4_3_u08_r7_network.content_distribution 	client-5 	18
scalar tree_4_3_u08_r7_network.content_distribution 	client-6 	19
scalar tree_4_3_u08_r7_network.content_distribution 	client-7 	20
scalar tree_4_3_u08_r7_network.content_distribution 	client-8 	21
scalar tree_4_3_u08_r7_network.content_distribution 	client-9 	22
scalar tree_4_3_u08_r7_network.content_distribution 	client-10 	23
scalar tree_4_3_u08_r7_network.content_distribution 	client-11 	24
scalar tree_4_3_u08_r7_network.content_distribution 	client-12 	25
scalar tree_4_3_u08_r7_network.content_distribution 	client-13 	26
scalar tree_4_3_u08_r7_network.content_distribution 	client-14 	27
scalar tree_4_3_u08_r7_network.content_distribution 	client-15 	28
scalar tree_4_3_u08_r7_network.content_distribution 	client-16 	29
scalar tree_4_3_u08_r7_network.content_distribution 	client-17 	30
scalar tree_4_3_u08_r7_network.content_distribution 	client-18 	31
scalar tree_4_3_u08_r7_network.content_distribution 	client-19 	32
scalar tree_4_3_u08_r7_network.content_distribution 	client-20 	33
scalar tree_4_3_u08_r7_network.content_distribution 	client-21 	34
scalar tree_4_3_u08_r7_network.content_distribution 	client-22 	35
scalar tree_4_3_u08_r7_network.content_distribution 	client-23 	36
scalar tree_4_3_u08_r7_network.content_distribution 	client-24 	37
scalar tree_4_3_u08_r7_network.content_distribution 	client-25 	38
scalar tree_4_3_u08_r7_network.content_distribution 	client-26 	39
scalar tree_4_3_u08_r7_network.content_distribution 	repo-0_card 	100000
scalar tree_4_3_u08_r7_network.content_distribution 	repo-0_price 	0
scalar tree_4_3_u08_r7_network.statistics 	stabilization_time 	1866.9
scalar tree_4_3_u08_r7_network.statistics 	p_hit 	0.1889425307488
scalar tree_4_3_u08_r7_network.statistics 	interests 	25422.225
scalar tree_4_3_u08_r7_network.statistics 	data 	17313.8
scalar tree_4_3_u08_r7_network.statistics 	hdistance 	2.823301376254
scalar tree_4_3_u08_r7_network.statistics 	avg_time 	0.004270648579
scalar tree_4_3_u08_r7_network.statistics 	downloads 	324329
scalar tree_4_3_u08_r7_network.statistics 	total_cost 	0
scalar tree_4_3_u08_r7_network.statistics 	total_replicas 	100000
scalar tree_4_3_u08_r7_network.statistics 	inner_hit 	0.31207816753975
scalar tree_4_3_u08_r7_network.node[0].core_layer 	interests[0] 	225347
scalar tree_4_3_u08_r7_network.node[0].core_layer 	repo_load[0] 	223113
scalar tree_4_3_u08_r7_network.node[0].core_layer 	data[0] 	0
scalar tree_4_3_u08_r7_network.node[0].core_layer 	repo_int[0] 	223113
scalar tree_4_3_u08_r7_network.node[0].content_store 	p_hit[0] 	0.0099135999147981
scalar tree_4_3_u08_r7_network.node[0].content_store 	hits[0] 	2234
scalar tree_4_3_u08_r7_network.node[0].content_store 	misses[0] 	223113
scalar tree_4_3_u08_r7_network.node[0].content_store 	decision_yes[0] 	223113
scalar tree_4_3_u08_r7_network.node[0].content_store 	decision_no[0] 	0
scalar tree_4_3_u08_r7_network.node[0].content_store 	decision_ratio[0] 	1
scalar tree_4_3_u08_r7_network.node[1].core_layer 	interests[1] 	160949
scalar tree_4_3_u08_r7_network.node[1].core_layer 	data[1] 	157657
scalar tree_4_3_u08_r7_network.node[1].content_store 	p_hit[1] 	0.02039155260362
scalar tree_4_3_u08_r7_network.node[1].content_store 	hits[1] 	3282
scalar tree_4_3_u08_r7_network.node[1].content_store 	misses[1] 	157667
scalar tree_4_3_u08_r7_network.node[1].content_store 	decision_yes[1] 	1576
scalar tree_4_3_u08_r7_network.node[1].content_store 	decision_no[1] 	156081
scalar tree_4_3_u08_r7_network.node[1].content_store 	decision_ratio[1] 	0.009996384556347
scalar tree_4_3_u08_r7_network.node[2].core_layer 	interests[2] 	51457
scalar tree_4_3_u08_r7_network.node[2].core_layer 	data[2] 	50631
scalar tree_4_3_u08_r7_network.node[2].content_store 	p_hit[2] 	0.016032804088851
scalar tree_4_3_u08_r7_network.node[2].content_store 	hits[2] 	825
scalar tree_4_3_u08_r7_network.node[2].content_store 	misses[2] 	50632
scalar tree_4_3_u08_r7_network.node[2].content_store 	decision_yes[2] 	481
scalar tree_4_3_u08_r7_network.node[2].content_store 	decision_no[2] 	50150
scalar tree_4_3_u08_r7_network.node[2].content_store 	decision_ratio[2] 	0.0095001086291007
scalar tree_4_3_u08_r7_network.node[3].core_layer 	interests[3] 	17226
scalar tree_4_3_u08_r7_network.node[3].core_layer 	data[3] 	17058
scalar tree_4_3_u08_r7_network.node[3].content_store 	p_hit[3] 	0.0097526994078718
scalar tree_4_3_u08_r7_network.node[3].content_store 	hits[3] 	168
scalar tree_4_3_u08_r7_network.node[3].content_store 	misses[3] 	17058
scalar tree_4_3_u08_r7_network.node[3].content_store 	decision_yes[3] 	177
scalar tree_4_3_u08_r7_network.node[3].content_store 	decision_no[3] 	16881
scalar tree_4_3_u08_r7_network.node[3].content_store 	decision_ratio[3] 	0.010376362996834
scalar tree_4_3_u08_r7_network.node[4].core_layer 	interests[4] 	43905
scalar tree_4_3_u08_r7_network.node[4].core_layer 	data[4] 	42305
scalar tree_4_3_u08_r7_network.node[4].content_store 	p_hit[4] 	0.036419542193372
scalar tree_4_3_u08_r7_network.node[4].content_store 	hits[4] 	1599
scalar tree_4_3_u08_r7_network.node[4].content_store 	misses[4] 	42306
scalar tree_4_3_u08_r7_network.node[4].content_store 	decision_yes[4] 	809
scalar tree_4_3_u08_r7_network.node[4].content_store 	decision_no[4] 	41496
scalar tree_4_3_u08_r7_network.node[4].content_store 	decision_ratio[4] 	0.019123035102234
scalar tree_4_3_u08_r7_network.node[5].core_layer 	interests[5] 	26121
scalar tree_4_3_u08_r7_network.node[5].core_layer 	data[5] 	25168
scalar tree_4_3_u08_r7_network.node[5].content_store 	p_hit[5] 	0.036484054974924
scalar tree_4_3_u08_r7_network.node[5].content_store 	hits[5] 	953
scalar tree_4_3_u08_r7_network.node[5].content_store 	misses[5] 	25168
scalar tree_4_3_u08_r7_network.node[5].content_store 	decision_yes[5] 	587
scalar tree_4_3_u08_r7_network.node[5].content_store 	decision_no[5] 	24581
scalar tree_4_3_u08_r7_network.node[5].content_store 	decision_ratio[5] 	0.023323267641449
scalar tree_4_3_u08_r7_network.node[6].core_layer 	interests[6] 	8854
scalar tree_4_3_u08_r7_network.node[6].core_layer 	data[6] 	8601
scalar tree_4_3_u08_r7_network.node[6].content_store 	p_hit[6] 	0.028574655522927
scalar tree_4_3_u08_r7_network.node[6].content_store 	hits[6] 	253
scalar tree_4_3_u08_r7_network.node[6].content_store 	misses[6] 	8601
scalar tree_4_3_u08_r7_network.node[6].content_store 	decision_yes[6] 	236
scalar tree_4_3_u08_r7_network.node[6].content_store 	decision_no[6] 	8365
scalar tree_4_3_u08_r7_network.node[6].content_store 	decision_ratio[6] 	0.027438669922102
scalar tree_4_3_u08_r7_network.node[7].core_layer 	interests[7] 	44156
scalar tree_4_3_u08_r7_network.node[7].core_layer 	data[7] 	42533
scalar tree_4_3_u08_r7_network.node[7].content_store 	p_hit[7] 	0.036756046743364
scalar tree_4_3_u08_r7_network.node[7].content_store 	hits[7] 	1623
scalar tree_4_3_u08_r7_network.node[7].content_store 	misses[7] 	42533
scalar tree_4_3_u08_r7_network.node[7].content_store 	decision_yes[7] 	827
scalar tree_4_3_u08_r7_network.node[7].content_store 	decision_no[7] 	41706
scalar tree_4_3_u08_r7_network.node[7].content_store 	decision_ratio[7] 	0.01944372604801
scalar tree_4_3_u08_r7_network.node[8].core_layer 	interests[8] 	26426
scalar tree_4_3_u08_r7_network.node[8].core_layer 	data[8] 	25730
scalar tree_4_3_u08_r7_network.node[8].content_store 	p_hit[8] 	0.02626201468251
scalar tree_4_3_u08_r7_network.node[8].content_store 	hits[8] 	694
scalar tree_4_3_u08_r7_network.node[8].content_store 	misses[8] 	25732
scalar tree_4_3_u08_r7_network.node[8].content_store 	decision_yes[8] 	347
scalar tree_4_3_u08_r7_network.node[8].content_store 	decision_no[8] 	25383
scalar tree_4_3_u08_r7_network.node[8].content_store 	decision_ratio[8] 	0.01348620287602
scalar tree_4_3_u08_r7_network.node[9].core_layer 	interests[9] 	8716
scalar tree_4_3_u08_r7_network.node[9].core_layer 	data[9] 	8489
scalar tree_4_3_u08_r7_network.node[9].content_store 	p_hit[9] 	0.026044056906838
scalar tree_4_3_u08_r7_network.node[9].content_store 	hits[9] 	227
scalar tree_4_3_u08_r7_network.node[9].content_store 	misses[9] 	8489
scalar tree_4_3_u08_r7_network.node[9].content_store 	decision_yes[9] 	200
scalar tree_4_3_u08_r7_network.node[9].content_store 	decision_no[9] 	8289
scalar tree_4_3_u08_r7_network.node[9].content_store 	decision_ratio[9] 	0.023559901048416
scalar tree_4_3_u08_r7_network.node[10].core_layer 	interests[10] 	44047
scalar tree_4_3_u08_r7_network.node[10].core_layer 	data[10] 	42342
scalar tree_4_3_u08_r7_network.node[10].content_store 	p_hit[10] 	0.038708652121597
scalar tree_4_3_u08_r7_network.node[10].content_store 	hits[10] 	1705
scalar tree_4_3_u08_r7_network.node[10].content_store 	misses[10] 	42342
scalar tree_4_3_u08_r7_network.node[10].content_store 	decision_yes[10] 	823
scalar tree_4_3_u08_r7_network.node[10].content_store 	decision_no[10] 	41519
scalar tree_4_3_u08_r7_network.node[10].content_store 	decision_ratio[10] 	0.019436965660573
scalar tree_4_3_u08_r7_network.node[11].core_layer 	interests[11] 	17714
scalar tree_4_3_u08_r7_network.node[11].core_layer 	data[11] 	17237
scalar tree_4_3_u08_r7_network.node[11].content_store 	p_hit[11] 	0.026927853675059
scalar tree_4_3_u08_r7_network.node[11].content_store 	hits[11] 	477
scalar tree_4_3_u08_r7_network.node[11].content_store 	misses[11] 	17237
scalar tree_4_3_u08_r7_network.node[11].content_store 	decision_yes[11] 	278
scalar tree_4_3_u08_r7_network.node[11].content_store 	decision_no[11] 	16959
scalar tree_4_3_u08_r7_network.node[11].content_store 	decision_ratio[11] 	0.01612809653652
scalar tree_4_3_u08_r7_network.node[12].core_layer 	interests[12] 	17637
scalar tree_4_3_u08_r7_network.node[12].core_layer 	data[12] 	17226
scalar tree_4_3_u08_r7_network.node[12].content_store 	p_hit[12] 	0.023303282871237
scalar tree_4_3_u08_r7_network.node[12].content_store 	hits[12] 	411
scalar tree_4_3_u08_r7_network.node[12].content_store 	misses[12] 	17226
scalar tree_4_3_u08_r7_network.node[12].content_store 	decision_yes[12] 	168
scalar tree_4_3_u08_r7_network.node[12].content_store 	decision_no[12] 	17058
scalar tree_4_3_u08_r7_network.node[12].content_store 	decision_ratio[12] 	0.0097526994078718
scalar tree_4_3_u08_r7_network.node[13].core_layer 	interests[13] 	12016
scalar tree_4_3_u08_r7_network.node[13].core_layer 	data[13] 	8836
scalar tree_4_3_u08_r7_network.node[13].content_store 	p_hit[13] 	0.26456391478029
scalar tree_4_3_u08_r7_network.node[13].content_store 	hits[13] 	3179
scalar tree_4_3_u08_r7_network.node[13].content_store 	misses[13] 	8837
scalar tree_4_3_u08_r7_network.node[13].content_store 	decision_yes[13] 	325
scalar tree_4_3_u08_r7_network.node[13].content_store 	decision_no[13] 	8511
scalar tree_4_3_u08_r7_network.node[13].content_store 	decision_ratio[13] 	0.036781349026709
scalar tree_4_3_u08_r7_network.node[14].core_layer 	interests[14] 	11913
scalar tree_4_3_u08_r7_network.node[14].core_layer 	data[14] 	8776
scalar tree_4_3_u08_r7_network.node[14].content_store 	p_hit[14] 	0.26332577856124
scalar tree_4_3_u08_r7_network.node[14].content_store 	hits[14] 	3137
scalar tree_4_3_u08_r7_network.node[14].content_store 	misses[14] 	8776
scalar tree_4_3_u08_r7_network.node[14].content_store 	decision_yes[14] 	338
scalar tree_4_3_u08_r7_network.node[14].content_store 	decision_no[14] 	8438
scalar tree_4_3_u08_r7_network.node[14].content_store 	decision_ratio[14] 	0.038514129443938
scalar tree_4_3_u08_r7_network.node[15].core_layer 	interests[15] 	12105
scalar tree_4_3_u08_r7_network.node[15].core_layer 	data[15] 	8769
scalar tree_4_3_u08_r7_network.node[15].content_store 	p_hit[15] 	0.27558859975217
scalar tree_4_3_u08_r7_network.node[15].content_store 	hits[15] 	3336
scalar tree_4_3_u08_r7_network.node[15].content_store 	misses[15] 	8769
scalar tree_4_3_u08_r7_network.node[15].content_store 	decision_yes[15] 	330
scalar tree_4_3_u08_r7_network.node[15].content_store 	decision_no[15] 	8439
scalar tree_4_3_u08_r7_network.node[15].content_store 	decision_ratio[15] 	0.037632569278139
scalar tree_4_3_u08_r7_network.node[16].core_layer 	interests[16] 	11994
scalar tree_4_3_u08_r7_network.node[16].core_layer 	data[16] 	8735
scalar tree_4_3_u08_r7_network.node[16].content_store 	p_hit[16] 	0.27163581790895
scalar tree_4_3_u08_r7_network.node[16].content_store 	hits[16] 	3258
scalar tree_4_3_u08_r7_network.node[16].content_store 	misses[16] 	8736
scalar tree_4_3_u08_r7_network.node[16].content_store 	decision_yes[16] 	299
scalar tree_4_3_u08_r7_network.node[16].content_store 	decision_no[16] 	8436
scalar tree_4_3_u08_r7_network.node[16].content_store 	decision_ratio[16] 	0.034230108757871
scalar tree_4_3_u08_r7_network.node[17].core_layer 	interests[17] 	12102
scalar tree_4_3_u08_r7_network.node[17].core_layer 	data[17] 	8829
scalar tree_4_3_u08_r7_network.node[17].content_store 	p_hit[17] 	0.27045116509668
scalar tree_4_3_u08_r7_network.node[17].content_store 	hits[17] 	3273
scalar tree_4_3_u08_r7_network.node[17].content_store 	misses[17] 	8829
scalar tree_4_3_u08_r7_network.node[17].content_store 	decision_yes[17] 	301
scalar tree_4_3_u08_r7_network.node[17].content_store 	decision_no[17] 	8528
scalar tree_4_3_u08_r7_network.node[17].content_store 	decision_ratio[17] 	0.034092196171707
scalar tree_4_3_u08_r7_network.node[18].core_layer 	interests[18] 	11848
scalar tree_4_3_u08_r7_network.node[18].core_layer 	data[18] 	8613
scalar tree_4_3_u08_r7_network.node[18].content_store 	p_hit[18] 	0.27295746117488
scalar tree_4_3_u08_r7_network.node[18].content_store 	hits[18] 	3234
scalar tree_4_3_u08_r7_network.node[18].content_store 	misses[18] 	8614
scalar tree_4_3_u08_r7_network.node[18].content_store 	decision_yes[18] 	333
scalar tree_4_3_u08_r7_network.node[18].content_store 	decision_no[18] 	8280
scalar tree_4_3_u08_r7_network.node[18].content_store 	decision_ratio[18] 	0.038662486938349
scalar tree_4_3_u08_r7_network.node[19].core_layer 	interests[19] 	12013
scalar tree_4_3_u08_r7_network.node[19].core_layer 	data[19] 	8788
scalar tree_4_3_u08_r7_network.node[19].content_store 	p_hit[19] 	0.26845916923333
scalar tree_4_3_u08_r7_network.node[19].content_store 	hits[19] 	3225
scalar tree_4_3_u08_r7_network.node[19].content_store 	misses[19] 	8788
scalar tree_4_3_u08_r7_network.node[19].content_store 	decision_yes[19] 	307
scalar tree_4_3_u08_r7_network.node[19].content_store 	decision_no[19] 	8481
scalar tree_4_3_u08_r7_network.node[19].content_store 	decision_ratio[19] 	0.034934000910332
scalar tree_4_3_u08_r7_network.node[20].core_layer 	interests[20] 	11820
scalar tree_4_3_u08_r7_network.node[20].core_layer 	data[20] 	8679
scalar tree_4_3_u08_r7_network.node[20].content_store 	p_hit[20] 	0.26573604060914
scalar tree_4_3_u08_r7_network.node[20].content_store 	hits[20] 	3141
scalar tree_4_3_u08_r7_network.node[20].content_store 	misses[20] 	8679
scalar tree_4_3_u08_r7_network.node[20].content_store 	decision_yes[20] 	319
scalar tree_4_3_u08_r7_network.node[20].content_store 	decision_no[20] 	8360
scalar tree_4_3_u08_r7_network.node[20].content_store 	decision_ratio[20] 	0.036755386565272
scalar tree_4_3_u08_r7_network.node[21].core_layer 	interests[21] 	12061
scalar tree_4_3_u08_r7_network.node[21].core_layer 	data[21] 	8854
scalar tree_4_3_u08_r7_network.node[21].content_store 	p_hit[21] 	0.26589835005389
scalar tree_4_3_u08_r7_network.node[21].content_store 	hits[21] 	3207
scalar tree_4_3_u08_r7_network.node[21].content_store 	misses[21] 	8854
scalar tree_4_3_u08_r7_network.node[21].content_store 	decision_yes[21] 	253
scalar tree_4_3_u08_r7_network.node[21].content_store 	decision_no[21] 	8601
scalar tree_4_3_u08_r7_network.node[21].content_store 	decision_ratio[21] 	0.028574655522927
scalar tree_4_3_u08_r7_network.node[22].core_layer 	interests[22] 	11994
scalar tree_4_3_u08_r7_network.node[22].core_layer 	data[22] 	8752
scalar tree_4_3_u08_r7_network.node[22].content_store 	p_hit[22] 	0.27030181757545
scalar tree_4_3_u08_r7_network.node[22].content_store 	hits[22] 	3242
scalar tree_4_3_u08_r7_network.node[22].content_store 	misses[22] 	8752
scalar tree_4_3_u08_r7_network.node[22].content_store 	decision_yes[22] 	316
scalar tree_4_3_u08_r7_network.node[22].content_store 	decision_no[22] 	8436
scalar tree_4_3_u08_r7_network.node[22].content_store 	decision_ratio[22] 	0.036106032906764
scalar tree_4_3_u08_r7_network.node[23].core_layer 	interests[23] 	11833
scalar tree_4_3_u08_r7_network.node[23].core_layer 	data[23] 	8660
scalar tree_4_3_u08_r7_network.node[23].content_store 	p_hit[23] 	0.26814839854644
scalar tree_4_3_u08_r7_network.node[23].content_store 	hits[23] 	3173
scalar tree_4_3_u08_r7_network.node[23].content_store 	misses[23] 	8660
scalar tree_4_3_u08_r7_network.node[23].content_store 	decision_yes[23] 	320
scalar tree_4_3_u08_r7_network.node[23].content_store 	decision_no[23] 	8340
scalar tree_4_3_u08_r7_network.node[23].content_store 	decision_ratio[23] 	0.036951501154734
scalar tree_4_3_u08_r7_network.node[24].core_layer 	interests[24] 	12134
scalar tree_4_3_u08_r7_network.node[24].core_layer 	data[24] 	9013
scalar tree_4_3_u08_r7_network.node[24].content_store 	p_hit[24] 	0.25721114224493
scalar tree_4_3_u08_r7_network.node[24].content_store 	hits[24] 	3121
scalar tree_4_3_u08_r7_network.node[24].content_store 	misses[24] 	9013
scalar tree_4_3_u08_r7_network.node[24].content_store 	decision_yes[24] 	328
scalar tree_4_3_u08_r7_network.node[24].content_store 	decision_no[24] 	8685
scalar tree_4_3_u08_r7_network.node[24].content_store 	decision_ratio[24] 	0.03639187839787
scalar tree_4_3_u08_r7_network.node[25].core_layer 	interests[25] 	12087
scalar tree_4_3_u08_r7_network.node[25].core_layer 	data[25] 	8929
scalar tree_4_3_u08_r7_network.node[25].content_store 	p_hit[25] 	0.26127244146604
scalar tree_4_3_u08_r7_network.node[25].content_store 	hits[25] 	3158
scalar tree_4_3_u08_r7_network.node[25].content_store 	misses[25] 	8929
scalar tree_4_3_u08_r7_network.node[25].content_store 	decision_yes[25] 	323
scalar tree_4_3_u08_r7_network.node[25].content_store 	decision_no[25] 	8606
scalar tree_4_3_u08_r7_network.node[25].content_store 	decision_ratio[25] 	0.036174263635346
scalar tree_4_3_u08_r7_network.node[26].core_layer 	interests[26] 	12022
scalar tree_4_3_u08_r7_network.node[26].core_layer 	data[26] 	8797
scalar tree_4_3_u08_r7_network.node[26].content_store 	p_hit[26] 	0.26825819331226
scalar tree_4_3_u08_r7_network.node[26].content_store 	hits[26] 	3225
scalar tree_4_3_u08_r7_network.node[26].content_store 	misses[26] 	8797
scalar tree_4_3_u08_r7_network.node[26].content_store 	decision_yes[26] 	217
scalar tree_4_3_u08_r7_network.node[26].content_store 	decision_no[26] 	8580
scalar tree_4_3_u08_r7_network.node[26].content_store 	decision_ratio[26] 	0.024667500284188
scalar tree_4_3_u08_r7_network.node[27].core_layer 	interests[27] 	11918
scalar tree_4_3_u08_r7_network.node[27].core_layer 	data[27] 	8752
scalar tree_4_3_u08_r7_network.node[27].content_store 	p_hit[27] 	0.26556469206243
scalar tree_4_3_u08_r7_network.node[27].content_store 	hits[27] 	3165
scalar tree_4_3_u08_r7_network.node[27].content_store 	misses[27] 	8753
scalar tree_4_3_u08_r7_network.node[27].content_store 	decision_yes[27] 	239
scalar tree_4_3_u08_r7_network.node[27].content_store 	decision_no[27] 	8513
scalar tree_4_3_u08_r7_network.node[27].content_store 	decision_ratio[27] 	0.027308043875686
scalar tree_4_3_u08_r7_network.node[28].core_layer 	interests[28] 	11964
scalar tree_4_3_u08_r7_network.node[28].core_layer 	data[28] 	8802
scalar tree_4_3_u08_r7_network.node[28].content_store 	p_hit[28] 	0.26429287863591
scalar tree_4_3_u08_r7_network.node[28].content_store 	hits[28] 	3162
scalar tree_4_3_u08_r7_network.node[28].content_store 	misses[28] 	8802
scalar tree_4_3_u08_r7_network.node[28].content_store 	decision_yes[28] 	336
scalar tree_4_3_u08_r7_network.node[28].content_store 	decision_no[28] 	8466
scalar tree_4_3_u08_r7_network.node[28].content_store 	decision_ratio[28] 	0.038173142467621
scalar tree_4_3_u08_r7_network.node[29].core_layer 	interests[29] 	12112
scalar tree_4_3_u08_r7_network.node[29].core_layer 	data[29] 	8876
scalar tree_4_3_u08_r7_network.node[29].content_store 	p_hit[29] 	0.26717305151915
scalar tree_4_3_u08_r7_network.node[29].content_store 	hits[29] 	3236
scalar tree_4_3_u08_r7_network.node[29].content_store 	misses[29] 	8876
scalar tree_4_3_u08_r7_network.node[29].content_store 	decision_yes[29] 	238
scalar tree_4_3_u08_r7_network.node[29].content_store 	decision_no[29] 	8638
scalar tree_4_3_u08_r7_network.node[29].content_store 	decision_ratio[29] 	0.026813880126183
scalar tree_4_3_u08_r7_network.node[30].core_layer 	interests[30] 	11956
scalar tree_4_3_u08_r7_network.node[30].core_layer 	data[30] 	8716
scalar tree_4_3_u08_r7_network.node[30].content_store 	p_hit[30] 	0.2709100033456
scalar tree_4_3_u08_r7_network.node[30].content_store 	hits[30] 	3239
scalar tree_4_3_u08_r7_network.node[30].content_store 	misses[30] 	8717
scalar tree_4_3_u08_r7_network.node[30].content_store 	decision_yes[30] 	227
scalar tree_4_3_u08_r7_network.node[30].content_store 	decision_no[30] 	8489
scalar tree_4_3_u08_r7_network.node[30].content_store 	decision_ratio[30] 	0.026044056906838
scalar tree_4_3_u08_r7_network.node[31].core_layer 	interests[31] 	12011
scalar tree_4_3_u08_r7_network.node[31].core_layer 	data[31] 	8752
scalar tree_4_3_u08_r7_network.node[31].content_store 	p_hit[31] 	0.27133460994089
scalar tree_4_3_u08_r7_network.node[31].content_store 	hits[31] 	3259
scalar tree_4_3_u08_r7_network.node[31].content_store 	misses[31] 	8752
scalar tree_4_3_u08_r7_network.node[31].content_store 	decision_yes[31] 	334
scalar tree_4_3_u08_r7_network.node[31].content_store 	decision_no[31] 	8418
scalar tree_4_3_u08_r7_network.node[31].content_store 	decision_ratio[31] 	0.038162705667276
scalar tree_4_3_u08_r7_network.node[32].core_layer 	interests[32] 	11973
scalar tree_4_3_u08_r7_network.node[32].core_layer 	data[32] 	8790
scalar tree_4_3_u08_r7_network.node[32].content_store 	p_hit[32] 	0.2658481583563
scalar tree_4_3_u08_r7_network.node[32].content_store 	hits[32] 	3183
scalar tree_4_3_u08_r7_network.node[32].content_store 	misses[32] 	8790
scalar tree_4_3_u08_r7_network.node[32].content_store 	decision_yes[32] 	326
scalar tree_4_3_u08_r7_network.node[32].content_store 	decision_no[32] 	8464
scalar tree_4_3_u08_r7_network.node[32].content_store 	decision_ratio[32] 	0.037087599544937
scalar tree_4_3_u08_r7_network.node[33].core_layer 	interests[33] 	11990
scalar tree_4_3_u08_r7_network.node[33].core_layer 	data[33] 	8783
scalar tree_4_3_u08_r7_network.node[33].content_store 	p_hit[33] 	0.2675562969141
scalar tree_4_3_u08_r7_network.node[33].content_store 	hits[33] 	3208
scalar tree_4_3_u08_r7_network.node[33].content_store 	misses[33] 	8782
scalar tree_4_3_u08_r7_network.node[33].content_store 	decision_yes[33] 	355
scalar tree_4_3_u08_r7_network.node[33].content_store 	decision_no[33] 	8428
scalar tree_4_3_u08_r7_network.node[33].content_store 	decision_ratio[33] 	0.040418991233064
scalar tree_4_3_u08_r7_network.node[34].core_layer 	interests[34] 	12054
scalar tree_4_3_u08_r7_network.node[34].core_layer 	data[34] 	8822
scalar tree_4_3_u08_r7_network.node[34].content_store 	p_hit[34] 	0.26812676290028
scalar tree_4_3_u08_r7_network.node[34].content_store 	hits[34] 	3232
scalar tree_4_3_u08_r7_network.node[34].content_store 	misses[34] 	8822
scalar tree_4_3_u08_r7_network.node[34].content_store 	decision_yes[34] 	344
scalar tree_4_3_u08_r7_network.node[34].content_store 	decision_no[34] 	8478
scalar tree_4_3_u08_r7_network.node[34].content_store 	decision_ratio[34] 	0.038993425527091
scalar tree_4_3_u08_r7_network.node[35].core_layer 	interests[35] 	12064
scalar tree_4_3_u08_r7_network.node[35].core_layer 	data[35] 	8778
scalar tree_4_3_u08_r7_network.node[35].content_store 	p_hit[35] 	0.27238063660477
scalar tree_4_3_u08_r7_network.node[35].content_store 	hits[35] 	3286
scalar tree_4_3_u08_r7_network.node[35].content_store 	misses[35] 	8778
scalar tree_4_3_u08_r7_network.node[35].content_store 	decision_yes[35] 	223
scalar tree_4_3_u08_r7_network.node[35].content_store 	decision_no[35] 	8555
scalar tree_4_3_u08_r7_network.node[35].content_store 	decision_ratio[35] 	0.025404420141262
scalar tree_4_3_u08_r7_network.node[36].core_layer 	interests[36] 	12303
scalar tree_4_3_u08_r7_network.node[36].core_layer 	data[36] 	8936
scalar tree_4_3_u08_r7_network.node[36].content_store 	p_hit[36] 	0.27367308786475
scalar tree_4_3_u08_r7_network.node[36].content_store 	hits[36] 	3367
scalar tree_4_3_u08_r7_network.node[36].content_store 	misses[36] 	8936
scalar tree_4_3_u08_r7_network.node[36].content_store 	decision_yes[36] 	254
scalar tree_4_3_u08_r7_network.node[36].content_store 	decision_no[36] 	8682
scalar tree_4_3_u08_r7_network.node[36].content_store 	decision_ratio[36] 	0.028424350940018
scalar tree_4_3_u08_r7_network.node[37].core_layer 	interests[37] 	12106
scalar tree_4_3_u08_r7_network.node[37].core_layer 	data[37] 	8901
scalar tree_4_3_u08_r7_network.node[37].content_store 	p_hit[37] 	0.26474475466711
scalar tree_4_3_u08_r7_network.node[37].content_store 	hits[37] 	3205
scalar tree_4_3_u08_r7_network.node[37].content_store 	misses[37] 	8901
scalar tree_4_3_u08_r7_network.node[37].content_store 	decision_yes[37] 	346
scalar tree_4_3_u08_r7_network.node[37].content_store 	decision_no[37] 	8555
scalar tree_4_3_u08_r7_network.node[37].content_store 	decision_ratio[37] 	0.038872036849792
scalar tree_4_3_u08_r7_network.node[38].core_layer 	interests[38] 	12102
scalar tree_4_3_u08_r7_network.node[38].core_layer 	data[38] 	9010
scalar tree_4_3_u08_r7_network.node[38].content_store 	p_hit[38] 	0.25549495951082
scalar tree_4_3_u08_r7_network.node[38].content_store 	hits[38] 	3092
scalar tree_4_3_u08_r7_network.node[38].content_store 	misses[38] 	9010
scalar tree_4_3_u08_r7_network.node[38].content_store 	decision_yes[38] 	205
scalar tree_4_3_u08_r7_network.node[38].content_store 	decision_no[38] 	8805
scalar tree_4_3_u08_r7_network.node[38].content_store 	decision_ratio[38] 	0.022752497225305
scalar tree_4_3_u08_r7_network.node[39].core_layer 	interests[39] 	11839
scalar tree_4_3_u08_r7_network.node[39].core_layer 	data[39] 	8627
scalar tree_4_3_u08_r7_network.node[39].content_store 	p_hit[39] 	0.2712222316074
scalar tree_4_3_u08_r7_network.node[39].content_store 	hits[39] 	3211
scalar tree_4_3_u08_r7_network.node[39].content_store 	misses[39] 	8628
scalar tree_4_3_u08_r7_network.node[39].content_store 	decision_yes[39] 	206
scalar tree_4_3_u08_r7_network.node[39].content_store 	decision_no[39] 	8421
scalar tree_4_3_u08_r7_network.node[39].content_store 	decision_ratio[39] 	0.023878520922685
scalar tree_4_3_u08_r7_network.client[13] 	hdistance[13] 	2.8263004577611
scalar tree_4_3_u08_r7_network.client[13] 	downloads[13] 	12015
scalar tree_4_3_u08_r7_network.client[13] 	avg_time[13] 	0.004276966147
scalar tree_4_3_u08_r7_network.client[14] 	hdistance[14] 	2.8283387895576
scalar tree_4_3_u08_r7_network.client[14] 	downloads[14] 	11913
scalar tree_4_3_u08_r7_network.client[14] 	avg_time[14] 	0.004279691444
scalar tree_4_3_u08_r7_network.client[15] 	hdistance[15] 	2.7799256505576
scalar tree_4_3_u08_r7_network.client[15] 	downloads[15] 	12105
scalar tree_4_3_u08_r7_network.client[15] 	avg_time[15] 	0.004209331935
scalar tree_4_3_u08_r7_network.client[16] 	hdistance[16] 	2.8038855999333
scalar tree_4_3_u08_r7_network.client[16] 	downloads[16] 	11993
scalar tree_4_3_u08_r7_network.client[16] 	avg_time[16] 	0.004242060316
scalar tree_4_3_u08_r7_network.client[17] 	hdistance[17] 	2.8039167079821
scalar tree_4_3_u08_r7_network.client[17] 	downloads[17] 	12102
scalar tree_4_3_u08_r7_network.client[17] 	avg_time[17] 	0.004244088838
scalar tree_4_3_u08_r7_network.client[18] 	hdistance[18] 	2.7887228834304
scalar tree_4_3_u08_r7_network.client[18] 	downloads[18] 	11847
scalar tree_4_3_u08_r7_network.client[18] 	avg_time[18] 	0.00422031977
scalar tree_4_3_u08_r7_network.client[19] 	hdistance[19] 	2.8176974943811
scalar tree_4_3_u08_r7_network.client[19] 	downloads[19] 	12013
scalar tree_4_3_u08_r7_network.client[19] 	avg_time[19] 	0.004262554209
scalar tree_4_3_u08_r7_network.client[20] 	hdistance[20] 	2.8126057529611
scalar tree_4_3_u08_r7_network.client[20] 	downloads[20] 	11820
scalar tree_4_3_u08_r7_network.client[20] 	avg_time[20] 	0.004261835377
scalar tree_4_3_u08_r7_network.client[21] 	hdistance[21] 	2.8290357350137
scalar tree_4_3_u08_r7_network.client[21] 	downloads[21] 	12061
scalar tree_4_3_u08_r7_network.client[21] 	avg_time[21] 	0.00428156571
scalar tree_4_3_u08_r7_network.client[22] 	hdistance[22] 	2.8043188260797
scalar tree_4_3_u08_r7_network.client[22] 	downloads[22] 	11994
scalar tree_4_3_u08_r7_network.client[22] 	avg_time[22] 	0.004244285805
scalar tree_4_3_u08_r7_network.client[23] 	hdistance[23] 	2.8095157610073
scalar tree_4_3_u08_r7_network.client[23] 	downloads[23] 	11833
scalar tree_4_3_u08_r7_network.client[23] 	avg_time[23] 	0.004254032348
scalar tree_4_3_u08_r7_network.client[24] 	hdistance[24] 	2.8572605900775
scalar tree_4_3_u08_r7_network.client[24] 	downloads[24] 	12134
scalar tree_4_3_u08_r7_network.client[24] 	avg_time[24] 	0.004322561639
scalar tree_4_3_u08_r7_network.client[25] 	hdistance[25] 	2.8417307851411
scalar tree_4_3_u08_r7_network.client[25] 	downloads[25] 	12087
scalar tree_4_3_u08_r7_network.client[25] 	avg_time[25] 	0.004299091563
scalar tree_4_3_u08_r7_network.client[26] 	hdistance[26] 	2.8471968058559
scalar tree_4_3_u08_r7_network.client[26] 	downloads[26] 	12022
scalar tree_4_3_u08_r7_network.client[26] 	avg_time[26] 	0.0042999471
scalar tree_4_3_u08_r7_network.client[27] 	hdistance[27] 	2.8513048586054
scalar tree_4_3_u08_r7_network.client[27] 	downloads[27] 	11917
scalar tree_4_3_u08_r7_network.client[27] 	avg_time[27] 	0.004307116868
scalar tree_4_3_u08_r7_network.client[28] 	hdistance[28] 	2.8232196589769
scalar tree_4_3_u08_r7_network.client[28] 	downloads[28] 	11964
scalar tree_4_3_u08_r7_network.client[28] 	avg_time[28] 	0.004273818488
scalar tree_4_3_u08_r7_network.client[29] 	hdistance[29] 	2.8446994715984
scalar tree_4_3_u08_r7_network.client[29] 	downloads[29] 	12112
scalar tree_4_3_u08_r7_network.client[29] 	avg_time[29] 	0.004298048475
scalar tree_4_3_u08_r7_network.client[30] 	hdistance[30] 	2.8200752823087
scalar tree_4_3_u08_r7_network.client[30] 	downloads[30] 	11955
scalar tree_4_3_u08_r7_network.client[30] 	avg_time[30] 	0.004264701472
scalar tree_4_3_u08_r7_network.client[31] 	hdistance[31] 	2.7953542585963
scalar tree_4_3_u08_r7_network.client[31] 	downloads[31] 	12011
scalar tree_4_3_u08_r7_network.client[31] 	avg_time[31] 	0.004231757249
scalar tree_4_3_u08_r7_network.client[32] 	hdistance[32] 	2.8223502881483
scalar tree_4_3_u08_r7_network.client[32] 	downloads[32] 	11973
scalar tree_4_3_u08_r7_network.client[32] 	avg_time[32] 	0.004270737387
scalar tree_4_3_u08_r7_network.client[33] 	hdistance[33] 	2.8062713701943
scalar tree_4_3_u08_r7_network.client[33] 	downloads[33] 	11991
scalar tree_4_3_u08_r7_network.client[33] 	avg_time[33] 	0.004248219859
scalar tree_4_3_u08_r7_network.client[34] 	hdistance[34] 	2.8077816492451
scalar tree_4_3_u08_r7_network.client[34] 	downloads[34] 	12054
scalar tree_4_3_u08_r7_network.client[34] 	avg_time[34] 	0.004249374777
scalar tree_4_3_u08_r7_network.client[35] 	hdistance[35] 	2.8260112732096
scalar tree_4_3_u08_r7_network.client[35] 	downloads[35] 	12064
scalar tree_4_3_u08_r7_network.client[35] 	avg_time[35] 	0.004268398842
scalar tree_4_3_u08_r7_network.client[36] 	hdistance[36] 	2.8143542225474
scalar tree_4_3_u08_r7_network.client[36] 	downloads[36] 	12303
scalar tree_4_3_u08_r7_network.client[36] 	avg_time[36] 	0.0042531059
scalar tree_4_3_u08_r7_network.client[37] 	hdistance[37] 	2.820089211961
scalar tree_4_3_u08_r7_network.client[37] 	downloads[37] 	12106
scalar tree_4_3_u08_r7_network.client[37] 	avg_time[37] 	0.004270002621
scalar tree_4_3_u08_r7_network.client[38] 	hdistance[38] 	2.9051396463394
scalar tree_4_3_u08_r7_network.client[38] 	downloads[38] 	12102
scalar tree_4_3_u08_r7_network.client[38] 	avg_time[38] 	0.004384230972
scalar tree_4_3_u08_r7_network.client[39] 	hdistance[39] 	2.8420341273864
scalar tree_4_3_u08_r7_network.client[39] 	downloads[39] 	11838
scalar tree_4_3_u08_r7_network.client[39] 	avg_time[39] 	0.004289666531
