version 2
run General-179-20160820-11:24:08-856
attr a 0.9
attr cd lcd
attr configname General
attr cr lru
attr datetime 20160820-11:24:08
attr experiment General
attr fsize 1
attr inifile hw5115/scenario_A/SPR-LCD.ini
attr iterationvars "$name=tree_4_3, $un=08, $rep=20, $cd=lcd, $cr=lru, $fsize=1, $a=0.9, $sl=spr, $ttl=1000, $variance=0.05"
attr iterationvars2 "$name=tree_4_3, $un=08, $rep=20, $cd=lcd, $cr=lru, $fsize=1, $a=0.9, $sl=spr, $ttl=1000, $variance=0.05, $repetition=0"
attr measurement "$name=tree_4_3, $un=08, $rep=20, $cd=lcd, $cr=lru, $fsize=1, $a=0.9, $sl=spr, $ttl=1000, $variance=0.05"
attr name tree_4_3
attr network networks.${name}_u${un}_r${rep}_network
attr processid 856
attr rep 20
attr repetition 0
attr replication #0
attr resultdir results
attr runnumber 179
attr seedset 20
attr sl spr
attr ttl 1000
attr un 08
attr variance 0.05

scalar . 	a 	0.9
scalar . 	fsize 	1
scalar . 	rep 	20
scalar . 	ttl 	1000
scalar . 	un 	08
scalar . 	variance 	0.05
scalar tree_4_3_u08_r20_network.content_distribution 	repo-0 	0
scalar tree_4_3_u08_r20_network.content_distribution 	client-0 	13
scalar tree_4_3_u08_r20_network.content_distribution 	client-1 	14
scalar tree_4_3_u08_r20_network.content_distribution 	client-2 	15
scalar tree_4_3_u08_r20_network.content_distribution 	client-3 	16
scalar tree_4_3_u08_r20_network.content_distribution 	client-4 	17
scalar tree_4_3_u08_r20_network.content_distribution 	client-5 	18
scalar tree_4_3_u08_r20_network.content_distribution 	client-6 	19
scalar tree_4_3_u08_r20_network.content_distribution 	client-7 	20
scalar tree_4_3_u08_r20_network.content_distribution 	client-8 	21
scalar tree_4_3_u08_r20_network.content_distribution 	client-9 	22
scalar tree_4_3_u08_r20_network.content_distribution 	client-10 	23
scalar tree_4_3_u08_r20_network.content_distribution 	client-11 	24
scalar tree_4_3_u08_r20_network.content_distribution 	client-12 	25
scalar tree_4_3_u08_r20_network.content_distribution 	client-13 	26
scalar tree_4_3_u08_r20_network.content_distribution 	client-14 	27
scalar tree_4_3_u08_r20_network.content_distribution 	client-15 	28
scalar tree_4_3_u08_r20_network.content_distribution 	client-16 	29
scalar tree_4_3_u08_r20_network.content_distribution 	client-17 	30
scalar tree_4_3_u08_r20_network.content_distribution 	client-18 	31
scalar tree_4_3_u08_r20_network.content_distribution 	client-19 	32
scalar tree_4_3_u08_r20_network.content_distribution 	client-20 	33
scalar tree_4_3_u08_r20_network.content_distribution 	client-21 	34
scalar tree_4_3_u08_r20_network.content_distribution 	client-22 	35
scalar tree_4_3_u08_r20_network.content_distribution 	client-23 	36
scalar tree_4_3_u08_r20_network.content_distribution 	client-24 	37
scalar tree_4_3_u08_r20_network.content_distribution 	client-25 	38
scalar tree_4_3_u08_r20_network.content_distribution 	client-26 	39
scalar tree_4_3_u08_r20_network.content_distribution 	repo-0_card 	100000
scalar tree_4_3_u08_r20_network.content_distribution 	repo-0_price 	0
scalar tree_4_3_u08_r20_network.statistics 	stabilization_time 	1888
scalar tree_4_3_u08_r20_network.statistics 	p_hit 	0.18828169615388
scalar tree_4_3_u08_r20_network.statistics 	interests 	25508.375
scalar tree_4_3_u08_r20_network.statistics 	data 	17385.925
scalar tree_4_3_u08_r20_network.statistics 	hdistance 	2.8314294095429
scalar tree_4_3_u08_r20_network.statistics 	avg_time 	0.004281065495
scalar tree_4_3_u08_r20_network.statistics 	downloads 	324892
scalar tree_4_3_u08_r20_network.statistics 	total_cost 	0
scalar tree_4_3_u08_r20_network.statistics 	total_replicas 	100000
scalar tree_4_3_u08_r20_network.statistics 	inner_hit 	0.30914273050737
scalar tree_4_3_u08_r20_network.node[0].core_layer 	interests[0] 	226593
scalar tree_4_3_u08_r20_network.node[0].core_layer 	repo_load[0] 	224454
scalar tree_4_3_u08_r20_network.node[0].core_layer 	data[0] 	0
scalar tree_4_3_u08_r20_network.node[0].core_layer 	repo_int[0] 	224454
scalar tree_4_3_u08_r20_network.node[0].content_store 	p_hit[0] 	0.0094398326514941
scalar tree_4_3_u08_r20_network.node[0].content_store 	hits[0] 	2139
scalar tree_4_3_u08_r20_network.node[0].content_store 	misses[0] 	224454
scalar tree_4_3_u08_r20_network.node[0].content_store 	decision_yes[0] 	224454
scalar tree_4_3_u08_r20_network.node[0].content_store 	decision_no[0] 	0
scalar tree_4_3_u08_r20_network.node[0].content_store 	decision_ratio[0] 	1
scalar tree_4_3_u08_r20_network.node[1].core_layer 	interests[1] 	144116
scalar tree_4_3_u08_r20_network.node[1].core_layer 	data[1] 	141217
scalar tree_4_3_u08_r20_network.node[1].content_store 	p_hit[1] 	0.020067168114574
scalar tree_4_3_u08_r20_network.node[1].content_store 	hits[1] 	2892
scalar tree_4_3_u08_r20_network.node[1].content_store 	misses[1] 	141224
scalar tree_4_3_u08_r20_network.node[1].content_store 	decision_yes[1] 	1332
scalar tree_4_3_u08_r20_network.node[1].content_store 	decision_no[1] 	139885
scalar tree_4_3_u08_r20_network.node[1].content_store 	decision_ratio[1] 	0.0094322921461297
scalar tree_4_3_u08_r20_network.node[2].core_layer 	interests[2] 	60297
scalar tree_4_3_u08_r20_network.node[2].core_layer 	data[2] 	59378
scalar tree_4_3_u08_r20_network.node[2].content_store 	p_hit[2] 	0.015241222614724
scalar tree_4_3_u08_r20_network.node[2].content_store 	hits[2] 	919
scalar tree_4_3_u08_r20_network.node[2].content_store 	misses[2] 	59378
scalar tree_4_3_u08_r20_network.node[2].content_store 	decision_yes[2] 	566
scalar tree_4_3_u08_r20_network.node[2].content_store 	decision_no[2] 	58812
scalar tree_4_3_u08_r20_network.node[2].content_store 	decision_ratio[2] 	0.0095321499545286
scalar tree_4_3_u08_r20_network.node[3].core_layer 	interests[3] 	26226
scalar tree_4_3_u08_r20_network.node[3].core_layer 	data[3] 	25997
scalar tree_4_3_u08_r20_network.node[3].content_store 	p_hit[3] 	0.0087317928772973
scalar tree_4_3_u08_r20_network.node[3].content_store 	hits[3] 	229
scalar tree_4_3_u08_r20_network.node[3].content_store 	misses[3] 	25997
scalar tree_4_3_u08_r20_network.node[3].content_store 	decision_yes[3] 	241
scalar tree_4_3_u08_r20_network.node[3].content_store 	decision_no[3] 	25756
scalar tree_4_3_u08_r20_network.node[3].content_store 	decision_ratio[3] 	0.0092703004192791
scalar tree_4_3_u08_r20_network.node[4].core_layer 	interests[4] 	44102
scalar tree_4_3_u08_r20_network.node[4].core_layer 	data[4] 	42510
scalar tree_4_3_u08_r20_network.node[4].content_store 	p_hit[4] 	0.036030112013061
scalar tree_4_3_u08_r20_network.node[4].content_store 	hits[4] 	1589
scalar tree_4_3_u08_r20_network.node[4].content_store 	misses[4] 	42513
scalar tree_4_3_u08_r20_network.node[4].content_store 	decision_yes[4] 	763
scalar tree_4_3_u08_r20_network.node[4].content_store 	decision_no[4] 	41747
scalar tree_4_3_u08_r20_network.node[4].content_store 	decision_ratio[4] 	0.017948717948718
scalar tree_4_3_u08_r20_network.node[5].core_layer 	interests[5] 	26433
scalar tree_4_3_u08_r20_network.node[5].core_layer 	data[5] 	25541
scalar tree_4_3_u08_r20_network.node[5].content_store 	p_hit[5] 	0.033745696667045
scalar tree_4_3_u08_r20_network.node[5].content_store 	hits[5] 	892
scalar tree_4_3_u08_r20_network.node[5].content_store 	misses[5] 	25541
scalar tree_4_3_u08_r20_network.node[5].content_store 	decision_yes[5] 	558
scalar tree_4_3_u08_r20_network.node[5].content_store 	decision_no[5] 	24983
scalar tree_4_3_u08_r20_network.node[5].content_store 	decision_ratio[5] 	0.021847226028738
scalar tree_4_3_u08_r20_network.node[6].core_layer 	interests[6] 	8771
scalar tree_4_3_u08_r20_network.node[6].core_layer 	data[6] 	8538
scalar tree_4_3_u08_r20_network.node[6].content_store 	p_hit[6] 	0.026564815870482
scalar tree_4_3_u08_r20_network.node[6].content_store 	hits[6] 	233
scalar tree_4_3_u08_r20_network.node[6].content_store 	misses[6] 	8538
scalar tree_4_3_u08_r20_network.node[6].content_store 	decision_yes[6] 	247
scalar tree_4_3_u08_r20_network.node[6].content_store 	decision_no[6] 	8291
scalar tree_4_3_u08_r20_network.node[6].content_store 	decision_ratio[6] 	0.028929491684235
scalar tree_4_3_u08_r20_network.node[7].core_layer 	interests[7] 	35006
scalar tree_4_3_u08_r20_network.node[7].core_layer 	data[7] 	33781
scalar tree_4_3_u08_r20_network.node[7].content_store 	p_hit[7] 	0.03490830143404
scalar tree_4_3_u08_r20_network.node[7].content_store 	hits[7] 	1222
scalar tree_4_3_u08_r20_network.node[7].content_store 	misses[7] 	33784
scalar tree_4_3_u08_r20_network.node[7].content_store 	decision_yes[7] 	661
scalar tree_4_3_u08_r20_network.node[7].content_store 	decision_no[7] 	33120
scalar tree_4_3_u08_r20_network.node[7].content_store 	decision_ratio[7] 	0.019567212338297
scalar tree_4_3_u08_r20_network.node[8].core_layer 	interests[8] 	35488
scalar tree_4_3_u08_r20_network.node[8].core_layer 	data[8] 	34456
scalar tree_4_3_u08_r20_network.node[8].content_store 	p_hit[8] 	0.029023895401262
scalar tree_4_3_u08_r20_network.node[8].content_store 	hits[8] 	1030
scalar tree_4_3_u08_r20_network.node[8].content_store 	misses[8] 	34458
scalar tree_4_3_u08_r20_network.node[8].content_store 	decision_yes[8] 	405
scalar tree_4_3_u08_r20_network.node[8].content_store 	decision_no[8] 	34051
scalar tree_4_3_u08_r20_network.node[8].content_store 	decision_ratio[8] 	0.01175412119805
scalar tree_4_3_u08_r20_network.node[9].core_layer 	interests[9] 	8886
scalar tree_4_3_u08_r20_network.node[9].core_layer 	data[9] 	8647
scalar tree_4_3_u08_r20_network.node[9].content_store 	p_hit[9] 	0.026896241278415
scalar tree_4_3_u08_r20_network.node[9].content_store 	hits[9] 	239
scalar tree_4_3_u08_r20_network.node[9].content_store 	misses[9] 	8647
scalar tree_4_3_u08_r20_network.node[9].content_store 	decision_yes[9] 	200
scalar tree_4_3_u08_r20_network.node[9].content_store 	decision_no[9] 	8447
scalar tree_4_3_u08_r20_network.node[9].content_store 	decision_ratio[9] 	0.023129409043599
scalar tree_4_3_u08_r20_network.node[10].core_layer 	interests[10] 	34974
scalar tree_4_3_u08_r20_network.node[10].core_layer 	data[10] 	33746
scalar tree_4_3_u08_r20_network.node[10].content_store 	p_hit[10] 	0.035140390004003
scalar tree_4_3_u08_r20_network.node[10].content_store 	hits[10] 	1229
scalar tree_4_3_u08_r20_network.node[10].content_store 	misses[10] 	33745
scalar tree_4_3_u08_r20_network.node[10].content_store 	decision_yes[10] 	663
scalar tree_4_3_u08_r20_network.node[10].content_store 	decision_no[10] 	33083
scalar tree_4_3_u08_r20_network.node[10].content_store 	decision_ratio[10] 	0.019646772950868
scalar tree_4_3_u08_r20_network.node[11].core_layer 	interests[11] 	17707
scalar tree_4_3_u08_r20_network.node[11].core_layer 	data[11] 	17194
scalar tree_4_3_u08_r20_network.node[11].content_store 	p_hit[11] 	0.028971593155249
scalar tree_4_3_u08_r20_network.node[11].content_store 	hits[11] 	513
scalar tree_4_3_u08_r20_network.node[11].content_store 	misses[11] 	17194
scalar tree_4_3_u08_r20_network.node[11].content_store 	decision_yes[11] 	314
scalar tree_4_3_u08_r20_network.node[11].content_store 	decision_no[11] 	16880
scalar tree_4_3_u08_r20_network.node[11].content_store 	decision_ratio[11] 	0.018262184482959
scalar tree_4_3_u08_r20_network.node[12].core_layer 	interests[12] 	26840
scalar tree_4_3_u08_r20_network.node[12].core_layer 	data[12] 	26226
scalar tree_4_3_u08_r20_network.node[12].content_store 	p_hit[12] 	0.022876304023845
scalar tree_4_3_u08_r20_network.node[12].content_store 	hits[12] 	614
scalar tree_4_3_u08_r20_network.node[12].content_store 	misses[12] 	26226
scalar tree_4_3_u08_r20_network.node[12].content_store 	decision_yes[12] 	229
scalar tree_4_3_u08_r20_network.node[12].content_store 	decision_no[12] 	25997
scalar tree_4_3_u08_r20_network.node[12].content_store 	decision_ratio[12] 	0.0087317928772973
scalar tree_4_3_u08_r20_network.node[13].core_layer 	interests[13] 	12037
scalar tree_4_3_u08_r20_network.node[13].core_layer 	data[13] 	8860
scalar tree_4_3_u08_r20_network.node[13].content_store 	p_hit[13] 	0.26393619672676
scalar tree_4_3_u08_r20_network.node[13].content_store 	hits[13] 	3177
scalar tree_4_3_u08_r20_network.node[13].content_store 	misses[13] 	8860
scalar tree_4_3_u08_r20_network.node[13].content_store 	decision_yes[13] 	331
scalar tree_4_3_u08_r20_network.node[13].content_store 	decision_no[13] 	8529
scalar tree_4_3_u08_r20_network.node[13].content_store 	decision_ratio[13] 	0.037358916478555
scalar tree_4_3_u08_r20_network.node[14].core_layer 	interests[14] 	12201
scalar tree_4_3_u08_r20_network.node[14].core_layer 	data[14] 	8876
scalar tree_4_3_u08_r20_network.node[14].content_store 	p_hit[14] 	0.27251864601262
scalar tree_4_3_u08_r20_network.node[14].content_store 	hits[14] 	3325
scalar tree_4_3_u08_r20_network.node[14].content_store 	misses[14] 	8876
scalar tree_4_3_u08_r20_network.node[14].content_store 	decision_yes[14] 	316
scalar tree_4_3_u08_r20_network.node[14].content_store 	decision_no[14] 	8560
scalar tree_4_3_u08_r20_network.node[14].content_store 	decision_ratio[14] 	0.035601622352411
scalar tree_4_3_u08_r20_network.node[15].core_layer 	interests[15] 	12150
scalar tree_4_3_u08_r20_network.node[15].core_layer 	data[15] 	8944
scalar tree_4_3_u08_r20_network.node[15].content_store 	p_hit[15] 	0.2638683127572
scalar tree_4_3_u08_r20_network.node[15].content_store 	hits[15] 	3206
scalar tree_4_3_u08_r20_network.node[15].content_store 	misses[15] 	8944
scalar tree_4_3_u08_r20_network.node[15].content_store 	decision_yes[15] 	315
scalar tree_4_3_u08_r20_network.node[15].content_store 	decision_no[15] 	8629
scalar tree_4_3_u08_r20_network.node[15].content_store 	decision_ratio[15] 	0.035219141323792
scalar tree_4_3_u08_r20_network.node[16].core_layer 	interests[16] 	11947
scalar tree_4_3_u08_r20_network.node[16].core_layer 	data[16] 	8698
scalar tree_4_3_u08_r20_network.node[16].content_store 	p_hit[16] 	0.27195111743534
scalar tree_4_3_u08_r20_network.node[16].content_store 	hits[16] 	3249
scalar tree_4_3_u08_r20_network.node[16].content_store 	misses[16] 	8698
scalar tree_4_3_u08_r20_network.node[16].content_store 	decision_yes[16] 	319
scalar tree_4_3_u08_r20_network.node[16].content_store 	decision_no[16] 	8379
scalar tree_4_3_u08_r20_network.node[16].content_store 	decision_ratio[16] 	0.036675097723615
scalar tree_4_3_u08_r20_network.node[17].core_layer 	interests[17] 	11929
scalar tree_4_3_u08_r20_network.node[17].core_layer 	data[17] 	8806
scalar tree_4_3_u08_r20_network.node[17].content_store 	p_hit[17] 	0.26179897728225
scalar tree_4_3_u08_r20_network.node[17].content_store 	hits[17] 	3123
scalar tree_4_3_u08_r20_network.node[17].content_store 	misses[17] 	8806
scalar tree_4_3_u08_r20_network.node[17].content_store 	decision_yes[17] 	291
scalar tree_4_3_u08_r20_network.node[17].content_store 	decision_no[17] 	8515
scalar tree_4_3_u08_r20_network.node[17].content_store 	decision_ratio[17] 	0.03304565069271
scalar tree_4_3_u08_r20_network.node[18].core_layer 	interests[18] 	12010
scalar tree_4_3_u08_r20_network.node[18].core_layer 	data[18] 	8794
scalar tree_4_3_u08_r20_network.node[18].content_store 	p_hit[18] 	0.26777685262281
scalar tree_4_3_u08_r20_network.node[18].content_store 	hits[18] 	3216
scalar tree_4_3_u08_r20_network.node[18].content_store 	misses[18] 	8794
scalar tree_4_3_u08_r20_network.node[18].content_store 	decision_yes[18] 	311
scalar tree_4_3_u08_r20_network.node[18].content_store 	decision_no[18] 	8483
scalar tree_4_3_u08_r20_network.node[18].content_store 	decision_ratio[18] 	0.03536502160564
scalar tree_4_3_u08_r20_network.node[19].core_layer 	interests[19] 	11999
scalar tree_4_3_u08_r20_network.node[19].core_layer 	data[19] 	8724
scalar tree_4_3_u08_r20_network.node[19].content_store 	p_hit[19] 	0.27293941161763
scalar tree_4_3_u08_r20_network.node[19].content_store 	hits[19] 	3275
scalar tree_4_3_u08_r20_network.node[19].content_store 	misses[19] 	8724
scalar tree_4_3_u08_r20_network.node[19].content_store 	decision_yes[19] 	308
scalar tree_4_3_u08_r20_network.node[19].content_store 	decision_no[19] 	8416
scalar tree_4_3_u08_r20_network.node[19].content_store 	decision_ratio[19] 	0.035304906006419
scalar tree_4_3_u08_r20_network.node[20].core_layer 	interests[20] 	12044
scalar tree_4_3_u08_r20_network.node[20].core_layer 	data[20] 	8834
scalar tree_4_3_u08_r20_network.node[20].content_store 	p_hit[20] 	0.26660577881103
scalar tree_4_3_u08_r20_network.node[20].content_store 	hits[20] 	3211
scalar tree_4_3_u08_r20_network.node[20].content_store 	misses[20] 	8833
scalar tree_4_3_u08_r20_network.node[20].content_store 	decision_yes[20] 	290
scalar tree_4_3_u08_r20_network.node[20].content_store 	decision_no[20] 	8544
scalar tree_4_3_u08_r20_network.node[20].content_store 	decision_ratio[20] 	0.032827711116142
scalar tree_4_3_u08_r20_network.node[21].core_layer 	interests[21] 	11943
scalar tree_4_3_u08_r20_network.node[21].core_layer 	data[21] 	8771
scalar tree_4_3_u08_r20_network.node[21].content_store 	p_hit[21] 	0.2655949091518
scalar tree_4_3_u08_r20_network.node[21].content_store 	hits[21] 	3172
scalar tree_4_3_u08_r20_network.node[21].content_store 	misses[21] 	8771
scalar tree_4_3_u08_r20_network.node[21].content_store 	decision_yes[21] 	233
scalar tree_4_3_u08_r20_network.node[21].content_store 	decision_no[21] 	8538
scalar tree_4_3_u08_r20_network.node[21].content_store 	decision_ratio[21] 	0.026564815870482
scalar tree_4_3_u08_r20_network.node[22].core_layer 	interests[22] 	11931
scalar tree_4_3_u08_r20_network.node[22].core_layer 	data[22] 	8756
scalar tree_4_3_u08_r20_network.node[22].content_store 	p_hit[22] 	0.26602967060598
scalar tree_4_3_u08_r20_network.node[22].content_store 	hits[22] 	3174
scalar tree_4_3_u08_r20_network.node[22].content_store 	misses[22] 	8757
scalar tree_4_3_u08_r20_network.node[22].content_store 	decision_yes[22] 	303
scalar tree_4_3_u08_r20_network.node[22].content_store 	decision_no[22] 	8453
scalar tree_4_3_u08_r20_network.node[22].content_store 	decision_ratio[22] 	0.034604842393787
scalar tree_4_3_u08_r20_network.node[23].core_layer 	interests[23] 	11828
scalar tree_4_3_u08_r20_network.node[23].core_layer 	data[23] 	8626
scalar tree_4_3_u08_r20_network.node[23].content_store 	p_hit[23] 	0.2707135610416
scalar tree_4_3_u08_r20_network.node[23].content_store 	hits[23] 	3202
scalar tree_4_3_u08_r20_network.node[23].content_store 	misses[23] 	8626
scalar tree_4_3_u08_r20_network.node[23].content_store 	decision_yes[23] 	284
scalar tree_4_3_u08_r20_network.node[23].content_store 	decision_no[23] 	8342
scalar tree_4_3_u08_r20_network.node[23].content_store 	decision_ratio[23] 	0.032923718989103
scalar tree_4_3_u08_r20_network.node[24].core_layer 	interests[24] 	12049
scalar tree_4_3_u08_r20_network.node[24].core_layer 	data[24] 	8805
scalar tree_4_3_u08_r20_network.node[24].content_store 	p_hit[24] 	0.26923396132459
scalar tree_4_3_u08_r20_network.node[24].content_store 	hits[24] 	3244
scalar tree_4_3_u08_r20_network.node[24].content_store 	misses[24] 	8805
scalar tree_4_3_u08_r20_network.node[24].content_store 	decision_yes[24] 	289
scalar tree_4_3_u08_r20_network.node[24].content_store 	decision_no[24] 	8516
scalar tree_4_3_u08_r20_network.node[24].content_store 	decision_ratio[24] 	0.0328222600795
scalar tree_4_3_u08_r20_network.node[25].core_layer 	interests[25] 	12305
scalar tree_4_3_u08_r20_network.node[25].core_layer 	data[25] 	9013
scalar tree_4_3_u08_r20_network.node[25].content_store 	p_hit[25] 	0.26753352295815
scalar tree_4_3_u08_r20_network.node[25].content_store 	hits[25] 	3292
scalar tree_4_3_u08_r20_network.node[25].content_store 	misses[25] 	9013
scalar tree_4_3_u08_r20_network.node[25].content_store 	decision_yes[25] 	246
scalar tree_4_3_u08_r20_network.node[25].content_store 	decision_no[25] 	8767
scalar tree_4_3_u08_r20_network.node[25].content_store 	decision_ratio[25] 	0.027293908798402
scalar tree_4_3_u08_r20_network.node[26].core_layer 	interests[26] 	11889
scalar tree_4_3_u08_r20_network.node[26].core_layer 	data[26] 	8819
scalar tree_4_3_u08_r20_network.node[26].content_store 	p_hit[26] 	0.25822188577677
scalar tree_4_3_u08_r20_network.node[26].content_store 	hits[26] 	3070
scalar tree_4_3_u08_r20_network.node[26].content_store 	misses[26] 	8819
scalar tree_4_3_u08_r20_network.node[26].content_store 	decision_yes[26] 	260
scalar tree_4_3_u08_r20_network.node[26].content_store 	decision_no[26] 	8559
scalar tree_4_3_u08_r20_network.node[26].content_store 	decision_ratio[26] 	0.029481800657671
scalar tree_4_3_u08_r20_network.node[27].core_layer 	interests[27] 	12089
scalar tree_4_3_u08_r20_network.node[27].core_layer 	data[27] 	8958
scalar tree_4_3_u08_r20_network.node[27].content_store 	p_hit[27] 	0.25899578128877
scalar tree_4_3_u08_r20_network.node[27].content_store 	hits[27] 	3131
scalar tree_4_3_u08_r20_network.node[27].content_store 	misses[27] 	8958
scalar tree_4_3_u08_r20_network.node[27].content_store 	decision_yes[27] 	265
scalar tree_4_3_u08_r20_network.node[27].content_store 	decision_no[27] 	8693
scalar tree_4_3_u08_r20_network.node[27].content_store 	decision_ratio[27] 	0.029582496092878
scalar tree_4_3_u08_r20_network.node[28].core_layer 	interests[28] 	11953
scalar tree_4_3_u08_r20_network.node[28].core_layer 	data[28] 	8817
scalar tree_4_3_u08_r20_network.node[28].content_store 	p_hit[28] 	0.26227725257258
scalar tree_4_3_u08_r20_network.node[28].content_store 	hits[28] 	3135
scalar tree_4_3_u08_r20_network.node[28].content_store 	misses[28] 	8818
scalar tree_4_3_u08_r20_network.node[28].content_store 	decision_yes[28] 	346
scalar tree_4_3_u08_r20_network.node[28].content_store 	decision_no[28] 	8471
scalar tree_4_3_u08_r20_network.node[28].content_store 	decision_ratio[28] 	0.039242372689123
scalar tree_4_3_u08_r20_network.node[29].core_layer 	interests[29] 	11845
scalar tree_4_3_u08_r20_network.node[29].core_layer 	data[29] 	8698
scalar tree_4_3_u08_r20_network.node[29].content_store 	p_hit[29] 	0.26568172224567
scalar tree_4_3_u08_r20_network.node[29].content_store 	hits[29] 	3147
scalar tree_4_3_u08_r20_network.node[29].content_store 	misses[29] 	8698
scalar tree_4_3_u08_r20_network.node[29].content_store 	decision_yes[29] 	259
scalar tree_4_3_u08_r20_network.node[29].content_store 	decision_no[29] 	8439
scalar tree_4_3_u08_r20_network.node[29].content_store 	decision_ratio[29] 	0.02977696022074
scalar tree_4_3_u08_r20_network.node[30].core_layer 	interests[30] 	12207
scalar tree_4_3_u08_r20_network.node[30].core_layer 	data[30] 	8886
scalar tree_4_3_u08_r20_network.node[30].content_store 	p_hit[30] 	0.27205701646596
scalar tree_4_3_u08_r20_network.node[30].content_store 	hits[30] 	3321
scalar tree_4_3_u08_r20_network.node[30].content_store 	misses[30] 	8886
scalar tree_4_3_u08_r20_network.node[30].content_store 	decision_yes[30] 	239
scalar tree_4_3_u08_r20_network.node[30].content_store 	decision_no[30] 	8647
scalar tree_4_3_u08_r20_network.node[30].content_store 	decision_ratio[30] 	0.026896241278415
scalar tree_4_3_u08_r20_network.node[31].core_layer 	interests[31] 	11950
scalar tree_4_3_u08_r20_network.node[31].core_layer 	data[31] 	8770
scalar tree_4_3_u08_r20_network.node[31].content_store 	p_hit[31] 	0.26610878661088
scalar tree_4_3_u08_r20_network.node[31].content_store 	hits[31] 	3180
scalar tree_4_3_u08_r20_network.node[31].content_store 	misses[31] 	8770
scalar tree_4_3_u08_r20_network.node[31].content_store 	decision_yes[31] 	291
scalar tree_4_3_u08_r20_network.node[31].content_store 	decision_no[31] 	8479
scalar tree_4_3_u08_r20_network.node[31].content_store 	decision_ratio[31] 	0.033181299885975
scalar tree_4_3_u08_r20_network.node[32].core_layer 	interests[32] 	12094
scalar tree_4_3_u08_r20_network.node[32].core_layer 	data[32] 	8847
scalar tree_4_3_u08_r20_network.node[32].content_store 	p_hit[32] 	0.26848023813461
scalar tree_4_3_u08_r20_network.node[32].content_store 	hits[32] 	3247
scalar tree_4_3_u08_r20_network.node[32].content_store 	misses[32] 	8847
scalar tree_4_3_u08_r20_network.node[32].content_store 	decision_yes[32] 	319
scalar tree_4_3_u08_r20_network.node[32].content_store 	decision_no[32] 	8528
scalar tree_4_3_u08_r20_network.node[32].content_store 	decision_ratio[32] 	0.036057420594552
scalar tree_4_3_u08_r20_network.node[33].core_layer 	interests[33] 	11978
scalar tree_4_3_u08_r20_network.node[33].core_layer 	data[33] 	8642
scalar tree_4_3_u08_r20_network.node[33].content_store 	p_hit[33] 	0.27851060277175
scalar tree_4_3_u08_r20_network.node[33].content_store 	hits[33] 	3336
scalar tree_4_3_u08_r20_network.node[33].content_store 	misses[33] 	8642
scalar tree_4_3_u08_r20_network.node[33].content_store 	decision_yes[33] 	299
scalar tree_4_3_u08_r20_network.node[33].content_store 	decision_no[33] 	8343
scalar tree_4_3_u08_r20_network.node[33].content_store 	decision_ratio[33] 	0.034598472575793
scalar tree_4_3_u08_r20_network.node[34].core_layer 	interests[34] 	11864
scalar tree_4_3_u08_r20_network.node[34].core_layer 	data[34] 	8715
scalar tree_4_3_u08_r20_network.node[34].content_store 	p_hit[34] 	0.26534052596089
scalar tree_4_3_u08_r20_network.node[34].content_store 	hits[34] 	3148
scalar tree_4_3_u08_r20_network.node[34].content_store 	misses[34] 	8716
scalar tree_4_3_u08_r20_network.node[34].content_store 	decision_yes[34] 	320
scalar tree_4_3_u08_r20_network.node[34].content_store 	decision_no[34] 	8395
scalar tree_4_3_u08_r20_network.node[34].content_store 	decision_ratio[34] 	0.036718301778543
scalar tree_4_3_u08_r20_network.node[35].core_layer 	interests[35] 	11981
scalar tree_4_3_u08_r20_network.node[35].core_layer 	data[35] 	8815
scalar tree_4_3_u08_r20_network.node[35].content_store 	p_hit[35] 	0.26425173190886
scalar tree_4_3_u08_r20_network.node[35].content_store 	hits[35] 	3166
scalar tree_4_3_u08_r20_network.node[35].content_store 	misses[35] 	8815
scalar tree_4_3_u08_r20_network.node[35].content_store 	decision_yes[35] 	269
scalar tree_4_3_u08_r20_network.node[35].content_store 	decision_no[35] 	8546
scalar tree_4_3_u08_r20_network.node[35].content_store 	decision_ratio[35] 	0.030516165626773
scalar tree_4_3_u08_r20_network.node[36].core_layer 	interests[36] 	12087
scalar tree_4_3_u08_r20_network.node[36].core_layer 	data[36] 	8892
scalar tree_4_3_u08_r20_network.node[36].content_store 	p_hit[36] 	0.26433358153388
scalar tree_4_3_u08_r20_network.node[36].content_store 	hits[36] 	3195
scalar tree_4_3_u08_r20_network.node[36].content_store 	misses[36] 	8892
scalar tree_4_3_u08_r20_network.node[36].content_store 	decision_yes[36] 	244
scalar tree_4_3_u08_r20_network.node[36].content_store 	decision_no[36] 	8648
scalar tree_4_3_u08_r20_network.node[36].content_store 	decision_ratio[36] 	0.027440395861448
scalar tree_4_3_u08_r20_network.node[37].core_layer 	interests[37] 	12067
scalar tree_4_3_u08_r20_network.node[37].core_layer 	data[37] 	8932
scalar tree_4_3_u08_r20_network.node[37].content_store 	p_hit[37] 	0.25979945305378
scalar tree_4_3_u08_r20_network.node[37].content_store 	hits[37] 	3135
scalar tree_4_3_u08_r20_network.node[37].content_store 	misses[37] 	8932
scalar tree_4_3_u08_r20_network.node[37].content_store 	decision_yes[37] 	203
scalar tree_4_3_u08_r20_network.node[37].content_store 	decision_no[37] 	8729
scalar tree_4_3_u08_r20_network.node[37].content_store 	decision_ratio[37] 	0.022727272727273
scalar tree_4_3_u08_r20_network.node[38].core_layer 	interests[38] 	12188
scalar tree_4_3_u08_r20_network.node[38].core_layer 	data[38] 	8925
scalar tree_4_3_u08_r20_network.node[38].content_store 	p_hit[38] 	0.26772234985231
scalar tree_4_3_u08_r20_network.node[38].content_store 	hits[38] 	3263
scalar tree_4_3_u08_r20_network.node[38].content_store 	misses[38] 	8925
scalar tree_4_3_u08_r20_network.node[38].content_store 	decision_yes[38] 	202
scalar tree_4_3_u08_r20_network.node[38].content_store 	decision_no[38] 	8723
scalar tree_4_3_u08_r20_network.node[38].content_store 	decision_ratio[38] 	0.022633053221289
scalar tree_4_3_u08_r20_network.node[39].core_layer 	interests[39] 	12331
scalar tree_4_3_u08_r20_network.node[39].core_layer 	data[39] 	8983
scalar tree_4_3_u08_r20_network.node[39].content_store 	p_hit[39] 	0.27134863352526
scalar tree_4_3_u08_r20_network.node[39].content_store 	hits[39] 	3346
scalar tree_4_3_u08_r20_network.node[39].content_store 	misses[39] 	8985
scalar tree_4_3_u08_r20_network.node[39].content_store 	decision_yes[39] 	209
scalar tree_4_3_u08_r20_network.node[39].content_store 	decision_no[39] 	8774
scalar tree_4_3_u08_r20_network.node[39].content_store 	decision_ratio[39] 	0.023266169431148
scalar tree_4_3_u08_r20_network.client[13] 	hdistance[13] 	2.8291933205948
scalar tree_4_3_u08_r20_network.client[13] 	downloads[13] 	12037
scalar tree_4_3_u08_r20_network.client[13] 	avg_time[13] 	0.004279762893
scalar tree_4_3_u08_r20_network.client[14] 	hdistance[14] 	2.8048520613065
scalar tree_4_3_u08_r20_network.client[14] 	downloads[14] 	12201
scalar tree_4_3_u08_r20_network.client[14] 	avg_time[14] 	0.004240141223
scalar tree_4_3_u08_r20_network.client[15] 	hdistance[15] 	2.8377777777778
scalar tree_4_3_u08_r20_network.client[15] 	downloads[15] 	12150
scalar tree_4_3_u08_r20_network.client[15] 	avg_time[15] 	0.004289544296
scalar tree_4_3_u08_r20_network.client[16] 	hdistance[16] 	2.795262408973
scalar tree_4_3_u08_r20_network.client[16] 	downloads[16] 	11947
scalar tree_4_3_u08_r20_network.client[16] 	avg_time[16] 	0.004231245897
scalar tree_4_3_u08_r20_network.client[17] 	hdistance[17] 	2.8395506748261
scalar tree_4_3_u08_r20_network.client[17] 	downloads[17] 	11929
scalar tree_4_3_u08_r20_network.client[17] 	avg_time[17] 	0.004298094108
scalar tree_4_3_u08_r20_network.client[18] 	hdistance[18] 	2.8139050791007
scalar tree_4_3_u08_r20_network.client[18] 	downloads[18] 	12010
scalar tree_4_3_u08_r20_network.client[18] 	avg_time[18] 	0.004259613969
scalar tree_4_3_u08_r20_network.client[19] 	hdistance[19] 	2.7990665888824
scalar tree_4_3_u08_r20_network.client[19] 	downloads[19] 	11999
scalar tree_4_3_u08_r20_network.client[19] 	avg_time[19] 	0.0042342542
scalar tree_4_3_u08_r20_network.client[20] 	hdistance[20] 	2.825404732254
scalar tree_4_3_u08_r20_network.client[20] 	downloads[20] 	12045
scalar tree_4_3_u08_r20_network.client[20] 	avg_time[20] 	0.004274799839
scalar tree_4_3_u08_r20_network.client[21] 	hdistance[21] 	2.8310307292975
scalar tree_4_3_u08_r20_network.client[21] 	downloads[21] 	11943
scalar tree_4_3_u08_r20_network.client[21] 	avg_time[21] 	0.004286971465
scalar tree_4_3_u08_r20_network.client[22] 	hdistance[22] 	2.8284995808885
scalar tree_4_3_u08_r20_network.client[22] 	downloads[22] 	11930
scalar tree_4_3_u08_r20_network.client[22] 	avg_time[22] 	0.004278438706
scalar tree_4_3_u08_r20_network.client[23] 	hdistance[23] 	2.8110415962124
scalar tree_4_3_u08_r20_network.client[23] 	downloads[23] 	11828
scalar tree_4_3_u08_r20_network.client[23] 	avg_time[23] 	0.004251772492
scalar tree_4_3_u08_r20_network.client[24] 	hdistance[24] 	2.811768611503
scalar tree_4_3_u08_r20_network.client[24] 	downloads[24] 	12049
scalar tree_4_3_u08_r20_network.client[24] 	avg_time[24] 	0.004256160061
scalar tree_4_3_u08_r20_network.client[25] 	hdistance[25] 	2.8444534741975
scalar tree_4_3_u08_r20_network.client[25] 	downloads[25] 	12305
scalar tree_4_3_u08_r20_network.client[25] 	avg_time[25] 	0.00429598048
scalar tree_4_3_u08_r20_network.client[26] 	hdistance[26] 	2.877954411641
scalar tree_4_3_u08_r20_network.client[26] 	downloads[26] 	11889
scalar tree_4_3_u08_r20_network.client[26] 	avg_time[26] 	0.004346367638
scalar tree_4_3_u08_r20_network.client[27] 	hdistance[27] 	2.874265861527
scalar tree_4_3_u08_r20_network.client[27] 	downloads[27] 	12089
scalar tree_4_3_u08_r20_network.client[27] 	avg_time[27] 	0.0043407863
scalar tree_4_3_u08_r20_network.client[28] 	hdistance[28] 	2.8298192771084
scalar tree_4_3_u08_r20_network.client[28] 	downloads[28] 	11952
scalar tree_4_3_u08_r20_network.client[28] 	avg_time[28] 	0.004283513081
scalar tree_4_3_u08_r20_network.client[29] 	hdistance[29] 	2.8507387083157
scalar tree_4_3_u08_r20_network.client[29] 	downloads[29] 	11845
scalar tree_4_3_u08_r20_network.client[29] 	avg_time[29] 	0.004304091592
scalar tree_4_3_u08_r20_network.client[30] 	hdistance[30] 	2.8142049643647
scalar tree_4_3_u08_r20_network.client[30] 	downloads[30] 	12207
scalar tree_4_3_u08_r20_network.client[30] 	avg_time[30] 	0.004256571006
scalar tree_4_3_u08_r20_network.client[31] 	hdistance[31] 	2.8275313807531
scalar tree_4_3_u08_r20_network.client[31] 	downloads[31] 	11950
scalar tree_4_3_u08_r20_network.client[31] 	avg_time[31] 	0.004276603739
scalar tree_4_3_u08_r20_network.client[32] 	hdistance[32] 	2.8150322473954
scalar tree_4_3_u08_r20_network.client[32] 	downloads[32] 	12094
scalar tree_4_3_u08_r20_network.client[32] 	avg_time[32] 	0.004257480039
scalar tree_4_3_u08_r20_network.client[33] 	hdistance[33] 	2.7777592252463
scalar tree_4_3_u08_r20_network.client[33] 	downloads[33] 	11978
scalar tree_4_3_u08_r20_network.client[33] 	avg_time[33] 	0.004202868943
scalar tree_4_3_u08_r20_network.client[34] 	hdistance[34] 	2.8222203489842
scalar tree_4_3_u08_r20_network.client[34] 	downloads[34] 	11863
scalar tree_4_3_u08_r20_network.client[34] 	avg_time[34] 	0.004270596078
scalar tree_4_3_u08_r20_network.client[35] 	hdistance[35] 	2.841999833069
scalar tree_4_3_u08_r20_network.client[35] 	downloads[35] 	11981
scalar tree_4_3_u08_r20_network.client[35] 	avg_time[35] 	0.004298469568
scalar tree_4_3_u08_r20_network.client[36] 	hdistance[36] 	2.849342268553
scalar tree_4_3_u08_r20_network.client[36] 	downloads[36] 	12087
scalar tree_4_3_u08_r20_network.client[36] 	avg_time[36] 	0.00430726924
scalar tree_4_3_u08_r20_network.client[37] 	hdistance[37] 	2.8885389906356
scalar tree_4_3_u08_r20_network.client[37] 	downloads[37] 	12067
scalar tree_4_3_u08_r20_network.client[37] 	avg_time[37] 	0.004360484234
scalar tree_4_3_u08_r20_network.client[38] 	hdistance[38] 	2.8601903511651
scalar tree_4_3_u08_r20_network.client[38] 	downloads[38] 	12188
scalar tree_4_3_u08_r20_network.client[38] 	avg_time[38] 	0.004314568679
scalar tree_4_3_u08_r20_network.client[39] 	hdistance[39] 	2.8471895530862
scalar tree_4_3_u08_r20_network.client[39] 	downloads[39] 	12329
scalar tree_4_3_u08_r20_network.client[39] 	avg_time[39] 	0.004292318623
