version 2
run General-64-20160819-11:39:57-2054
attr a 0.9
attr cd lcd
attr configname General
attr cr lru
attr datetime 20160819-11:39:57
attr experiment General
attr fsize 1
attr inifile hw5115/scenario_A/NRR-LCD.ini
attr iterationvars "$name=tree_4_3, $un=03, $rep=5, $cd=lcd, $cr=lru, $fsize=1, $a=0.9, $sl=nrr, $ttl=1000, $variance=0.05"
attr iterationvars2 "$name=tree_4_3, $un=03, $rep=5, $cd=lcd, $cr=lru, $fsize=1, $a=0.9, $sl=nrr, $ttl=1000, $variance=0.05, $repetition=0"
attr measurement "$name=tree_4_3, $un=03, $rep=5, $cd=lcd, $cr=lru, $fsize=1, $a=0.9, $sl=nrr, $ttl=1000, $variance=0.05"
attr name tree_4_3
attr network networks.${name}_u${un}_r${rep}_network
attr processid 2054
attr rep 5
attr repetition 0
attr replication #0
attr resultdir results
attr runnumber 64
attr seedset 5
attr sl nrr
attr ttl 1000
attr un 03
attr variance 0.05

scalar . 	a 	0.9
scalar . 	fsize 	1
scalar . 	rep 	5
scalar . 	ttl 	1000
scalar . 	un 	03
scalar . 	variance 	0.05
scalar tree_4_3_u03_r5_network.content_distribution 	repo-0 	0
scalar tree_4_3_u03_r5_network.content_distribution 	client-0 	13
scalar tree_4_3_u03_r5_network.content_distribution 	client-1 	14
scalar tree_4_3_u03_r5_network.content_distribution 	client-2 	15
scalar tree_4_3_u03_r5_network.content_distribution 	client-3 	16
scalar tree_4_3_u03_r5_network.content_distribution 	client-4 	17
scalar tree_4_3_u03_r5_network.content_distribution 	client-5 	18
scalar tree_4_3_u03_r5_network.content_distribution 	client-6 	19
scalar tree_4_3_u03_r5_network.content_distribution 	client-7 	20
scalar tree_4_3_u03_r5_network.content_distribution 	client-8 	21
scalar tree_4_3_u03_r5_network.content_distribution 	client-9 	22
scalar tree_4_3_u03_r5_network.content_distribution 	client-10 	23
scalar tree_4_3_u03_r5_network.content_distribution 	client-11 	24
scalar tree_4_3_u03_r5_network.content_distribution 	client-12 	25
scalar tree_4_3_u03_r5_network.content_distribution 	client-13 	26
scalar tree_4_3_u03_r5_network.content_distribution 	client-14 	27
scalar tree_4_3_u03_r5_network.content_distribution 	client-15 	28
scalar tree_4_3_u03_r5_network.content_distribution 	client-16 	29
scalar tree_4_3_u03_r5_network.content_distribution 	client-17 	30
scalar tree_4_3_u03_r5_network.content_distribution 	client-18 	31
scalar tree_4_3_u03_r5_network.content_distribution 	client-19 	32
scalar tree_4_3_u03_r5_network.content_distribution 	client-20 	33
scalar tree_4_3_u03_r5_network.content_distribution 	client-21 	34
scalar tree_4_3_u03_r5_network.content_distribution 	client-22 	35
scalar tree_4_3_u03_r5_network.content_distribution 	client-23 	36
scalar tree_4_3_u03_r5_network.content_distribution 	client-24 	37
scalar tree_4_3_u03_r5_network.content_distribution 	client-25 	38
scalar tree_4_3_u03_r5_network.content_distribution 	client-26 	39
scalar tree_4_3_u03_r5_network.content_distribution 	repo-0_card 	100000
scalar tree_4_3_u03_r5_network.content_distribution 	repo-0_price 	0
scalar tree_4_3_u03_r5_network.statistics 	stabilization_time 	679.9
scalar tree_4_3_u03_r5_network.statistics 	p_hit 	0.21432823278206
scalar tree_4_3_u03_r5_network.statistics 	interests 	24992.85
scalar tree_4_3_u03_r5_network.statistics 	data 	16880.65
scalar tree_4_3_u03_r5_network.statistics 	hdistance 	2.7105165076925
scalar tree_4_3_u03_r5_network.statistics 	avg_time 	0.00416183307
scalar tree_4_3_u03_r5_network.statistics 	downloads 	324479
scalar tree_4_3_u03_r5_network.statistics 	total_cost 	0
scalar tree_4_3_u03_r5_network.statistics 	total_replicas 	100000
scalar tree_4_3_u03_r5_network.statistics 	inner_hit 	0.37042767020362
scalar tree_4_3_u03_r5_network.node[0].core_layer 	interests[0] 	205700
scalar tree_4_3_u03_r5_network.node[0].core_layer 	repo_load[0] 	204283
scalar tree_4_3_u03_r5_network.node[0].core_layer 	data[0] 	0
scalar tree_4_3_u03_r5_network.node[0].core_layer 	repo_int[0] 	204283
scalar tree_4_3_u03_r5_network.node[0].content_store 	p_hit[0] 	0.0068886728245017
scalar tree_4_3_u03_r5_network.node[0].content_store 	hits[0] 	1417
scalar tree_4_3_u03_r5_network.node[0].content_store 	misses[0] 	204283
scalar tree_4_3_u03_r5_network.node[0].content_store 	decision_yes[0] 	204283
scalar tree_4_3_u03_r5_network.node[0].content_store 	decision_no[0] 	0
scalar tree_4_3_u03_r5_network.node[0].content_store 	decision_ratio[0] 	1
scalar tree_4_3_u03_r5_network.node[1].core_layer 	interests[1] 	103600
scalar tree_4_3_u03_r5_network.node[1].core_layer 	data[1] 	101233
scalar tree_4_3_u03_r5_network.node[1].content_store 	p_hit[1] 	0.02280888030888
scalar tree_4_3_u03_r5_network.node[1].content_store 	hits[1] 	2363
scalar tree_4_3_u03_r5_network.node[1].content_store 	misses[1] 	101237
scalar tree_4_3_u03_r5_network.node[1].content_store 	decision_yes[1] 	2754
scalar tree_4_3_u03_r5_network.node[1].content_store 	decision_no[1] 	98479
scalar tree_4_3_u03_r5_network.node[1].content_store 	decision_ratio[1] 	0.027204567680499
scalar tree_4_3_u03_r5_network.node[2].core_layer 	interests[2] 	40606
scalar tree_4_3_u03_r5_network.node[2].core_layer 	data[2] 	39198
scalar tree_4_3_u03_r5_network.node[2].content_store 	p_hit[2] 	0.034674678618923
scalar tree_4_3_u03_r5_network.node[2].content_store 	hits[2] 	1408
scalar tree_4_3_u03_r5_network.node[2].content_store 	misses[2] 	39198
scalar tree_4_3_u03_r5_network.node[2].content_store 	decision_yes[2] 	1008
scalar tree_4_3_u03_r5_network.node[2].content_store 	decision_no[2] 	38190
scalar tree_4_3_u03_r5_network.node[2].content_store 	decision_ratio[2] 	0.025715597734578
scalar tree_4_3_u03_r5_network.node[3].core_layer 	interests[3] 	72972
scalar tree_4_3_u03_r5_network.node[3].core_layer 	data[3] 	70913
scalar tree_4_3_u03_r5_network.node[3].content_store 	p_hit[3] 	0.028216302143288
scalar tree_4_3_u03_r5_network.node[3].content_store 	hits[3] 	2059
scalar tree_4_3_u03_r5_network.node[3].content_store 	misses[3] 	70913
scalar tree_4_3_u03_r5_network.node[3].content_store 	decision_yes[3] 	1879
scalar tree_4_3_u03_r5_network.node[3].content_store 	decision_no[3] 	69034
scalar tree_4_3_u03_r5_network.node[3].content_store 	decision_ratio[3] 	0.026497257202488
scalar tree_4_3_u03_r5_network.node[4].core_layer 	interests[4] 	26265
scalar tree_4_3_u03_r5_network.node[4].core_layer 	data[4] 	24756
scalar tree_4_3_u03_r5_network.node[4].content_store 	p_hit[4] 	0.057414810584428
scalar tree_4_3_u03_r5_network.node[4].content_store 	hits[4] 	1508
scalar tree_4_3_u03_r5_network.node[4].content_store 	misses[4] 	24757
scalar tree_4_3_u03_r5_network.node[4].content_store 	decision_yes[4] 	1190
scalar tree_4_3_u03_r5_network.node[4].content_store 	decision_no[4] 	23566
scalar tree_4_3_u03_r5_network.node[4].content_store 	decision_ratio[4] 	0.048069154952335
scalar tree_4_3_u03_r5_network.node[5].core_layer 	interests[5] 	26813
scalar tree_4_3_u03_r5_network.node[5].core_layer 	data[5] 	25208
scalar tree_4_3_u03_r5_network.node[5].content_store 	p_hit[5] 	0.059859023607951
scalar tree_4_3_u03_r5_network.node[5].content_store 	hits[5] 	1605
scalar tree_4_3_u03_r5_network.node[5].content_store 	misses[5] 	25208
scalar tree_4_3_u03_r5_network.node[5].content_store 	decision_yes[5] 	1427
scalar tree_4_3_u03_r5_network.node[5].content_store 	decision_no[5] 	23781
scalar tree_4_3_u03_r5_network.node[5].content_store 	decision_ratio[5] 	0.056609013011742
scalar tree_4_3_u03_r5_network.node[6].core_layer 	interests[6] 	27519
scalar tree_4_3_u03_r5_network.node[6].core_layer 	data[6] 	25550
scalar tree_4_3_u03_r5_network.node[6].content_store 	p_hit[6] 	0.071550565064138
scalar tree_4_3_u03_r5_network.node[6].content_store 	hits[6] 	1969
scalar tree_4_3_u03_r5_network.node[6].content_store 	misses[6] 	25550
scalar tree_4_3_u03_r5_network.node[6].content_store 	decision_yes[6] 	1699
scalar tree_4_3_u03_r5_network.node[6].content_store 	decision_no[6] 	23851
scalar tree_4_3_u03_r5_network.node[6].content_store 	decision_ratio[6] 	0.066497064579256
scalar tree_4_3_u03_r5_network.node[7].core_layer 	interests[7] 	35845
scalar tree_4_3_u03_r5_network.node[7].core_layer 	data[7] 	33166
scalar tree_4_3_u03_r5_network.node[7].content_store 	p_hit[7] 	0.074738457246478
scalar tree_4_3_u03_r5_network.node[7].content_store 	hits[7] 	2679
scalar tree_4_3_u03_r5_network.node[7].content_store 	misses[7] 	33166
scalar tree_4_3_u03_r5_network.node[7].content_store 	decision_yes[7] 	2891
scalar tree_4_3_u03_r5_network.node[7].content_store 	decision_no[7] 	30275
scalar tree_4_3_u03_r5_network.node[7].content_store 	decision_ratio[7] 	0.087167581257915
scalar tree_4_3_u03_r5_network.node[8].core_layer 	interests[8] 	25785
scalar tree_4_3_u03_r5_network.node[8].core_layer 	data[8] 	24602
scalar tree_4_3_u03_r5_network.node[8].content_store 	p_hit[8] 	0.045879387240644
scalar tree_4_3_u03_r5_network.node[8].content_store 	hits[8] 	1183
scalar tree_4_3_u03_r5_network.node[8].content_store 	misses[8] 	24602
scalar tree_4_3_u03_r5_network.node[8].content_store 	decision_yes[8] 	1040
scalar tree_4_3_u03_r5_network.node[8].content_store 	decision_no[8] 	23562
scalar tree_4_3_u03_r5_network.node[8].content_store 	decision_ratio[8] 	0.042272985936103
scalar tree_4_3_u03_r5_network.node[9].core_layer 	interests[9] 	20582
scalar tree_4_3_u03_r5_network.node[9].core_layer 	data[9] 	18178
scalar tree_4_3_u03_r5_network.node[9].content_store 	p_hit[9] 	0.11675250218638
scalar tree_4_3_u03_r5_network.node[9].content_store 	hits[9] 	2403
scalar tree_4_3_u03_r5_network.node[9].content_store 	misses[9] 	18179
scalar tree_4_3_u03_r5_network.node[9].content_store 	decision_yes[9] 	2409
scalar tree_4_3_u03_r5_network.node[9].content_store 	decision_no[9] 	15769
scalar tree_4_3_u03_r5_network.node[9].content_store 	decision_ratio[9] 	0.13252282979426
scalar tree_4_3_u03_r5_network.node[10].core_layer 	interests[10] 	34512
scalar tree_4_3_u03_r5_network.node[10].core_layer 	data[10] 	32730
scalar tree_4_3_u03_r5_network.node[10].content_store 	p_hit[10] 	0.051605238757534
scalar tree_4_3_u03_r5_network.node[10].content_store 	hits[10] 	1781
scalar tree_4_3_u03_r5_network.node[10].content_store 	misses[10] 	32731
scalar tree_4_3_u03_r5_network.node[10].content_store 	decision_yes[10] 	1659
scalar tree_4_3_u03_r5_network.node[10].content_store 	decision_no[10] 	31071
scalar tree_4_3_u03_r5_network.node[10].content_store 	decision_ratio[10] 	0.050687442713107
scalar tree_4_3_u03_r5_network.node[11].core_layer 	interests[11] 	35267
scalar tree_4_3_u03_r5_network.node[11].core_layer 	data[11] 	33461
scalar tree_4_3_u03_r5_network.node[11].content_store 	p_hit[11] 	0.051209345847393
scalar tree_4_3_u03_r5_network.node[11].content_store 	hits[11] 	1806
scalar tree_4_3_u03_r5_network.node[11].content_store 	misses[11] 	33461
scalar tree_4_3_u03_r5_network.node[11].content_store 	decision_yes[11] 	1901
scalar tree_4_3_u03_r5_network.node[11].content_store 	decision_no[11] 	31560
scalar tree_4_3_u03_r5_network.node[11].content_store 	decision_ratio[11] 	0.056812408475539
scalar tree_4_3_u03_r5_network.node[12].core_layer 	interests[12] 	10499
scalar tree_4_3_u03_r5_network.node[12].core_layer 	data[12] 	8790
scalar tree_4_3_u03_r5_network.node[12].content_store 	p_hit[12] 	0.16268216020573
scalar tree_4_3_u03_r5_network.node[12].content_store 	hits[12] 	1708
scalar tree_4_3_u03_r5_network.node[12].content_store 	misses[12] 	8791
scalar tree_4_3_u03_r5_network.node[12].content_store 	decision_yes[12] 	878
scalar tree_4_3_u03_r5_network.node[12].content_store 	decision_no[12] 	7912
scalar tree_4_3_u03_r5_network.node[12].content_store 	decision_ratio[12] 	0.099886234357224
scalar tree_4_3_u03_r5_network.node[13].core_layer 	interests[13] 	12109
scalar tree_4_3_u03_r5_network.node[13].core_layer 	data[13] 	8628
scalar tree_4_3_u03_r5_network.node[13].content_store 	p_hit[13] 	0.28738954496655
scalar tree_4_3_u03_r5_network.node[13].content_store 	hits[13] 	3480
scalar tree_4_3_u03_r5_network.node[13].content_store 	misses[13] 	8629
scalar tree_4_3_u03_r5_network.node[13].content_store 	decision_yes[13] 	360
scalar tree_4_3_u03_r5_network.node[13].content_store 	decision_no[13] 	8268
scalar tree_4_3_u03_r5_network.node[13].content_store 	decision_ratio[13] 	0.041724617524339
scalar tree_4_3_u03_r5_network.node[14].core_layer 	interests[14] 	12065
scalar tree_4_3_u03_r5_network.node[14].core_layer 	data[14] 	8698
scalar tree_4_3_u03_r5_network.node[14].content_store 	p_hit[14] 	0.2790716949855
scalar tree_4_3_u03_r5_network.node[14].content_store 	hits[14] 	3367
scalar tree_4_3_u03_r5_network.node[14].content_store 	misses[14] 	8698
scalar tree_4_3_u03_r5_network.node[14].content_store 	decision_yes[14] 	364
scalar tree_4_3_u03_r5_network.node[14].content_store 	decision_no[14] 	8334
scalar tree_4_3_u03_r5_network.node[14].content_store 	decision_ratio[14] 	0.04184870085077
scalar tree_4_3_u03_r5_network.node[15].core_layer 	interests[15] 	12533
scalar tree_4_3_u03_r5_network.node[15].core_layer 	data[15] 	8869
scalar tree_4_3_u03_r5_network.node[15].content_store 	p_hit[15] 	0.29234820075002
scalar tree_4_3_u03_r5_network.node[15].content_store 	hits[15] 	3664
scalar tree_4_3_u03_r5_network.node[15].content_store 	misses[15] 	8869
scalar tree_4_3_u03_r5_network.node[15].content_store 	decision_yes[15] 	638
scalar tree_4_3_u03_r5_network.node[15].content_store 	decision_no[15] 	8231
scalar tree_4_3_u03_r5_network.node[15].content_store 	decision_ratio[15] 	0.071935956703123
scalar tree_4_3_u03_r5_network.node[16].core_layer 	interests[16] 	12161
scalar tree_4_3_u03_r5_network.node[16].core_layer 	data[16] 	8618
scalar tree_4_3_u03_r5_network.node[16].content_store 	p_hit[16] 	0.29134117260094
scalar tree_4_3_u03_r5_network.node[16].content_store 	hits[16] 	3543
scalar tree_4_3_u03_r5_network.node[16].content_store 	misses[16] 	8618
scalar tree_4_3_u03_r5_network.node[16].content_store 	decision_yes[16] 	377
scalar tree_4_3_u03_r5_network.node[16].content_store 	decision_no[16] 	8241
scalar tree_4_3_u03_r5_network.node[16].content_store 	decision_ratio[16] 	0.043745648642376
scalar tree_4_3_u03_r5_network.node[17].core_layer 	interests[17] 	12381
scalar tree_4_3_u03_r5_network.node[17].core_layer 	data[17] 	8806
scalar tree_4_3_u03_r5_network.node[17].content_store 	p_hit[17] 	0.28874888942735
scalar tree_4_3_u03_r5_network.node[17].content_store 	hits[17] 	3575
scalar tree_4_3_u03_r5_network.node[17].content_store 	misses[17] 	8806
scalar tree_4_3_u03_r5_network.node[17].content_store 	decision_yes[17] 	373
scalar tree_4_3_u03_r5_network.node[17].content_store 	decision_no[17] 	8433
scalar tree_4_3_u03_r5_network.node[17].content_store 	decision_ratio[17] 	0.042357483533954
scalar tree_4_3_u03_r5_network.node[18].core_layer 	interests[18] 	12283
scalar tree_4_3_u03_r5_network.node[18].core_layer 	data[18] 	8819
scalar tree_4_3_u03_r5_network.node[18].content_store 	p_hit[18] 	0.28201579418709
scalar tree_4_3_u03_r5_network.node[18].content_store 	hits[18] 	3464
scalar tree_4_3_u03_r5_network.node[18].content_store 	misses[18] 	8819
scalar tree_4_3_u03_r5_network.node[18].content_store 	decision_yes[18] 	394
scalar tree_4_3_u03_r5_network.node[18].content_store 	decision_no[18] 	8425
scalar tree_4_3_u03_r5_network.node[18].content_store 	decision_ratio[18] 	0.044676267150471
scalar tree_4_3_u03_r5_network.node[19].core_layer 	interests[19] 	12341
scalar tree_4_3_u03_r5_network.node[19].core_layer 	data[19] 	8770
scalar tree_4_3_u03_r5_network.node[19].content_store 	p_hit[19] 	0.28927963698242
scalar tree_4_3_u03_r5_network.node[19].content_store 	hits[19] 	3570
scalar tree_4_3_u03_r5_network.node[19].content_store 	misses[19] 	8771
scalar tree_4_3_u03_r5_network.node[19].content_store 	decision_yes[19] 	357
scalar tree_4_3_u03_r5_network.node[19].content_store 	decision_no[19] 	8413
scalar tree_4_3_u03_r5_network.node[19].content_store 	decision_ratio[19] 	0.040706955530217
scalar tree_4_3_u03_r5_network.node[20].core_layer 	interests[20] 	12243
scalar tree_4_3_u03_r5_network.node[20].core_layer 	data[20] 	8752
scalar tree_4_3_u03_r5_network.node[20].content_store 	p_hit[20] 	0.28514253042555
scalar tree_4_3_u03_r5_network.node[20].content_store 	hits[20] 	3491
scalar tree_4_3_u03_r5_network.node[20].content_store 	misses[20] 	8752
scalar tree_4_3_u03_r5_network.node[20].content_store 	decision_yes[20] 	432
scalar tree_4_3_u03_r5_network.node[20].content_store 	decision_no[20] 	8320
scalar tree_4_3_u03_r5_network.node[20].content_store 	decision_ratio[20] 	0.049360146252285
scalar tree_4_3_u03_r5_network.node[21].core_layer 	interests[21] 	12486
scalar tree_4_3_u03_r5_network.node[21].core_layer 	data[21] 	8966
scalar tree_4_3_u03_r5_network.node[21].content_store 	p_hit[21] 	0.28191574563511
scalar tree_4_3_u03_r5_network.node[21].content_store 	hits[21] 	3520
scalar tree_4_3_u03_r5_network.node[21].content_store 	misses[21] 	8966
scalar tree_4_3_u03_r5_network.node[21].content_store 	decision_yes[21] 	414
scalar tree_4_3_u03_r5_network.node[21].content_store 	decision_no[21] 	8552
scalar tree_4_3_u03_r5_network.node[21].content_store 	decision_ratio[21] 	0.046174436761097
scalar tree_4_3_u03_r5_network.node[22].core_layer 	interests[22] 	12153
scalar tree_4_3_u03_r5_network.node[22].core_layer 	data[22] 	8627
scalar tree_4_3_u03_r5_network.node[22].content_store 	p_hit[22] 	0.29013412326175
scalar tree_4_3_u03_r5_network.node[22].content_store 	hits[22] 	3526
scalar tree_4_3_u03_r5_network.node[22].content_store 	misses[22] 	8627
scalar tree_4_3_u03_r5_network.node[22].content_store 	decision_yes[22] 	460
scalar tree_4_3_u03_r5_network.node[22].content_store 	decision_no[22] 	8167
scalar tree_4_3_u03_r5_network.node[22].content_store 	decision_ratio[22] 	0.053320969050655
scalar tree_4_3_u03_r5_network.node[23].core_layer 	interests[23] 	12344
scalar tree_4_3_u03_r5_network.node[23].core_layer 	data[23] 	8669
scalar tree_4_3_u03_r5_network.node[23].content_store 	p_hit[23] 	0.29771548930655
scalar tree_4_3_u03_r5_network.node[23].content_store 	hits[23] 	3675
scalar tree_4_3_u03_r5_network.node[23].content_store 	misses[23] 	8669
scalar tree_4_3_u03_r5_network.node[23].content_store 	decision_yes[23] 	409
scalar tree_4_3_u03_r5_network.node[23].content_store 	decision_no[23] 	8260
scalar tree_4_3_u03_r5_network.node[23].content_store 	decision_ratio[23] 	0.047179605490829
scalar tree_4_3_u03_r5_network.node[24].core_layer 	interests[24] 	12386
scalar tree_4_3_u03_r5_network.node[24].core_layer 	data[24] 	8823
scalar tree_4_3_u03_r5_network.node[24].content_store 	p_hit[24] 	0.28766349103827
scalar tree_4_3_u03_r5_network.node[24].content_store 	hits[24] 	3563
scalar tree_4_3_u03_r5_network.node[24].content_store 	misses[24] 	8823
scalar tree_4_3_u03_r5_network.node[24].content_store 	decision_yes[24] 	421
scalar tree_4_3_u03_r5_network.node[24].content_store 	decision_no[24] 	8402
scalar tree_4_3_u03_r5_network.node[24].content_store 	decision_ratio[24] 	0.047716196305112
scalar tree_4_3_u03_r5_network.node[25].core_layer 	interests[25] 	12338
scalar tree_4_3_u03_r5_network.node[25].core_layer 	data[25] 	8885
scalar tree_4_3_u03_r5_network.node[25].content_store 	p_hit[25] 	0.27986707732209
scalar tree_4_3_u03_r5_network.node[25].content_store 	hits[25] 	3453
scalar tree_4_3_u03_r5_network.node[25].content_store 	misses[25] 	8885
scalar tree_4_3_u03_r5_network.node[25].content_store 	decision_yes[25] 	387
scalar tree_4_3_u03_r5_network.node[25].content_store 	decision_no[25] 	8498
scalar tree_4_3_u03_r5_network.node[25].content_store 	decision_ratio[25] 	0.043556555993247
scalar tree_4_3_u03_r5_network.node[26].core_layer 	interests[26] 	12089
scalar tree_4_3_u03_r5_network.node[26].core_layer 	data[26] 	8693
scalar tree_4_3_u03_r5_network.node[26].content_store 	p_hit[26] 	0.28091653569361
scalar tree_4_3_u03_r5_network.node[26].content_store 	hits[26] 	3396
scalar tree_4_3_u03_r5_network.node[26].content_store 	misses[26] 	8693
scalar tree_4_3_u03_r5_network.node[26].content_store 	decision_yes[26] 	344
scalar tree_4_3_u03_r5_network.node[26].content_store 	decision_no[26] 	8349
scalar tree_4_3_u03_r5_network.node[26].content_store 	decision_ratio[26] 	0.039572069481192
scalar tree_4_3_u03_r5_network.node[27].core_layer 	interests[27] 	12743
scalar tree_4_3_u03_r5_network.node[27].core_layer 	data[27] 	8857
scalar tree_4_3_u03_r5_network.node[27].content_store 	p_hit[27] 	0.30495173820921
scalar tree_4_3_u03_r5_network.node[27].content_store 	hits[27] 	3886
scalar tree_4_3_u03_r5_network.node[27].content_store 	misses[27] 	8857
scalar tree_4_3_u03_r5_network.node[27].content_store 	decision_yes[27] 	703
scalar tree_4_3_u03_r5_network.node[27].content_store 	decision_no[27] 	8154
scalar tree_4_3_u03_r5_network.node[27].content_store 	decision_ratio[27] 	0.079372247939483
scalar tree_4_3_u03_r5_network.node[28].core_layer 	interests[28] 	12907
scalar tree_4_3_u03_r5_network.node[28].core_layer 	data[28] 	8929
scalar tree_4_3_u03_r5_network.node[28].content_store 	p_hit[28] 	0.30820485008135
scalar tree_4_3_u03_r5_network.node[28].content_store 	hits[28] 	3978
scalar tree_4_3_u03_r5_network.node[28].content_store 	misses[28] 	8929
scalar tree_4_3_u03_r5_network.node[28].content_store 	decision_yes[28] 	755
scalar tree_4_3_u03_r5_network.node[28].content_store 	decision_no[28] 	8174
scalar tree_4_3_u03_r5_network.node[28].content_store 	decision_ratio[28] 	0.084555941314817
scalar tree_4_3_u03_r5_network.node[29].core_layer 	interests[29] 	12589
scalar tree_4_3_u03_r5_network.node[29].core_layer 	data[29] 	8977
scalar tree_4_3_u03_r5_network.node[29].content_store 	p_hit[29] 	0.28683771546588
scalar tree_4_3_u03_r5_network.node[29].content_store 	hits[29] 	3611
scalar tree_4_3_u03_r5_network.node[29].content_store 	misses[29] 	8978
scalar tree_4_3_u03_r5_network.node[29].content_store 	decision_yes[29] 	405
scalar tree_4_3_u03_r5_network.node[29].content_store 	decision_no[29] 	8572
scalar tree_4_3_u03_r5_network.node[29].content_store 	decision_ratio[29] 	0.045115294641863
scalar tree_4_3_u03_r5_network.node[30].core_layer 	interests[30] 	12394
scalar tree_4_3_u03_r5_network.node[30].core_layer 	data[30] 	8867
scalar tree_4_3_u03_r5_network.node[30].content_store 	p_hit[30] 	0.28457318057124
scalar tree_4_3_u03_r5_network.node[30].content_store 	hits[30] 	3527
scalar tree_4_3_u03_r5_network.node[30].content_store 	misses[30] 	8867
scalar tree_4_3_u03_r5_network.node[30].content_store 	decision_yes[30] 	404
scalar tree_4_3_u03_r5_network.node[30].content_store 	decision_no[30] 	8463
scalar tree_4_3_u03_r5_network.node[30].content_store 	decision_ratio[30] 	0.045562196909891
scalar tree_4_3_u03_r5_network.node[31].core_layer 	interests[31] 	12266
scalar tree_4_3_u03_r5_network.node[31].core_layer 	data[31] 	8765
scalar tree_4_3_u03_r5_network.node[31].content_store 	p_hit[31] 	0.28550464699168
scalar tree_4_3_u03_r5_network.node[31].content_store 	hits[31] 	3502
scalar tree_4_3_u03_r5_network.node[31].content_store 	misses[31] 	8764
scalar tree_4_3_u03_r5_network.node[31].content_store 	decision_yes[31] 	407
scalar tree_4_3_u03_r5_network.node[31].content_store 	decision_no[31] 	8358
scalar tree_4_3_u03_r5_network.node[31].content_store 	decision_ratio[31] 	0.046434683399886
scalar tree_4_3_u03_r5_network.node[32].core_layer 	interests[32] 	12394
scalar tree_4_3_u03_r5_network.node[32].core_layer 	data[32] 	8879
scalar tree_4_3_u03_r5_network.node[32].content_store 	p_hit[32] 	0.28360497014685
scalar tree_4_3_u03_r5_network.node[32].content_store 	hits[32] 	3515
scalar tree_4_3_u03_r5_network.node[32].content_store 	misses[32] 	8879
scalar tree_4_3_u03_r5_network.node[32].content_store 	decision_yes[32] 	407
scalar tree_4_3_u03_r5_network.node[32].content_store 	decision_no[32] 	8472
scalar tree_4_3_u03_r5_network.node[32].content_store 	decision_ratio[32] 	0.04583849532605
scalar tree_4_3_u03_r5_network.node[33].core_layer 	interests[33] 	12366
scalar tree_4_3_u03_r5_network.node[33].core_layer 	data[33] 	8747
scalar tree_4_3_u03_r5_network.node[33].content_store 	p_hit[33] 	0.29265728610707
scalar tree_4_3_u03_r5_network.node[33].content_store 	hits[33] 	3619
scalar tree_4_3_u03_r5_network.node[33].content_store 	misses[33] 	8747
scalar tree_4_3_u03_r5_network.node[33].content_store 	decision_yes[33] 	690
scalar tree_4_3_u03_r5_network.node[33].content_store 	decision_no[33] 	8057
scalar tree_4_3_u03_r5_network.node[33].content_store 	decision_ratio[33] 	0.078884188864754
scalar tree_4_3_u03_r5_network.node[34].core_layer 	interests[34] 	12396
scalar tree_4_3_u03_r5_network.node[34].core_layer 	data[34] 	8907
scalar tree_4_3_u03_r5_network.node[34].content_store 	p_hit[34] 	0.28138109067441
scalar tree_4_3_u03_r5_network.node[34].content_store 	hits[34] 	3488
scalar tree_4_3_u03_r5_network.node[34].content_store 	misses[34] 	8908
scalar tree_4_3_u03_r5_network.node[34].content_store 	decision_yes[34] 	379
scalar tree_4_3_u03_r5_network.node[34].content_store 	decision_no[34] 	8528
scalar tree_4_3_u03_r5_network.node[34].content_store 	decision_ratio[34] 	0.042550802739418
scalar tree_4_3_u03_r5_network.node[35].core_layer 	interests[35] 	12240
scalar tree_4_3_u03_r5_network.node[35].core_layer 	data[35] 	8718
scalar tree_4_3_u03_r5_network.node[35].content_store 	p_hit[35] 	0.28774509803922
scalar tree_4_3_u03_r5_network.node[35].content_store 	hits[35] 	3522
scalar tree_4_3_u03_r5_network.node[35].content_store 	misses[35] 	8718
scalar tree_4_3_u03_r5_network.node[35].content_store 	decision_yes[35] 	371
scalar tree_4_3_u03_r5_network.node[35].content_store 	decision_no[35] 	8347
scalar tree_4_3_u03_r5_network.node[35].content_store 	decision_ratio[35] 	0.042555632025694
scalar tree_4_3_u03_r5_network.node[36].core_layer 	interests[36] 	12325
scalar tree_4_3_u03_r5_network.node[36].core_layer 	data[36] 	8700
scalar tree_4_3_u03_r5_network.node[36].content_store 	p_hit[36] 	0.29403651115619
scalar tree_4_3_u03_r5_network.node[36].content_store 	hits[36] 	3624
scalar tree_4_3_u03_r5_network.node[36].content_store 	misses[36] 	8701
scalar tree_4_3_u03_r5_network.node[36].content_store 	decision_yes[36] 	423
scalar tree_4_3_u03_r5_network.node[36].content_store 	decision_no[36] 	8277
scalar tree_4_3_u03_r5_network.node[36].content_store 	decision_ratio[36] 	0.048620689655172
scalar tree_4_3_u03_r5_network.node[37].core_layer 	interests[37] 	12234
scalar tree_4_3_u03_r5_network.node[37].core_layer 	data[37] 	8683
scalar tree_4_3_u03_r5_network.node[37].content_store 	p_hit[37] 	0.2902566617623
scalar tree_4_3_u03_r5_network.node[37].content_store 	hits[37] 	3551
scalar tree_4_3_u03_r5_network.node[37].content_store 	misses[37] 	8683
scalar tree_4_3_u03_r5_network.node[37].content_store 	decision_yes[37] 	727
scalar tree_4_3_u03_r5_network.node[37].content_store 	decision_no[37] 	7956
scalar tree_4_3_u03_r5_network.node[37].content_store 	decision_ratio[37] 	0.083726822526776
scalar tree_4_3_u03_r5_network.node[38].core_layer 	interests[38] 	12724
scalar tree_4_3_u03_r5_network.node[38].core_layer 	data[38] 	8992
scalar tree_4_3_u03_r5_network.node[38].content_store 	p_hit[38] 	0.2933039924552
scalar tree_4_3_u03_r5_network.node[38].content_store 	hits[38] 	3732
scalar tree_4_3_u03_r5_network.node[38].content_store 	misses[38] 	8992
scalar tree_4_3_u03_r5_network.node[38].content_store 	decision_yes[38] 	653
scalar tree_4_3_u03_r5_network.node[38].content_store 	decision_no[38] 	8339
scalar tree_4_3_u03_r5_network.node[38].content_store 	decision_ratio[38] 	0.072620106761566
scalar tree_4_3_u03_r5_network.node[39].core_layer 	interests[39] 	12259
scalar tree_4_3_u03_r5_network.node[39].core_layer 	data[39] 	8797
scalar tree_4_3_u03_r5_network.node[39].content_store 	p_hit[39] 	0.28224161840281
scalar tree_4_3_u03_r5_network.node[39].content_store 	hits[39] 	3460
scalar tree_4_3_u03_r5_network.node[39].content_store 	misses[39] 	8799
scalar tree_4_3_u03_r5_network.node[39].content_store 	decision_yes[39] 	363
scalar tree_4_3_u03_r5_network.node[39].content_store 	decision_no[39] 	8434
scalar tree_4_3_u03_r5_network.node[39].content_store 	decision_ratio[39] 	0.041264067295669
scalar tree_4_3_u03_r5_network.client[13] 	hdistance[13] 	2.7112155809268
scalar tree_4_3_u03_r5_network.client[13] 	downloads[13] 	11912
scalar tree_4_3_u03_r5_network.client[13] 	avg_time[13] 	0.004163209833
scalar tree_4_3_u03_r5_network.client[14] 	hdistance[14] 	2.747531853852
scalar tree_4_3_u03_r5_network.client[14] 	downloads[14] 	11851
scalar tree_4_3_u03_r5_network.client[14] 	avg_time[14] 	0.004216012556
scalar tree_4_3_u03_r5_network.client[15] 	hdistance[15] 	2.7263544536272
scalar tree_4_3_u03_r5_network.client[15] 	downloads[15] 	11979
scalar tree_4_3_u03_r5_network.client[15] 	avg_time[15] 	0.004171630713
scalar tree_4_3_u03_r5_network.client[16] 	hdistance[16] 	2.701359744838
scalar tree_4_3_u03_r5_network.client[16] 	downloads[16] 	11914
scalar tree_4_3_u03_r5_network.client[16] 	avg_time[16] 	0.004149568978
scalar tree_4_3_u03_r5_network.client[17] 	hdistance[17] 	2.7211681240719
scalar tree_4_3_u03_r5_network.client[17] 	downloads[17] 	12122
scalar tree_4_3_u03_r5_network.client[17] 	avg_time[17] 	0.004180665916
scalar tree_4_3_u03_r5_network.client[18] 	hdistance[18] 	2.7362600814833
scalar tree_4_3_u03_r5_network.client[18] 	downloads[18] 	12027
scalar tree_4_3_u03_r5_network.client[18] 	avg_time[18] 	0.004203871602
scalar tree_4_3_u03_r5_network.client[19] 	hdistance[19] 	2.7271068347711
scalar tree_4_3_u03_r5_network.client[19] 	downloads[19] 	12056
scalar tree_4_3_u03_r5_network.client[19] 	avg_time[19] 	0.004184265101
scalar tree_4_3_u03_r5_network.client[20] 	hdistance[20] 	2.709935763744
scalar tree_4_3_u03_r5_network.client[20] 	downloads[20] 	11987
scalar tree_4_3_u03_r5_network.client[20] 	avg_time[20] 	0.00416267322
scalar tree_4_3_u03_r5_network.client[21] 	hdistance[21] 	2.733752963296
scalar tree_4_3_u03_r5_network.client[21] 	downloads[21] 	12233
scalar tree_4_3_u03_r5_network.client[21] 	avg_time[21] 	0.004192427265
scalar tree_4_3_u03_r5_network.client[22] 	hdistance[22] 	2.680412371134
scalar tree_4_3_u03_r5_network.client[22] 	downloads[22] 	11737
scalar tree_4_3_u03_r5_network.client[22] 	avg_time[22] 	0.004135777179
scalar tree_4_3_u03_r5_network.client[23] 	hdistance[23] 	2.6798926264575
scalar tree_4_3_u03_r5_network.client[23] 	downloads[23] 	11921
scalar tree_4_3_u03_r5_network.client[23] 	avg_time[23] 	0.004123308811
scalar tree_4_3_u03_r5_network.client[24] 	hdistance[24] 	2.7109159347553
scalar tree_4_3_u03_r5_network.client[24] 	downloads[24] 	11955
scalar tree_4_3_u03_r5_network.client[24] 	avg_time[24] 	0.004175219712
scalar tree_4_3_u03_r5_network.client[25] 	hdistance[25] 	2.7350525624179
scalar tree_4_3_u03_r5_network.client[25] 	downloads[25] 	12176
scalar tree_4_3_u03_r5_network.client[25] 	avg_time[25] 	0.004197927276
scalar tree_4_3_u03_r5_network.client[26] 	hdistance[26] 	2.742511955701
scalar tree_4_3_u03_r5_network.client[26] 	downloads[26] 	11919
scalar tree_4_3_u03_r5_network.client[26] 	avg_time[26] 	0.004207229188
scalar tree_4_3_u03_r5_network.client[27] 	hdistance[27] 	2.6522062469013
scalar tree_4_3_u03_r5_network.client[27] 	downloads[27] 	12102
scalar tree_4_3_u03_r5_network.client[27] 	avg_time[27] 	0.004075852183
scalar tree_4_3_u03_r5_network.client[28] 	hdistance[28] 	2.667971026559
scalar tree_4_3_u03_r5_network.client[28] 	downloads[28] 	12011
scalar tree_4_3_u03_r5_network.client[28] 	avg_time[28] 	0.004110444439
scalar tree_4_3_u03_r5_network.client[29] 	hdistance[29] 	2.7018089547352
scalar tree_4_3_u03_r5_network.client[29] 	downloads[29] 	12217
scalar tree_4_3_u03_r5_network.client[29] 	avg_time[29] 	0.004161083962
scalar tree_4_3_u03_r5_network.client[30] 	hdistance[30] 	2.7131950207469
scalar tree_4_3_u03_r5_network.client[30] 	downloads[30] 	12050
scalar tree_4_3_u03_r5_network.client[30] 	avg_time[30] 	0.004172777078
scalar tree_4_3_u03_r5_network.client[31] 	hdistance[31] 	2.7119221815763
scalar tree_4_3_u03_r5_network.client[31] 	downloads[31] 	12028
scalar tree_4_3_u03_r5_network.client[31] 	avg_time[31] 	0.004161776101
scalar tree_4_3_u03_r5_network.client[32] 	hdistance[32] 	2.7127589608681
scalar tree_4_3_u03_r5_network.client[32] 	downloads[32] 	12164
scalar tree_4_3_u03_r5_network.client[32] 	avg_time[32] 	0.004166208062
scalar tree_4_3_u03_r5_network.client[33] 	hdistance[33] 	2.6882170672473
scalar tree_4_3_u03_r5_network.client[33] 	downloads[33] 	11941
scalar tree_4_3_u03_r5_network.client[33] 	avg_time[33] 	0.004114560288
scalar tree_4_3_u03_r5_network.client[34] 	hdistance[34] 	2.7483700585954
scalar tree_4_3_u03_r5_network.client[34] 	downloads[34] 	12117
scalar tree_4_3_u03_r5_network.client[34] 	avg_time[34] 	0.004211157283
scalar tree_4_3_u03_r5_network.client[35] 	hdistance[35] 	2.7248911951791
scalar tree_4_3_u03_r5_network.client[35] 	downloads[35] 	11948
scalar tree_4_3_u03_r5_network.client[35] 	avg_time[35] 	0.004180780406
scalar tree_4_3_u03_r5_network.client[36] 	hdistance[36] 	2.6845252927984
scalar tree_4_3_u03_r5_network.client[36] 	downloads[36] 	12039
scalar tree_4_3_u03_r5_network.client[36] 	avg_time[36] 	0.004120404391
scalar tree_4_3_u03_r5_network.client[37] 	hdistance[37] 	2.6822414084984
scalar tree_4_3_u03_r5_network.client[37] 	downloads[37] 	11814
scalar tree_4_3_u03_r5_network.client[37] 	avg_time[37] 	0.00410817377
scalar tree_4_3_u03_r5_network.client[38] 	hdistance[38] 	2.7186008230453
scalar tree_4_3_u03_r5_network.client[38] 	downloads[38] 	12150
scalar tree_4_3_u03_r5_network.client[38] 	avg_time[38] 	0.004158844682
scalar tree_4_3_u03_r5_network.client[39] 	hdistance[39] 	2.7137666198695
scalar tree_4_3_u03_r5_network.client[39] 	downloads[39] 	12109
scalar tree_4_3_u03_r5_network.client[39] 	avg_time[39] 	0.004163642898
