version 2
run General-6-20160902-17:48:57-4279
attr a 0.9
attr cd ffc0.2
attr configname General
attr cr lru
attr datetime 20160902-17:48:57
attr experiment General
attr fsize 1
attr inifile hw5115/scenario_Y/omnetp.ini
attr iterationvars "$name=tree_4_3, $un=00, $rep=7, $cd=ffc0.2, $cr=lru, $fsize=1, $a=0.9, $sl=nrr, $ttl=1000, $variance=0.05"
attr iterationvars2 "$name=tree_4_3, $un=00, $rep=7, $cd=ffc0.2, $cr=lru, $fsize=1, $a=0.9, $sl=nrr, $ttl=1000, $variance=0.05, $repetition=0"
attr measurement "$name=tree_4_3, $un=00, $rep=7, $cd=ffc0.2, $cr=lru, $fsize=1, $a=0.9, $sl=nrr, $ttl=1000, $variance=0.05"
attr name tree_4_3
attr network networks.${name}_u${un}_r${rep}_network
attr processid 4279
attr rep 7
attr repetition 0
attr replication #0
attr resultdir results
attr runnumber 6
attr seedset 7
attr sl nrr
attr ttl 1000
attr un 00
attr variance 0.05

scalar . 	a 	0.9
scalar . 	fsize 	1
scalar . 	rep 	7
scalar . 	ttl 	1000
scalar . 	un 	00
scalar . 	variance 	0.05
scalar tree_4_3_u00_r7_network.content_distribution 	repo-0 	0
scalar tree_4_3_u00_r7_network.content_distribution 	client-0 	13
scalar tree_4_3_u00_r7_network.content_distribution 	client-1 	14
scalar tree_4_3_u00_r7_network.content_distribution 	client-2 	15
scalar tree_4_3_u00_r7_network.content_distribution 	client-3 	16
scalar tree_4_3_u00_r7_network.content_distribution 	client-4 	17
scalar tree_4_3_u00_r7_network.content_distribution 	client-5 	18
scalar tree_4_3_u00_r7_network.content_distribution 	client-6 	19
scalar tree_4_3_u00_r7_network.content_distribution 	client-7 	20
scalar tree_4_3_u00_r7_network.content_distribution 	client-8 	21
scalar tree_4_3_u00_r7_network.content_distribution 	client-9 	22
scalar tree_4_3_u00_r7_network.content_distribution 	client-10 	23
scalar tree_4_3_u00_r7_network.content_distribution 	client-11 	24
scalar tree_4_3_u00_r7_network.content_distribution 	client-12 	25
scalar tree_4_3_u00_r7_network.content_distribution 	client-13 	26
scalar tree_4_3_u00_r7_network.content_distribution 	client-14 	27
scalar tree_4_3_u00_r7_network.content_distribution 	client-15 	28
scalar tree_4_3_u00_r7_network.content_distribution 	client-16 	29
scalar tree_4_3_u00_r7_network.content_distribution 	client-17 	30
scalar tree_4_3_u00_r7_network.content_distribution 	client-18 	31
scalar tree_4_3_u00_r7_network.content_distribution 	client-19 	32
scalar tree_4_3_u00_r7_network.content_distribution 	client-20 	33
scalar tree_4_3_u00_r7_network.content_distribution 	client-21 	34
scalar tree_4_3_u00_r7_network.content_distribution 	client-22 	35
scalar tree_4_3_u00_r7_network.content_distribution 	client-23 	36
scalar tree_4_3_u00_r7_network.content_distribution 	client-24 	37
scalar tree_4_3_u00_r7_network.content_distribution 	client-25 	38
scalar tree_4_3_u00_r7_network.content_distribution 	client-26 	39
scalar tree_4_3_u00_r7_network.content_distribution 	repo-0_card 	100000
scalar tree_4_3_u00_r7_network.content_distribution 	repo-0_price 	0
scalar tree_4_3_u00_r7_network.statistics 	stabilization_time 	1746.6
scalar tree_4_3_u00_r7_network.statistics 	p_hit 	0.22287117837978
scalar tree_4_3_u00_r7_network.statistics 	interests 	24819.15
scalar tree_4_3_u00_r7_network.statistics 	data 	16712.275
scalar tree_4_3_u00_r7_network.statistics 	hdistance 	2.652185002526
scalar tree_4_3_u00_r7_network.statistics 	avg_time 	0.004122924076
scalar tree_4_3_u00_r7_network.statistics 	downloads 	324282
scalar tree_4_3_u00_r7_network.statistics 	total_cost 	0
scalar tree_4_3_u00_r7_network.statistics 	total_replicas 	100000
scalar tree_4_3_u00_r7_network.statistics 	inner_hit 	0.4093073312734
scalar tree_4_3_u00_r7_network.node[0].core_layer 	interests[0] 	195922
scalar tree_4_3_u00_r7_network.node[0].core_layer 	repo_load[0] 	191551
scalar tree_4_3_u00_r7_network.node[0].core_layer 	data[0] 	0
scalar tree_4_3_u00_r7_network.node[0].core_layer 	repo_int[0] 	191551
scalar tree_4_3_u00_r7_network.node[0].content_store 	p_hit[0] 	0.022309898837292
scalar tree_4_3_u00_r7_network.node[0].content_store 	hits[0] 	4371
scalar tree_4_3_u00_r7_network.node[0].content_store 	misses[0] 	191551
scalar tree_4_3_u00_r7_network.node[0].content_store 	decision_yes[0] 	165
scalar tree_4_3_u00_r7_network.node[0].content_store 	decision_no[0] 	191386
scalar tree_4_3_u00_r7_network.node[0].content_store 	decision_ratio[0] 	0.00086138939499141
scalar tree_4_3_u00_r7_network.node[1].core_layer 	interests[1] 	71315
scalar tree_4_3_u00_r7_network.node[1].core_layer 	data[1] 	69033
scalar tree_4_3_u00_r7_network.node[1].content_store 	p_hit[1] 	0.032012900511814
scalar tree_4_3_u00_r7_network.node[1].content_store 	hits[1] 	2283
scalar tree_4_3_u00_r7_network.node[1].content_store 	misses[1] 	69032
scalar tree_4_3_u00_r7_network.node[1].content_store 	decision_yes[1] 	82
scalar tree_4_3_u00_r7_network.node[1].content_store 	decision_no[1] 	68951
scalar tree_4_3_u00_r7_network.node[1].content_store 	decision_ratio[1] 	0.0011878377008098
scalar tree_4_3_u00_r7_network.node[2].core_layer 	interests[2] 	71502
scalar tree_4_3_u00_r7_network.node[2].core_layer 	data[2] 	68693
scalar tree_4_3_u00_r7_network.node[2].content_store 	p_hit[2] 	0.039257643142849
scalar tree_4_3_u00_r7_network.node[2].content_store 	hits[2] 	2807
scalar tree_4_3_u00_r7_network.node[2].content_store 	misses[2] 	68695
scalar tree_4_3_u00_r7_network.node[2].content_store 	decision_yes[2] 	95
scalar tree_4_3_u00_r7_network.node[2].content_store 	decision_no[2] 	68598
scalar tree_4_3_u00_r7_network.node[2].content_store 	decision_ratio[2] 	0.0013829647853493
scalar tree_4_3_u00_r7_network.node[3].core_layer 	interests[3] 	71164
scalar tree_4_3_u00_r7_network.node[3].core_layer 	data[3] 	68638
scalar tree_4_3_u00_r7_network.node[3].content_store 	p_hit[3] 	0.03549547524029
scalar tree_4_3_u00_r7_network.node[3].content_store 	hits[3] 	2526
scalar tree_4_3_u00_r7_network.node[3].content_store 	misses[3] 	68638
scalar tree_4_3_u00_r7_network.node[3].content_store 	decision_yes[3] 	84
scalar tree_4_3_u00_r7_network.node[3].content_store 	decision_no[3] 	68554
scalar tree_4_3_u00_r7_network.node[3].content_store 	decision_ratio[3] 	0.0012238118826306
scalar tree_4_3_u00_r7_network.node[4].core_layer 	interests[4] 	27298
scalar tree_4_3_u00_r7_network.node[4].core_layer 	data[4] 	25096
scalar tree_4_3_u00_r7_network.node[4].content_store 	p_hit[4] 	0.080701882921826
scalar tree_4_3_u00_r7_network.node[4].content_store 	hits[4] 	2203
scalar tree_4_3_u00_r7_network.node[4].content_store 	misses[4] 	25095
scalar tree_4_3_u00_r7_network.node[4].content_store 	decision_yes[4] 	45
scalar tree_4_3_u00_r7_network.node[4].content_store 	decision_no[4] 	25051
scalar tree_4_3_u00_r7_network.node[4].content_store 	decision_ratio[4] 	0.0017931144405483
scalar tree_4_3_u00_r7_network.node[5].core_layer 	interests[5] 	27279
scalar tree_4_3_u00_r7_network.node[5].core_layer 	data[5] 	24928
scalar tree_4_3_u00_r7_network.node[5].content_store 	p_hit[5] 	0.08625682759632
scalar tree_4_3_u00_r7_network.node[5].content_store 	hits[5] 	2353
scalar tree_4_3_u00_r7_network.node[5].content_store 	misses[5] 	24926
scalar tree_4_3_u00_r7_network.node[5].content_store 	decision_yes[5] 	51
scalar tree_4_3_u00_r7_network.node[5].content_store 	decision_no[5] 	24877
scalar tree_4_3_u00_r7_network.node[5].content_store 	decision_ratio[5] 	0.002045892169448
scalar tree_4_3_u00_r7_network.node[6].core_layer 	interests[6] 	27607
scalar tree_4_3_u00_r7_network.node[6].core_layer 	data[6] 	25315
scalar tree_4_3_u00_r7_network.node[6].content_store 	p_hit[6] 	0.082986199152389
scalar tree_4_3_u00_r7_network.node[6].content_store 	hits[6] 	2291
scalar tree_4_3_u00_r7_network.node[6].content_store 	misses[6] 	25316
scalar tree_4_3_u00_r7_network.node[6].content_store 	decision_yes[6] 	41
scalar tree_4_3_u00_r7_network.node[6].content_store 	decision_no[6] 	25274
scalar tree_4_3_u00_r7_network.node[6].content_store 	decision_ratio[6] 	0.0016195931266048
scalar tree_4_3_u00_r7_network.node[7].core_layer 	interests[7] 	27325
scalar tree_4_3_u00_r7_network.node[7].core_layer 	data[7] 	24883
scalar tree_4_3_u00_r7_network.node[7].content_store 	p_hit[7] 	0.089332113449222
scalar tree_4_3_u00_r7_network.node[7].content_store 	hits[7] 	2441
scalar tree_4_3_u00_r7_network.node[7].content_store 	misses[7] 	24884
scalar tree_4_3_u00_r7_network.node[7].content_store 	decision_yes[7] 	65
scalar tree_4_3_u00_r7_network.node[7].content_store 	decision_no[7] 	24818
scalar tree_4_3_u00_r7_network.node[7].content_store 	decision_ratio[7] 	0.0026122252140015
scalar tree_4_3_u00_r7_network.node[8].core_layer 	interests[8] 	27474
scalar tree_4_3_u00_r7_network.node[8].core_layer 	data[8] 	25238
scalar tree_4_3_u00_r7_network.node[8].content_store 	p_hit[8] 	0.081386037708379
scalar tree_4_3_u00_r7_network.node[8].content_store 	hits[8] 	2236
scalar tree_4_3_u00_r7_network.node[8].content_store 	misses[8] 	25238
scalar tree_4_3_u00_r7_network.node[8].content_store 	decision_yes[8] 	55
scalar tree_4_3_u00_r7_network.node[8].content_store 	decision_no[8] 	25183
scalar tree_4_3_u00_r7_network.node[8].content_store 	decision_ratio[8] 	0.002179253506617
scalar tree_4_3_u00_r7_network.node[9].core_layer 	interests[9] 	27333
scalar tree_4_3_u00_r7_network.node[9].core_layer 	data[9] 	25056
scalar tree_4_3_u00_r7_network.node[9].content_store 	p_hit[9] 	0.083342479786339
scalar tree_4_3_u00_r7_network.node[9].content_store 	hits[9] 	2278
scalar tree_4_3_u00_r7_network.node[9].content_store 	misses[9] 	25055
scalar tree_4_3_u00_r7_network.node[9].content_store 	decision_yes[9] 	60
scalar tree_4_3_u00_r7_network.node[9].content_store 	decision_no[9] 	24996
scalar tree_4_3_u00_r7_network.node[9].content_store 	decision_ratio[9] 	0.0023946360153257
scalar tree_4_3_u00_r7_network.node[10].core_layer 	interests[10] 	27455
scalar tree_4_3_u00_r7_network.node[10].core_layer 	data[10] 	25208
scalar tree_4_3_u00_r7_network.node[10].content_store 	p_hit[10] 	0.081843015844109
scalar tree_4_3_u00_r7_network.node[10].content_store 	hits[10] 	2247
scalar tree_4_3_u00_r7_network.node[10].content_store 	misses[10] 	25208
scalar tree_4_3_u00_r7_network.node[10].content_store 	decision_yes[10] 	56
scalar tree_4_3_u00_r7_network.node[10].content_store 	decision_no[10] 	25152
scalar tree_4_3_u00_r7_network.node[10].content_store 	decision_ratio[10] 	0.0022215169787369
scalar tree_4_3_u00_r7_network.node[11].core_layer 	interests[11] 	27359
scalar tree_4_3_u00_r7_network.node[11].core_layer 	data[11] 	24978
scalar tree_4_3_u00_r7_network.node[11].content_store 	p_hit[11] 	0.086991483606857
scalar tree_4_3_u00_r7_network.node[11].content_store 	hits[11] 	2380
scalar tree_4_3_u00_r7_network.node[11].content_store 	misses[11] 	24979
scalar tree_4_3_u00_r7_network.node[11].content_store 	decision_yes[11] 	43
scalar tree_4_3_u00_r7_network.node[11].content_store 	decision_no[11] 	24935
scalar tree_4_3_u00_r7_network.node[11].content_store 	decision_ratio[11] 	0.0017215149331412
scalar tree_4_3_u00_r7_network.node[12].core_layer 	interests[12] 	27542
scalar tree_4_3_u00_r7_network.node[12].core_layer 	data[12] 	25192
scalar tree_4_3_u00_r7_network.node[12].content_store 	p_hit[12] 	0.085251615714182
scalar tree_4_3_u00_r7_network.node[12].content_store 	hits[12] 	2348
scalar tree_4_3_u00_r7_network.node[12].content_store 	misses[12] 	25194
scalar tree_4_3_u00_r7_network.node[12].content_store 	decision_yes[12] 	62
scalar tree_4_3_u00_r7_network.node[12].content_store 	decision_no[12] 	25130
scalar tree_4_3_u00_r7_network.node[12].content_store 	decision_ratio[12] 	0.0024610987615116
scalar tree_4_3_u00_r7_network.node[13].core_layer 	interests[13] 	12449
scalar tree_4_3_u00_r7_network.node[13].core_layer 	data[13] 	8748
scalar tree_4_3_u00_r7_network.node[13].content_store 	p_hit[13] 	0.29729295525745
scalar tree_4_3_u00_r7_network.node[13].content_store 	hits[13] 	3701
scalar tree_4_3_u00_r7_network.node[13].content_store 	misses[13] 	8748
scalar tree_4_3_u00_r7_network.node[13].content_store 	decision_yes[13] 	25
scalar tree_4_3_u00_r7_network.node[13].content_store 	decision_no[13] 	8723
scalar tree_4_3_u00_r7_network.node[13].content_store 	decision_ratio[13] 	0.0028577960676726
scalar tree_4_3_u00_r7_network.node[14].core_layer 	interests[14] 	12441
scalar tree_4_3_u00_r7_network.node[14].core_layer 	data[14] 	8809
scalar tree_4_3_u00_r7_network.node[14].content_store 	p_hit[14] 	0.29201832650109
scalar tree_4_3_u00_r7_network.node[14].content_store 	hits[14] 	3633
scalar tree_4_3_u00_r7_network.node[14].content_store 	misses[14] 	8808
scalar tree_4_3_u00_r7_network.node[14].content_store 	decision_yes[14] 	19
scalar tree_4_3_u00_r7_network.node[14].content_store 	decision_no[14] 	8790
scalar tree_4_3_u00_r7_network.node[14].content_store 	decision_ratio[14] 	0.0021568850039732
scalar tree_4_3_u00_r7_network.node[15].core_layer 	interests[15] 	12414
scalar tree_4_3_u00_r7_network.node[15].core_layer 	data[15] 	8722
scalar tree_4_3_u00_r7_network.node[15].content_store 	p_hit[15] 	0.29740615434187
scalar tree_4_3_u00_r7_network.node[15].content_store 	hits[15] 	3692
scalar tree_4_3_u00_r7_network.node[15].content_store 	misses[15] 	8722
scalar tree_4_3_u00_r7_network.node[15].content_store 	decision_yes[15] 	26
scalar tree_4_3_u00_r7_network.node[15].content_store 	decision_no[15] 	8696
scalar tree_4_3_u00_r7_network.node[15].content_store 	decision_ratio[15] 	0.0029809676679661
scalar tree_4_3_u00_r7_network.node[16].core_layer 	interests[16] 	12573
scalar tree_4_3_u00_r7_network.node[16].core_layer 	data[16] 	8740
scalar tree_4_3_u00_r7_network.node[16].content_store 	p_hit[16] 	0.30485961982025
scalar tree_4_3_u00_r7_network.node[16].content_store 	hits[16] 	3833
scalar tree_4_3_u00_r7_network.node[16].content_store 	misses[16] 	8740
scalar tree_4_3_u00_r7_network.node[16].content_store 	decision_yes[16] 	18
scalar tree_4_3_u00_r7_network.node[16].content_store 	decision_no[16] 	8722
scalar tree_4_3_u00_r7_network.node[16].content_store 	decision_ratio[16] 	0.0020594965675057
scalar tree_4_3_u00_r7_network.node[17].core_layer 	interests[17] 	12413
scalar tree_4_3_u00_r7_network.node[17].core_layer 	data[17] 	8731
scalar tree_4_3_u00_r7_network.node[17].content_store 	p_hit[17] 	0.29678562797068
scalar tree_4_3_u00_r7_network.node[17].content_store 	hits[17] 	3684
scalar tree_4_3_u00_r7_network.node[17].content_store 	misses[17] 	8729
scalar tree_4_3_u00_r7_network.node[17].content_store 	decision_yes[17] 	16
scalar tree_4_3_u00_r7_network.node[17].content_store 	decision_no[17] 	8715
scalar tree_4_3_u00_r7_network.node[17].content_store 	decision_ratio[17] 	0.0018325506814798
scalar tree_4_3_u00_r7_network.node[18].core_layer 	interests[18] 	12415
scalar tree_4_3_u00_r7_network.node[18].core_layer 	data[18] 	8758
scalar tree_4_3_u00_r7_network.node[18].content_store 	p_hit[18] 	0.29456302859444
scalar tree_4_3_u00_r7_network.node[18].content_store 	hits[18] 	3657
scalar tree_4_3_u00_r7_network.node[18].content_store 	misses[18] 	8758
scalar tree_4_3_u00_r7_network.node[18].content_store 	decision_yes[18] 	24
scalar tree_4_3_u00_r7_network.node[18].content_store 	decision_no[18] 	8734
scalar tree_4_3_u00_r7_network.node[18].content_store 	decision_ratio[18] 	0.0027403516784654
scalar tree_4_3_u00_r7_network.node[19].core_layer 	interests[19] 	12404
scalar tree_4_3_u00_r7_network.node[19].core_layer 	data[19] 	8736
scalar tree_4_3_u00_r7_network.node[19].content_store 	p_hit[19] 	0.29571106094808
scalar tree_4_3_u00_r7_network.node[19].content_store 	hits[19] 	3668
scalar tree_4_3_u00_r7_network.node[19].content_store 	misses[19] 	8736
scalar tree_4_3_u00_r7_network.node[19].content_store 	decision_yes[19] 	38
scalar tree_4_3_u00_r7_network.node[19].content_store 	decision_no[19] 	8698
scalar tree_4_3_u00_r7_network.node[19].content_store 	decision_ratio[19] 	0.0043498168498168
scalar tree_4_3_u00_r7_network.node[20].core_layer 	interests[20] 	12462
scalar tree_4_3_u00_r7_network.node[20].core_layer 	data[20] 	8716
scalar tree_4_3_u00_r7_network.node[20].content_store 	p_hit[20] 	0.30059380516771
scalar tree_4_3_u00_r7_network.node[20].content_store 	hits[20] 	3746
scalar tree_4_3_u00_r7_network.node[20].content_store 	misses[20] 	8716
scalar tree_4_3_u00_r7_network.node[20].content_store 	decision_yes[20] 	27
scalar tree_4_3_u00_r7_network.node[20].content_store 	decision_no[20] 	8689
scalar tree_4_3_u00_r7_network.node[20].content_store 	decision_ratio[20] 	0.0030977512620468
scalar tree_4_3_u00_r7_network.node[21].core_layer 	interests[21] 	12732
scalar tree_4_3_u00_r7_network.node[21].core_layer 	data[21] 	8909
scalar tree_4_3_u00_r7_network.node[21].content_store 	p_hit[21] 	0.30026704366949
scalar tree_4_3_u00_r7_network.node[21].content_store 	hits[21] 	3823
scalar tree_4_3_u00_r7_network.node[21].content_store 	misses[21] 	8909
scalar tree_4_3_u00_r7_network.node[21].content_store 	decision_yes[21] 	19
scalar tree_4_3_u00_r7_network.node[21].content_store 	decision_no[21] 	8890
scalar tree_4_3_u00_r7_network.node[21].content_store 	decision_ratio[21] 	0.0021326748232125
scalar tree_4_3_u00_r7_network.node[22].core_layer 	interests[22] 	12199
scalar tree_4_3_u00_r7_network.node[22].core_layer 	data[22] 	8524
scalar tree_4_3_u00_r7_network.node[22].content_store 	p_hit[22] 	0.30125420116403
scalar tree_4_3_u00_r7_network.node[22].content_store 	hits[22] 	3675
scalar tree_4_3_u00_r7_network.node[22].content_store 	misses[22] 	8524
scalar tree_4_3_u00_r7_network.node[22].content_store 	decision_yes[22] 	24
scalar tree_4_3_u00_r7_network.node[22].content_store 	decision_no[22] 	8500
scalar tree_4_3_u00_r7_network.node[22].content_store 	decision_ratio[22] 	0.002815579540122
scalar tree_4_3_u00_r7_network.node[23].core_layer 	interests[23] 	12327
scalar tree_4_3_u00_r7_network.node[23].core_layer 	data[23] 	8844
scalar tree_4_3_u00_r7_network.node[23].content_store 	p_hit[23] 	0.28255049890484
scalar tree_4_3_u00_r7_network.node[23].content_store 	hits[23] 	3483
scalar tree_4_3_u00_r7_network.node[23].content_store 	misses[23] 	8844
scalar tree_4_3_u00_r7_network.node[23].content_store 	decision_yes[23] 	27
scalar tree_4_3_u00_r7_network.node[23].content_store 	decision_no[23] 	8817
scalar tree_4_3_u00_r7_network.node[23].content_store 	decision_ratio[23] 	0.0030529172320217
scalar tree_4_3_u00_r7_network.node[24].core_layer 	interests[24] 	12545
scalar tree_4_3_u00_r7_network.node[24].core_layer 	data[24] 	8748
scalar tree_4_3_u00_r7_network.node[24].content_store 	p_hit[24] 	0.30259067357513
scalar tree_4_3_u00_r7_network.node[24].content_store 	hits[24] 	3796
scalar tree_4_3_u00_r7_network.node[24].content_store 	misses[24] 	8749
scalar tree_4_3_u00_r7_network.node[24].content_store 	decision_yes[24] 	20
scalar tree_4_3_u00_r7_network.node[24].content_store 	decision_no[24] 	8728
scalar tree_4_3_u00_r7_network.node[24].content_store 	decision_ratio[24] 	0.0022862368541381
scalar tree_4_3_u00_r7_network.node[25].core_layer 	interests[25] 	12348
scalar tree_4_3_u00_r7_network.node[25].core_layer 	data[25] 	8831
scalar tree_4_3_u00_r7_network.node[25].content_store 	p_hit[25] 	0.2848234531908
scalar tree_4_3_u00_r7_network.node[25].content_store 	hits[25] 	3517
scalar tree_4_3_u00_r7_network.node[25].content_store 	misses[25] 	8831
scalar tree_4_3_u00_r7_network.node[25].content_store 	decision_yes[25] 	32
scalar tree_4_3_u00_r7_network.node[25].content_store 	decision_no[25] 	8799
scalar tree_4_3_u00_r7_network.node[25].content_store 	decision_ratio[25] 	0.0036235986864455
scalar tree_4_3_u00_r7_network.node[26].core_layer 	interests[26] 	12666
scalar tree_4_3_u00_r7_network.node[26].core_layer 	data[26] 	8903
scalar tree_4_3_u00_r7_network.node[26].content_store 	p_hit[26] 	0.29709458392547
scalar tree_4_3_u00_r7_network.node[26].content_store 	hits[26] 	3763
scalar tree_4_3_u00_r7_network.node[26].content_store 	misses[26] 	8903
scalar tree_4_3_u00_r7_network.node[26].content_store 	decision_yes[26] 	22
scalar tree_4_3_u00_r7_network.node[26].content_store 	decision_no[26] 	8881
scalar tree_4_3_u00_r7_network.node[26].content_store 	decision_ratio[26] 	0.0024710771650006
scalar tree_4_3_u00_r7_network.node[27].core_layer 	interests[27] 	12412
scalar tree_4_3_u00_r7_network.node[27].core_layer 	data[27] 	8646
scalar tree_4_3_u00_r7_network.node[27].content_store 	p_hit[27] 	0.30341604898485
scalar tree_4_3_u00_r7_network.node[27].content_store 	hits[27] 	3766
scalar tree_4_3_u00_r7_network.node[27].content_store 	misses[27] 	8646
scalar tree_4_3_u00_r7_network.node[27].content_store 	decision_yes[27] 	22
scalar tree_4_3_u00_r7_network.node[27].content_store 	decision_no[27] 	8624
scalar tree_4_3_u00_r7_network.node[27].content_store 	decision_ratio[27] 	0.0025445292620865
scalar tree_4_3_u00_r7_network.node[28].core_layer 	interests[28] 	12462
scalar tree_4_3_u00_r7_network.node[28].core_layer 	data[28] 	8793
scalar tree_4_3_u00_r7_network.node[28].content_store 	p_hit[28] 	0.29441502166586
scalar tree_4_3_u00_r7_network.node[28].content_store 	hits[28] 	3669
scalar tree_4_3_u00_r7_network.node[28].content_store 	misses[28] 	8793
scalar tree_4_3_u00_r7_network.node[28].content_store 	decision_yes[28] 	24
scalar tree_4_3_u00_r7_network.node[28].content_store 	decision_no[28] 	8769
scalar tree_4_3_u00_r7_network.node[28].content_store 	decision_ratio[28] 	0.0027294438758103
scalar tree_4_3_u00_r7_network.node[29].core_layer 	interests[29] 	12298
scalar tree_4_3_u00_r7_network.node[29].core_layer 	data[29] 	8669
scalar tree_4_3_u00_r7_network.node[29].content_store 	p_hit[29] 	0.29516994633274
scalar tree_4_3_u00_r7_network.node[29].content_store 	hits[29] 	3630
scalar tree_4_3_u00_r7_network.node[29].content_store 	misses[29] 	8668
scalar tree_4_3_u00_r7_network.node[29].content_store 	decision_yes[29] 	15
scalar tree_4_3_u00_r7_network.node[29].content_store 	decision_no[29] 	8654
scalar tree_4_3_u00_r7_network.node[29].content_store 	decision_ratio[29] 	0.0017303033798593
scalar tree_4_3_u00_r7_network.node[30].core_layer 	interests[30] 	12287
scalar tree_4_3_u00_r7_network.node[30].core_layer 	data[30] 	8667
scalar tree_4_3_u00_r7_network.node[30].content_store 	p_hit[30] 	0.29470171726215
scalar tree_4_3_u00_r7_network.node[30].content_store 	hits[30] 	3621
scalar tree_4_3_u00_r7_network.node[30].content_store 	misses[30] 	8666
scalar tree_4_3_u00_r7_network.node[30].content_store 	decision_yes[30] 	21
scalar tree_4_3_u00_r7_network.node[30].content_store 	decision_no[30] 	8646
scalar tree_4_3_u00_r7_network.node[30].content_store 	decision_ratio[30] 	0.0024229837313949
scalar tree_4_3_u00_r7_network.node[31].core_layer 	interests[31] 	12538
scalar tree_4_3_u00_r7_network.node[31].core_layer 	data[31] 	8820
scalar tree_4_3_u00_r7_network.node[31].content_store 	p_hit[31] 	0.29653852289041
scalar tree_4_3_u00_r7_network.node[31].content_store 	hits[31] 	3718
scalar tree_4_3_u00_r7_network.node[31].content_store 	misses[31] 	8820
scalar tree_4_3_u00_r7_network.node[31].content_store 	decision_yes[31] 	28
scalar tree_4_3_u00_r7_network.node[31].content_store 	decision_no[31] 	8792
scalar tree_4_3_u00_r7_network.node[31].content_store 	decision_ratio[31] 	0.0031746031746032
scalar tree_4_3_u00_r7_network.node[32].core_layer 	interests[32] 	12499
scalar tree_4_3_u00_r7_network.node[32].core_layer 	data[32] 	8784
scalar tree_4_3_u00_r7_network.node[32].content_store 	p_hit[32] 	0.29722377790223
scalar tree_4_3_u00_r7_network.node[32].content_store 	hits[32] 	3715
scalar tree_4_3_u00_r7_network.node[32].content_store 	misses[32] 	8784
scalar tree_4_3_u00_r7_network.node[32].content_store 	decision_yes[32] 	23
scalar tree_4_3_u00_r7_network.node[32].content_store 	decision_no[32] 	8761
scalar tree_4_3_u00_r7_network.node[32].content_store 	decision_ratio[32] 	0.0026183970856102
scalar tree_4_3_u00_r7_network.node[33].core_layer 	interests[33] 	12451
scalar tree_4_3_u00_r7_network.node[33].core_layer 	data[33] 	8745
scalar tree_4_3_u00_r7_network.node[33].content_store 	p_hit[33] 	0.29764677535941
scalar tree_4_3_u00_r7_network.node[33].content_store 	hits[33] 	3706
scalar tree_4_3_u00_r7_network.node[33].content_store 	misses[33] 	8745
scalar tree_4_3_u00_r7_network.node[33].content_store 	decision_yes[33] 	28
scalar tree_4_3_u00_r7_network.node[33].content_store 	decision_no[33] 	8717
scalar tree_4_3_u00_r7_network.node[33].content_store 	decision_ratio[33] 	0.003201829616924
scalar tree_4_3_u00_r7_network.node[34].core_layer 	interests[34] 	12386
scalar tree_4_3_u00_r7_network.node[34].core_layer 	data[34] 	8669
scalar tree_4_3_u00_r7_network.node[34].content_store 	p_hit[34] 	0.30009688357823
scalar tree_4_3_u00_r7_network.node[34].content_store 	hits[34] 	3717
scalar tree_4_3_u00_r7_network.node[34].content_store 	misses[34] 	8669
scalar tree_4_3_u00_r7_network.node[34].content_store 	decision_yes[34] 	24
scalar tree_4_3_u00_r7_network.node[34].content_store 	decision_no[34] 	8645
scalar tree_4_3_u00_r7_network.node[34].content_store 	decision_ratio[34] 	0.0027684854077748
scalar tree_4_3_u00_r7_network.node[35].core_layer 	interests[35] 	12445
scalar tree_4_3_u00_r7_network.node[35].core_layer 	data[35] 	8741
scalar tree_4_3_u00_r7_network.node[35].content_store 	p_hit[35] 	0.29762957010848
scalar tree_4_3_u00_r7_network.node[35].content_store 	hits[35] 	3704
scalar tree_4_3_u00_r7_network.node[35].content_store 	misses[35] 	8741
scalar tree_4_3_u00_r7_network.node[35].content_store 	decision_yes[35] 	25
scalar tree_4_3_u00_r7_network.node[35].content_store 	decision_no[35] 	8716
scalar tree_4_3_u00_r7_network.node[35].content_store 	decision_ratio[35] 	0.0028600846585059
scalar tree_4_3_u00_r7_network.node[36].core_layer 	interests[36] 	12407
scalar tree_4_3_u00_r7_network.node[36].core_layer 	data[36] 	8657
scalar tree_4_3_u00_r7_network.node[36].content_store 	p_hit[36] 	0.30216813089385
scalar tree_4_3_u00_r7_network.node[36].content_store 	hits[36] 	3749
scalar tree_4_3_u00_r7_network.node[36].content_store 	misses[36] 	8658
scalar tree_4_3_u00_r7_network.node[36].content_store 	decision_yes[36] 	23
scalar tree_4_3_u00_r7_network.node[36].content_store 	decision_no[36] 	8634
scalar tree_4_3_u00_r7_network.node[36].content_store 	decision_ratio[36] 	0.0026568095183089
scalar tree_4_3_u00_r7_network.node[37].core_layer 	interests[37] 	12712
scalar tree_4_3_u00_r7_network.node[37].core_layer 	data[37] 	8974
scalar tree_4_3_u00_r7_network.node[37].content_store 	p_hit[37] 	0.29405286343612
scalar tree_4_3_u00_r7_network.node[37].content_store 	hits[37] 	3738
scalar tree_4_3_u00_r7_network.node[37].content_store 	misses[37] 	8974
scalar tree_4_3_u00_r7_network.node[37].content_store 	decision_yes[37] 	29
scalar tree_4_3_u00_r7_network.node[37].content_store 	decision_no[37] 	8945
scalar tree_4_3_u00_r7_network.node[37].content_store 	decision_ratio[37] 	0.0032315578337419
scalar tree_4_3_u00_r7_network.node[38].core_layer 	interests[38] 	12403
scalar tree_4_3_u00_r7_network.node[38].core_layer 	data[38] 	8690
scalar tree_4_3_u00_r7_network.node[38].content_store 	p_hit[38] 	0.29936305732484
scalar tree_4_3_u00_r7_network.node[38].content_store 	hits[38] 	3713
scalar tree_4_3_u00_r7_network.node[38].content_store 	misses[38] 	8690
scalar tree_4_3_u00_r7_network.node[38].content_store 	decision_yes[38] 	23
scalar tree_4_3_u00_r7_network.node[38].content_store 	decision_no[38] 	8667
scalar tree_4_3_u00_r7_network.node[38].content_store 	decision_ratio[38] 	0.0026467203682394
scalar tree_4_3_u00_r7_network.node[39].core_layer 	interests[39] 	12503
scalar tree_4_3_u00_r7_network.node[39].core_layer 	data[39] 	8659
scalar tree_4_3_u00_r7_network.node[39].content_store 	p_hit[39] 	0.3074462129089
scalar tree_4_3_u00_r7_network.node[39].content_store 	hits[39] 	3844
scalar tree_4_3_u00_r7_network.node[39].content_store 	misses[39] 	8659
scalar tree_4_3_u00_r7_network.node[39].content_store 	decision_yes[39] 	30
scalar tree_4_3_u00_r7_network.node[39].content_store 	decision_no[39] 	8629
scalar tree_4_3_u00_r7_network.node[39].content_store 	decision_ratio[39] 	0.0034646033029218
scalar tree_4_3_u00_r7_network.client[13] 	hdistance[13] 	2.6590871231051
scalar tree_4_3_u00_r7_network.client[13] 	downloads[13] 	12006
scalar tree_4_3_u00_r7_network.client[13] 	avg_time[13] 	0.004132763929
scalar tree_4_3_u00_r7_network.client[14] 	hdistance[14] 	2.6695984069034
scalar tree_4_3_u00_r7_network.client[14] 	downloads[14] 	12052
scalar tree_4_3_u00_r7_network.client[14] 	avg_time[14] 	0.004141882153
scalar tree_4_3_u00_r7_network.client[15] 	hdistance[15] 	2.6598900183303
scalar tree_4_3_u00_r7_network.client[15] 	downloads[15] 	12002
scalar tree_4_3_u00_r7_network.client[15] 	avg_time[15] 	0.004135807691
scalar tree_4_3_u00_r7_network.client[16] 	hdistance[16] 	2.6321810494902
scalar tree_4_3_u00_r7_network.client[16] 	downloads[16] 	12063
scalar tree_4_3_u00_r7_network.client[16] 	avg_time[16] 	0.004088532189
scalar tree_4_3_u00_r7_network.client[17] 	hdistance[17] 	2.6389165835826
scalar tree_4_3_u00_r7_network.client[17] 	downloads[17] 	12036
scalar tree_4_3_u00_r7_network.client[17] 	avg_time[17] 	0.004098202385
scalar tree_4_3_u00_r7_network.client[18] 	hdistance[18] 	2.659
scalar tree_4_3_u00_r7_network.client[18] 	downloads[18] 	12000
scalar tree_4_3_u00_r7_network.client[18] 	avg_time[18] 	0.004130496997
scalar tree_4_3_u00_r7_network.client[19] 	hdistance[19] 	2.6529745042493
scalar tree_4_3_u00_r7_network.client[19] 	downloads[19] 	12002
scalar tree_4_3_u00_r7_network.client[19] 	avg_time[19] 	0.004121143485
scalar tree_4_3_u00_r7_network.client[20] 	hdistance[20] 	2.6491081148982
scalar tree_4_3_u00_r7_network.client[20] 	downloads[20] 	11941
scalar tree_4_3_u00_r7_network.client[20] 	avg_time[20] 	0.004113139018
scalar tree_4_3_u00_r7_network.client[21] 	hdistance[21] 	2.6690198653751
scalar tree_4_3_u00_r7_network.client[21] 	downloads[21] 	12182
scalar tree_4_3_u00_r7_network.client[21] 	avg_time[21] 	0.004147427584
scalar tree_4_3_u00_r7_network.client[22] 	hdistance[22] 	2.6357982620549
scalar tree_4_3_u00_r7_network.client[22] 	downloads[22] 	11738
scalar tree_4_3_u00_r7_network.client[22] 	avg_time[22] 	0.004094534189
scalar tree_4_3_u00_r7_network.client[23] 	hdistance[23] 	2.6772194304858
scalar tree_4_3_u00_r7_network.client[23] 	downloads[23] 	11940
scalar tree_4_3_u00_r7_network.client[23] 	avg_time[23] 	0.004161136033
scalar tree_4_3_u00_r7_network.client[24] 	hdistance[24] 	2.6171245270604
scalar tree_4_3_u00_r7_network.client[24] 	downloads[24] 	12158
scalar tree_4_3_u00_r7_network.client[24] 	avg_time[24] 	0.00406579729
scalar tree_4_3_u00_r7_network.client[25] 	hdistance[25] 	2.6727591387081
scalar tree_4_3_u00_r7_network.client[25] 	downloads[25] 	11982
scalar tree_4_3_u00_r7_network.client[25] 	avg_time[25] 	0.004162240346
scalar tree_4_3_u00_r7_network.client[26] 	hdistance[26] 	2.6684702410231
scalar tree_4_3_u00_r7_network.client[26] 	downloads[26] 	12198
scalar tree_4_3_u00_r7_network.client[26] 	avg_time[26] 	0.00414887384
scalar tree_4_3_u00_r7_network.client[27] 	hdistance[27] 	2.6342627480533
scalar tree_4_3_u00_r7_network.client[27] 	downloads[27] 	11943
scalar tree_4_3_u00_r7_network.client[27] 	avg_time[27] 	0.004100809217
scalar tree_4_3_u00_r7_network.client[28] 	hdistance[28] 	2.6552466070837
scalar tree_4_3_u00_r7_network.client[28] 	downloads[28] 	12084
scalar tree_4_3_u00_r7_network.client[28] 	avg_time[28] 	0.004128596766
scalar tree_4_3_u00_r7_network.client[29] 	hdistance[29] 	2.6668905305574
scalar tree_4_3_u00_r7_network.client[29] 	downloads[29] 	11912
scalar tree_4_3_u00_r7_network.client[29] 	avg_time[29] 	0.004146068215
scalar tree_4_3_u00_r7_network.client[30] 	hdistance[30] 	2.6514184992446
scalar tree_4_3_u00_r7_network.client[30] 	downloads[30] 	11914
scalar tree_4_3_u00_r7_network.client[30] 	avg_time[30] 	0.00411952029
scalar tree_4_3_u00_r7_network.client[31] 	hdistance[31] 	2.6481756645204
scalar tree_4_3_u00_r7_network.client[31] 	downloads[31] 	12114
scalar tree_4_3_u00_r7_network.client[31] 	avg_time[31] 	0.004125141421
scalar tree_4_3_u00_r7_network.client[32] 	hdistance[32] 	2.656434082801
scalar tree_4_3_u00_r7_network.client[32] 	downloads[32] 	12053
scalar tree_4_3_u00_r7_network.client[32] 	avg_time[32] 	0.004131416567
scalar tree_4_3_u00_r7_network.client[33] 	hdistance[33] 	2.6574839302112
scalar tree_4_3_u00_r7_network.client[33] 	downloads[33] 	11979
scalar tree_4_3_u00_r7_network.client[33] 	avg_time[33] 	0.004131393607
scalar tree_4_3_u00_r7_network.client[34] 	hdistance[34] 	2.6620865139949
scalar tree_4_3_u00_r7_network.client[34] 	downloads[34] 	11790
scalar tree_4_3_u00_r7_network.client[34] 	avg_time[34] 	0.004143508493
scalar tree_4_3_u00_r7_network.client[35] 	hdistance[35] 	2.6629654366338
scalar tree_4_3_u00_r7_network.client[35] 	downloads[35] 	11978
scalar tree_4_3_u00_r7_network.client[35] 	avg_time[35] 	0.004136491719
scalar tree_4_3_u00_r7_network.client[36] 	hdistance[36] 	2.6242043551089
scalar tree_4_3_u00_r7_network.client[36] 	downloads[36] 	11940
scalar tree_4_3_u00_r7_network.client[36] 	avg_time[36] 	0.004088096498
scalar tree_4_3_u00_r7_network.client[37] 	hdistance[37] 	2.6548405513417
scalar tree_4_3_u00_r7_network.client[37] 	downloads[37] 	12261
scalar tree_4_3_u00_r7_network.client[37] 	avg_time[37] 	0.004131688488
scalar tree_4_3_u00_r7_network.client[38] 	hdistance[38] 	2.6513822767895
scalar tree_4_3_u00_r7_network.client[38] 	downloads[38] 	11973
scalar tree_4_3_u00_r7_network.client[38] 	avg_time[38] 	0.004115679744
scalar tree_4_3_u00_r7_network.client[39] 	hdistance[39] 	2.6224566065941
scalar tree_4_3_u00_r7_network.client[39] 	downloads[39] 	12041
scalar tree_4_3_u00_r7_network.client[39] 	avg_time[39] 	0.004078561902
