version 2
run General-4-20160902-17:44:29-4279
attr a 0.9
attr cd ffc0.2
attr configname General
attr cr lru
attr datetime 20160902-17:44:29
attr experiment General
attr fsize 1
attr inifile hw5115/scenario_Y/omnetp.ini
attr iterationvars "$name=tree_4_3, $un=00, $rep=5, $cd=ffc0.2, $cr=lru, $fsize=1, $a=0.9, $sl=nrr, $ttl=1000, $variance=0.05"
attr iterationvars2 "$name=tree_4_3, $un=00, $rep=5, $cd=ffc0.2, $cr=lru, $fsize=1, $a=0.9, $sl=nrr, $ttl=1000, $variance=0.05, $repetition=0"
attr measurement "$name=tree_4_3, $un=00, $rep=5, $cd=ffc0.2, $cr=lru, $fsize=1, $a=0.9, $sl=nrr, $ttl=1000, $variance=0.05"
attr name tree_4_3
attr network networks.${name}_u${un}_r${rep}_network
attr processid 4279
attr rep 5
attr repetition 0
attr replication #0
attr resultdir results
attr runnumber 4
attr seedset 5
attr sl nrr
attr ttl 1000
attr un 00
attr variance 0.05

scalar . 	a 	0.9
scalar . 	fsize 	1
scalar . 	rep 	5
scalar . 	ttl 	1000
scalar . 	un 	00
scalar . 	variance 	0.05
scalar tree_4_3_u00_r5_network.content_distribution 	repo-0 	0
scalar tree_4_3_u00_r5_network.content_distribution 	client-0 	13
scalar tree_4_3_u00_r5_network.content_distribution 	client-1 	14
scalar tree_4_3_u00_r5_network.content_distribution 	client-2 	15
scalar tree_4_3_u00_r5_network.content_distribution 	client-3 	16
scalar tree_4_3_u00_r5_network.content_distribution 	client-4 	17
scalar tree_4_3_u00_r5_network.content_distribution 	client-5 	18
scalar tree_4_3_u00_r5_network.content_distribution 	client-6 	19
scalar tree_4_3_u00_r5_network.content_distribution 	client-7 	20
scalar tree_4_3_u00_r5_network.content_distribution 	client-8 	21
scalar tree_4_3_u00_r5_network.content_distribution 	client-9 	22
scalar tree_4_3_u00_r5_network.content_distribution 	client-10 	23
scalar tree_4_3_u00_r5_network.content_distribution 	client-11 	24
scalar tree_4_3_u00_r5_network.content_distribution 	client-12 	25
scalar tree_4_3_u00_r5_network.content_distribution 	client-13 	26
scalar tree_4_3_u00_r5_network.content_distribution 	client-14 	27
scalar tree_4_3_u00_r5_network.content_distribution 	client-15 	28
scalar tree_4_3_u00_r5_network.content_distribution 	client-16 	29
scalar tree_4_3_u00_r5_network.content_distribution 	client-17 	30
scalar tree_4_3_u00_r5_network.content_distribution 	client-18 	31
scalar tree_4_3_u00_r5_network.content_distribution 	client-19 	32
scalar tree_4_3_u00_r5_network.content_distribution 	client-20 	33
scalar tree_4_3_u00_r5_network.content_distribution 	client-21 	34
scalar tree_4_3_u00_r5_network.content_distribution 	client-22 	35
scalar tree_4_3_u00_r5_network.content_distribution 	client-23 	36
scalar tree_4_3_u00_r5_network.content_distribution 	client-24 	37
scalar tree_4_3_u00_r5_network.content_distribution 	client-25 	38
scalar tree_4_3_u00_r5_network.content_distribution 	client-26 	39
scalar tree_4_3_u00_r5_network.content_distribution 	repo-0_card 	100000
scalar tree_4_3_u00_r5_network.content_distribution 	repo-0_price 	0
scalar tree_4_3_u00_r5_network.statistics 	stabilization_time 	1880.5
scalar tree_4_3_u00_r5_network.statistics 	p_hit 	0.22205657600419
scalar tree_4_3_u00_r5_network.statistics 	interests 	24796.05
scalar tree_4_3_u00_r5_network.statistics 	data 	16707.8
scalar tree_4_3_u00_r5_network.statistics 	hdistance 	2.6566125608472
scalar tree_4_3_u00_r5_network.statistics 	avg_time 	0.004131493016
scalar tree_4_3_u00_r5_network.statistics 	downloads 	323526
scalar tree_4_3_u00_r5_network.statistics 	total_cost 	0
scalar tree_4_3_u00_r5_network.statistics 	total_replicas 	100000
scalar tree_4_3_u00_r5_network.statistics 	inner_hit 	0.40916958760656
scalar tree_4_3_u00_r5_network.node[0].core_layer 	interests[0] 	195326
scalar tree_4_3_u00_r5_network.node[0].core_layer 	repo_load[0] 	191149
scalar tree_4_3_u00_r5_network.node[0].core_layer 	data[0] 	0
scalar tree_4_3_u00_r5_network.node[0].core_layer 	repo_int[0] 	191149
scalar tree_4_3_u00_r5_network.node[0].content_store 	p_hit[0] 	0.021384761885258
scalar tree_4_3_u00_r5_network.node[0].content_store 	hits[0] 	4177
scalar tree_4_3_u00_r5_network.node[0].content_store 	misses[0] 	191149
scalar tree_4_3_u00_r5_network.node[0].content_store 	decision_yes[0] 	179
scalar tree_4_3_u00_r5_network.node[0].content_store 	decision_no[0] 	190970
scalar tree_4_3_u00_r5_network.node[0].content_store 	decision_ratio[0] 	0.00093644225185588
scalar tree_4_3_u00_r5_network.node[1].core_layer 	interests[1] 	71009
scalar tree_4_3_u00_r5_network.node[1].core_layer 	data[1] 	68404
scalar tree_4_3_u00_r5_network.node[1].content_store 	p_hit[1] 	0.036685490571618
scalar tree_4_3_u00_r5_network.node[1].content_store 	hits[1] 	2605
scalar tree_4_3_u00_r5_network.node[1].content_store 	misses[1] 	68404
scalar tree_4_3_u00_r5_network.node[1].content_store 	decision_yes[1] 	76
scalar tree_4_3_u00_r5_network.node[1].content_store 	decision_no[1] 	68328
scalar tree_4_3_u00_r5_network.node[1].content_store 	decision_ratio[1] 	0.0011110461376528
scalar tree_4_3_u00_r5_network.node[2].core_layer 	interests[2] 	71249
scalar tree_4_3_u00_r5_network.node[2].core_layer 	data[2] 	68695
scalar tree_4_3_u00_r5_network.node[2].content_store 	p_hit[2] 	0.035818046569075
scalar tree_4_3_u00_r5_network.node[2].content_store 	hits[2] 	2552
scalar tree_4_3_u00_r5_network.node[2].content_store 	misses[2] 	68697
scalar tree_4_3_u00_r5_network.node[2].content_store 	decision_yes[2] 	84
scalar tree_4_3_u00_r5_network.node[2].content_store 	decision_no[2] 	68611
scalar tree_4_3_u00_r5_network.node[2].content_store 	decision_ratio[2] 	0.0012227964189533
scalar tree_4_3_u00_r5_network.node[3].core_layer 	interests[3] 	71447
scalar tree_4_3_u00_r5_network.node[3].core_layer 	data[3] 	68761
scalar tree_4_3_u00_r5_network.node[3].content_store 	p_hit[3] 	0.037552311503632
scalar tree_4_3_u00_r5_network.node[3].content_store 	hits[3] 	2683
scalar tree_4_3_u00_r5_network.node[3].content_store 	misses[3] 	68764
scalar tree_4_3_u00_r5_network.node[3].content_store 	decision_yes[3] 	84
scalar tree_4_3_u00_r5_network.node[3].content_store 	decision_no[3] 	68677
scalar tree_4_3_u00_r5_network.node[3].content_store 	decision_ratio[3] 	0.0012216227221826
scalar tree_4_3_u00_r5_network.node[4].core_layer 	interests[4] 	27342
scalar tree_4_3_u00_r5_network.node[4].core_layer 	data[4] 	24973
scalar tree_4_3_u00_r5_network.node[4].content_store 	p_hit[4] 	0.086643259454319
scalar tree_4_3_u00_r5_network.node[4].content_store 	hits[4] 	2369
scalar tree_4_3_u00_r5_network.node[4].content_store 	misses[4] 	24973
scalar tree_4_3_u00_r5_network.node[4].content_store 	decision_yes[4] 	60
scalar tree_4_3_u00_r5_network.node[4].content_store 	decision_no[4] 	24913
scalar tree_4_3_u00_r5_network.node[4].content_store 	decision_ratio[4] 	0.0024025948023866
scalar tree_4_3_u00_r5_network.node[5].core_layer 	interests[5] 	27380
scalar tree_4_3_u00_r5_network.node[5].core_layer 	data[5] 	25083
scalar tree_4_3_u00_r5_network.node[5].content_store 	p_hit[5] 	0.083856829802776
scalar tree_4_3_u00_r5_network.node[5].content_store 	hits[5] 	2296
scalar tree_4_3_u00_r5_network.node[5].content_store 	misses[5] 	25084
scalar tree_4_3_u00_r5_network.node[5].content_store 	decision_yes[5] 	51
scalar tree_4_3_u00_r5_network.node[5].content_store 	decision_no[5] 	25032
scalar tree_4_3_u00_r5_network.node[5].content_store 	decision_ratio[5] 	0.0020332496112905
scalar tree_4_3_u00_r5_network.node[6].core_layer 	interests[6] 	27426
scalar tree_4_3_u00_r5_network.node[6].core_layer 	data[6] 	25112
scalar tree_4_3_u00_r5_network.node[6].content_store 	p_hit[6] 	0.084372493254576
scalar tree_4_3_u00_r5_network.node[6].content_store 	hits[6] 	2314
scalar tree_4_3_u00_r5_network.node[6].content_store 	misses[6] 	25112
scalar tree_4_3_u00_r5_network.node[6].content_store 	decision_yes[6] 	58
scalar tree_4_3_u00_r5_network.node[6].content_store 	decision_no[6] 	25054
scalar tree_4_3_u00_r5_network.node[6].content_store 	decision_ratio[6] 	0.0023096527556547
scalar tree_4_3_u00_r5_network.node[7].core_layer 	interests[7] 	27490
scalar tree_4_3_u00_r5_network.node[7].core_layer 	data[7] 	25177
scalar tree_4_3_u00_r5_network.node[7].content_store 	p_hit[7] 	0.084103310294653
scalar tree_4_3_u00_r5_network.node[7].content_store 	hits[7] 	2312
scalar tree_4_3_u00_r5_network.node[7].content_store 	misses[7] 	25178
scalar tree_4_3_u00_r5_network.node[7].content_store 	decision_yes[7] 	61
scalar tree_4_3_u00_r5_network.node[7].content_store 	decision_no[7] 	25116
scalar tree_4_3_u00_r5_network.node[7].content_store 	decision_ratio[7] 	0.0024228462485602
scalar tree_4_3_u00_r5_network.node[8].core_layer 	interests[8] 	27362
scalar tree_4_3_u00_r5_network.node[8].core_layer 	data[8] 	25003
scalar tree_4_3_u00_r5_network.node[8].content_store 	p_hit[8] 	0.086214458007456
scalar tree_4_3_u00_r5_network.node[8].content_store 	hits[8] 	2359
scalar tree_4_3_u00_r5_network.node[8].content_store 	misses[8] 	25003
scalar tree_4_3_u00_r5_network.node[8].content_store 	decision_yes[8] 	63
scalar tree_4_3_u00_r5_network.node[8].content_store 	decision_no[8] 	24940
scalar tree_4_3_u00_r5_network.node[8].content_store 	decision_ratio[8] 	0.0025196976362836
scalar tree_4_3_u00_r5_network.node[9].core_layer 	interests[9] 	27461
scalar tree_4_3_u00_r5_network.node[9].core_layer 	data[9] 	25078
scalar tree_4_3_u00_r5_network.node[9].content_store 	p_hit[9] 	0.086777611885947
scalar tree_4_3_u00_r5_network.node[9].content_store 	hits[9] 	2383
scalar tree_4_3_u00_r5_network.node[9].content_store 	misses[9] 	25078
scalar tree_4_3_u00_r5_network.node[9].content_store 	decision_yes[9] 	45
scalar tree_4_3_u00_r5_network.node[9].content_store 	decision_no[9] 	25033
scalar tree_4_3_u00_r5_network.node[9].content_store 	decision_ratio[9] 	0.0017944014674216
scalar tree_4_3_u00_r5_network.node[10].core_layer 	interests[10] 	27687
scalar tree_4_3_u00_r5_network.node[10].core_layer 	data[10] 	25366
scalar tree_4_3_u00_r5_network.node[10].content_store 	p_hit[10] 	0.083757720229711
scalar tree_4_3_u00_r5_network.node[10].content_store 	hits[10] 	2319
scalar tree_4_3_u00_r5_network.node[10].content_store 	misses[10] 	25368
scalar tree_4_3_u00_r5_network.node[10].content_store 	decision_yes[10] 	56
scalar tree_4_3_u00_r5_network.node[10].content_store 	decision_no[10] 	25310
scalar tree_4_3_u00_r5_network.node[10].content_store 	decision_ratio[10] 	0.0022076795710794
scalar tree_4_3_u00_r5_network.node[11].core_layer 	interests[11] 	27186
scalar tree_4_3_u00_r5_network.node[11].core_layer 	data[11] 	24772
scalar tree_4_3_u00_r5_network.node[11].content_store 	p_hit[11] 	0.088795703671007
scalar tree_4_3_u00_r5_network.node[11].content_store 	hits[11] 	2414
scalar tree_4_3_u00_r5_network.node[11].content_store 	misses[11] 	24772
scalar tree_4_3_u00_r5_network.node[11].content_store 	decision_yes[11] 	56
scalar tree_4_3_u00_r5_network.node[11].content_store 	decision_no[11] 	24716
scalar tree_4_3_u00_r5_network.node[11].content_store 	decision_ratio[11] 	0.0022606168254481
scalar tree_4_3_u00_r5_network.node[12].core_layer 	interests[12] 	27700
scalar tree_4_3_u00_r5_network.node[12].core_layer 	data[12] 	25390
scalar tree_4_3_u00_r5_network.node[12].content_store 	p_hit[12] 	0.083357400722022
scalar tree_4_3_u00_r5_network.node[12].content_store 	hits[12] 	2309
scalar tree_4_3_u00_r5_network.node[12].content_store 	misses[12] 	25391
scalar tree_4_3_u00_r5_network.node[12].content_store 	decision_yes[12] 	41
scalar tree_4_3_u00_r5_network.node[12].content_store 	decision_no[12] 	25349
scalar tree_4_3_u00_r5_network.node[12].content_store 	decision_ratio[12] 	0.0016148089799134
scalar tree_4_3_u00_r5_network.node[13].core_layer 	interests[13] 	12495
scalar tree_4_3_u00_r5_network.node[13].core_layer 	data[13] 	8830
scalar tree_4_3_u00_r5_network.node[13].content_store 	p_hit[13] 	0.29331732693077
scalar tree_4_3_u00_r5_network.node[13].content_store 	hits[13] 	3665
scalar tree_4_3_u00_r5_network.node[13].content_store 	misses[13] 	8830
scalar tree_4_3_u00_r5_network.node[13].content_store 	decision_yes[13] 	28
scalar tree_4_3_u00_r5_network.node[13].content_store 	decision_no[13] 	8802
scalar tree_4_3_u00_r5_network.node[13].content_store 	decision_ratio[13] 	0.0031710079275198
scalar tree_4_3_u00_r5_network.node[14].core_layer 	interests[14] 	12532
scalar tree_4_3_u00_r5_network.node[14].core_layer 	data[14] 	8749
scalar tree_4_3_u00_r5_network.node[14].content_store 	p_hit[14] 	0.30186721991701
scalar tree_4_3_u00_r5_network.node[14].content_store 	hits[14] 	3783
scalar tree_4_3_u00_r5_network.node[14].content_store 	misses[14] 	8749
scalar tree_4_3_u00_r5_network.node[14].content_store 	decision_yes[14] 	23
scalar tree_4_3_u00_r5_network.node[14].content_store 	decision_no[14] 	8726
scalar tree_4_3_u00_r5_network.node[14].content_store 	decision_ratio[14] 	0.002628871871071
scalar tree_4_3_u00_r5_network.node[15].core_layer 	interests[15] 	12263
scalar tree_4_3_u00_r5_network.node[15].core_layer 	data[15] 	8648
scalar tree_4_3_u00_r5_network.node[15].content_store 	p_hit[15] 	0.29478920329446
scalar tree_4_3_u00_r5_network.node[15].content_store 	hits[15] 	3615
scalar tree_4_3_u00_r5_network.node[15].content_store 	misses[15] 	8648
scalar tree_4_3_u00_r5_network.node[15].content_store 	decision_yes[15] 	17
scalar tree_4_3_u00_r5_network.node[15].content_store 	decision_no[15] 	8631
scalar tree_4_3_u00_r5_network.node[15].content_store 	decision_ratio[15] 	0.0019657724329325
scalar tree_4_3_u00_r5_network.node[16].core_layer 	interests[16] 	12527
scalar tree_4_3_u00_r5_network.node[16].core_layer 	data[16] 	8833
scalar tree_4_3_u00_r5_network.node[16].content_store 	p_hit[16] 	0.29488305260637
scalar tree_4_3_u00_r5_network.node[16].content_store 	hits[16] 	3694
scalar tree_4_3_u00_r5_network.node[16].content_store 	misses[16] 	8833
scalar tree_4_3_u00_r5_network.node[16].content_store 	decision_yes[16] 	15
scalar tree_4_3_u00_r5_network.node[16].content_store 	decision_no[16] 	8818
scalar tree_4_3_u00_r5_network.node[16].content_store 	decision_ratio[16] 	0.001698177289709
scalar tree_4_3_u00_r5_network.node[17].core_layer 	interests[17] 	12400
scalar tree_4_3_u00_r5_network.node[17].core_layer 	data[17] 	8771
scalar tree_4_3_u00_r5_network.node[17].content_store 	p_hit[17] 	0.29266129032258
scalar tree_4_3_u00_r5_network.node[17].content_store 	hits[17] 	3629
scalar tree_4_3_u00_r5_network.node[17].content_store 	misses[17] 	8771
scalar tree_4_3_u00_r5_network.node[17].content_store 	decision_yes[17] 	15
scalar tree_4_3_u00_r5_network.node[17].content_store 	decision_no[17] 	8756
scalar tree_4_3_u00_r5_network.node[17].content_store 	decision_ratio[17] 	0.0017101812792156
scalar tree_4_3_u00_r5_network.node[18].core_layer 	interests[18] 	12192
scalar tree_4_3_u00_r5_network.node[18].core_layer 	data[18] 	8587
scalar tree_4_3_u00_r5_network.node[18].content_store 	p_hit[18] 	0.29576771653543
scalar tree_4_3_u00_r5_network.node[18].content_store 	hits[18] 	3606
scalar tree_4_3_u00_r5_network.node[18].content_store 	misses[18] 	8586
scalar tree_4_3_u00_r5_network.node[18].content_store 	decision_yes[18] 	18
scalar tree_4_3_u00_r5_network.node[18].content_store 	decision_no[18] 	8569
scalar tree_4_3_u00_r5_network.node[18].content_store 	decision_ratio[18] 	0.0020961919180156
scalar tree_4_3_u00_r5_network.node[19].core_layer 	interests[19] 	12535
scalar tree_4_3_u00_r5_network.node[19].core_layer 	data[19] 	8859
scalar tree_4_3_u00_r5_network.node[19].content_store 	p_hit[19] 	0.29325887514958
scalar tree_4_3_u00_r5_network.node[19].content_store 	hits[19] 	3676
scalar tree_4_3_u00_r5_network.node[19].content_store 	misses[19] 	8859
scalar tree_4_3_u00_r5_network.node[19].content_store 	decision_yes[19] 	18
scalar tree_4_3_u00_r5_network.node[19].content_store 	decision_no[19] 	8841
scalar tree_4_3_u00_r5_network.node[19].content_store 	decision_ratio[19] 	0.0020318320352184
scalar tree_4_3_u00_r5_network.node[20].core_layer 	interests[20] 	12357
scalar tree_4_3_u00_r5_network.node[20].core_layer 	data[20] 	8701
scalar tree_4_3_u00_r5_network.node[20].content_store 	p_hit[20] 	0.29586469207737
scalar tree_4_3_u00_r5_network.node[20].content_store 	hits[20] 	3656
scalar tree_4_3_u00_r5_network.node[20].content_store 	misses[20] 	8701
scalar tree_4_3_u00_r5_network.node[20].content_store 	decision_yes[20] 	31
scalar tree_4_3_u00_r5_network.node[20].content_store 	decision_no[20] 	8670
scalar tree_4_3_u00_r5_network.node[20].content_store 	decision_ratio[20] 	0.0035628088725434
scalar tree_4_3_u00_r5_network.node[21].core_layer 	interests[21] 	12534
scalar tree_4_3_u00_r5_network.node[21].core_layer 	data[21] 	8782
scalar tree_4_3_u00_r5_network.node[21].content_store 	p_hit[21] 	0.29934577947981
scalar tree_4_3_u00_r5_network.node[21].content_store 	hits[21] 	3752
scalar tree_4_3_u00_r5_network.node[21].content_store 	misses[21] 	8782
scalar tree_4_3_u00_r5_network.node[21].content_store 	decision_yes[21] 	22
scalar tree_4_3_u00_r5_network.node[21].content_store 	decision_no[21] 	8760
scalar tree_4_3_u00_r5_network.node[21].content_store 	decision_ratio[21] 	0.0025051241175131
scalar tree_4_3_u00_r5_network.node[22].core_layer 	interests[22] 	12468
scalar tree_4_3_u00_r5_network.node[22].core_layer 	data[22] 	8852
scalar tree_4_3_u00_r5_network.node[22].content_store 	p_hit[22] 	0.29002245749118
scalar tree_4_3_u00_r5_network.node[22].content_store 	hits[22] 	3616
scalar tree_4_3_u00_r5_network.node[22].content_store 	misses[22] 	8852
scalar tree_4_3_u00_r5_network.node[22].content_store 	decision_yes[22] 	21
scalar tree_4_3_u00_r5_network.node[22].content_store 	decision_no[22] 	8831
scalar tree_4_3_u00_r5_network.node[22].content_store 	decision_ratio[22] 	0.0023723452327158
scalar tree_4_3_u00_r5_network.node[23].core_layer 	interests[23] 	12316
scalar tree_4_3_u00_r5_network.node[23].core_layer 	data[23] 	8654
scalar tree_4_3_u00_r5_network.node[23].content_store 	p_hit[23] 	0.29725560246833
scalar tree_4_3_u00_r5_network.node[23].content_store 	hits[23] 	3661
scalar tree_4_3_u00_r5_network.node[23].content_store 	misses[23] 	8655
scalar tree_4_3_u00_r5_network.node[23].content_store 	decision_yes[23] 	17
scalar tree_4_3_u00_r5_network.node[23].content_store 	decision_no[23] 	8637
scalar tree_4_3_u00_r5_network.node[23].content_store 	decision_ratio[23] 	0.0019644095216085
scalar tree_4_3_u00_r5_network.node[24].core_layer 	interests[24] 	12376
scalar tree_4_3_u00_r5_network.node[24].core_layer 	data[24] 	8866
scalar tree_4_3_u00_r5_network.node[24].content_store 	p_hit[24] 	0.28361344537815
scalar tree_4_3_u00_r5_network.node[24].content_store 	hits[24] 	3510
scalar tree_4_3_u00_r5_network.node[24].content_store 	misses[24] 	8866
scalar tree_4_3_u00_r5_network.node[24].content_store 	decision_yes[24] 	28
scalar tree_4_3_u00_r5_network.node[24].content_store 	decision_no[24] 	8838
scalar tree_4_3_u00_r5_network.node[24].content_store 	decision_ratio[24] 	0.0031581321903903
scalar tree_4_3_u00_r5_network.node[25].core_layer 	interests[25] 	12461
scalar tree_4_3_u00_r5_network.node[25].core_layer 	data[25] 	8750
scalar tree_4_3_u00_r5_network.node[25].content_store 	p_hit[25] 	0.29780916459353
scalar tree_4_3_u00_r5_network.node[25].content_store 	hits[25] 	3711
scalar tree_4_3_u00_r5_network.node[25].content_store 	misses[25] 	8750
scalar tree_4_3_u00_r5_network.node[25].content_store 	decision_yes[25] 	13
scalar tree_4_3_u00_r5_network.node[25].content_store 	decision_no[25] 	8737
scalar tree_4_3_u00_r5_network.node[25].content_store 	decision_ratio[25] 	0.0014857142857143
scalar tree_4_3_u00_r5_network.node[26].core_layer 	interests[26] 	12378
scalar tree_4_3_u00_r5_network.node[26].core_layer 	data[26] 	8606
scalar tree_4_3_u00_r5_network.node[26].content_store 	p_hit[26] 	0.30473420584909
scalar tree_4_3_u00_r5_network.node[26].content_store 	hits[26] 	3772
scalar tree_4_3_u00_r5_network.node[26].content_store 	misses[26] 	8606
scalar tree_4_3_u00_r5_network.node[26].content_store 	decision_yes[26] 	19
scalar tree_4_3_u00_r5_network.node[26].content_store 	decision_no[26] 	8587
scalar tree_4_3_u00_r5_network.node[26].content_store 	decision_ratio[26] 	0.0022077620264931
scalar tree_4_3_u00_r5_network.node[27].core_layer 	interests[27] 	12358
scalar tree_4_3_u00_r5_network.node[27].core_layer 	data[27] 	8727
scalar tree_4_3_u00_r5_network.node[27].content_store 	p_hit[27] 	0.29381776986567
scalar tree_4_3_u00_r5_network.node[27].content_store 	hits[27] 	3631
scalar tree_4_3_u00_r5_network.node[27].content_store 	misses[27] 	8727
scalar tree_4_3_u00_r5_network.node[27].content_store 	decision_yes[27] 	21
scalar tree_4_3_u00_r5_network.node[27].content_store 	decision_no[27] 	8706
scalar tree_4_3_u00_r5_network.node[27].content_store 	decision_ratio[27] 	0.0024063251976624
scalar tree_4_3_u00_r5_network.node[28].core_layer 	interests[28] 	12349
scalar tree_4_3_u00_r5_network.node[28].core_layer 	data[28] 	8768
scalar tree_4_3_u00_r5_network.node[28].content_store 	p_hit[28] 	0.28998299457446
scalar tree_4_3_u00_r5_network.node[28].content_store 	hits[28] 	3581
scalar tree_4_3_u00_r5_network.node[28].content_store 	misses[28] 	8768
scalar tree_4_3_u00_r5_network.node[28].content_store 	decision_yes[28] 	24
scalar tree_4_3_u00_r5_network.node[28].content_store 	decision_no[28] 	8744
scalar tree_4_3_u00_r5_network.node[28].content_store 	decision_ratio[28] 	0.0027372262773723
scalar tree_4_3_u00_r5_network.node[29].core_layer 	interests[29] 	12458
scalar tree_4_3_u00_r5_network.node[29].core_layer 	data[29] 	8708
scalar tree_4_3_u00_r5_network.node[29].content_store 	p_hit[29] 	0.30101139829828
scalar tree_4_3_u00_r5_network.node[29].content_store 	hits[29] 	3750
scalar tree_4_3_u00_r5_network.node[29].content_store 	misses[29] 	8708
scalar tree_4_3_u00_r5_network.node[29].content_store 	decision_yes[29] 	13
scalar tree_4_3_u00_r5_network.node[29].content_store 	decision_no[29] 	8695
scalar tree_4_3_u00_r5_network.node[29].content_store 	decision_ratio[29] 	0.0014928801102435
scalar tree_4_3_u00_r5_network.node[30].core_layer 	interests[30] 	12471
scalar tree_4_3_u00_r5_network.node[30].core_layer 	data[30] 	8785
scalar tree_4_3_u00_r5_network.node[30].content_store 	p_hit[30] 	0.29556571245289
scalar tree_4_3_u00_r5_network.node[30].content_store 	hits[30] 	3686
scalar tree_4_3_u00_r5_network.node[30].content_store 	misses[30] 	8785
scalar tree_4_3_u00_r5_network.node[30].content_store 	decision_yes[30] 	24
scalar tree_4_3_u00_r5_network.node[30].content_store 	decision_no[30] 	8761
scalar tree_4_3_u00_r5_network.node[30].content_store 	decision_ratio[30] 	0.0027319294251565
scalar tree_4_3_u00_r5_network.node[31].core_layer 	interests[31] 	12592
scalar tree_4_3_u00_r5_network.node[31].core_layer 	data[31] 	8903
scalar tree_4_3_u00_r5_network.node[31].content_store 	p_hit[31] 	0.29288437102922
scalar tree_4_3_u00_r5_network.node[31].content_store 	hits[31] 	3688
scalar tree_4_3_u00_r5_network.node[31].content_store 	misses[31] 	8904
scalar tree_4_3_u00_r5_network.node[31].content_store 	decision_yes[31] 	20
scalar tree_4_3_u00_r5_network.node[31].content_store 	decision_no[31] 	8883
scalar tree_4_3_u00_r5_network.node[31].content_store 	decision_ratio[31] 	0.0022464337863641
scalar tree_4_3_u00_r5_network.node[32].core_layer 	interests[32] 	12385
scalar tree_4_3_u00_r5_network.node[32].core_layer 	data[32] 	8657
scalar tree_4_3_u00_r5_network.node[32].content_store 	p_hit[32] 	0.30100928542592
scalar tree_4_3_u00_r5_network.node[32].content_store 	hits[32] 	3728
scalar tree_4_3_u00_r5_network.node[32].content_store 	misses[32] 	8657
scalar tree_4_3_u00_r5_network.node[32].content_store 	decision_yes[32] 	19
scalar tree_4_3_u00_r5_network.node[32].content_store 	decision_no[32] 	8638
scalar tree_4_3_u00_r5_network.node[32].content_store 	decision_ratio[32] 	0.0021947556890378
scalar tree_4_3_u00_r5_network.node[33].core_layer 	interests[33] 	12726
scalar tree_4_3_u00_r5_network.node[33].core_layer 	data[33] 	8923
scalar tree_4_3_u00_r5_network.node[33].content_store 	p_hit[33] 	0.2988370265598
scalar tree_4_3_u00_r5_network.node[33].content_store 	hits[33] 	3803
scalar tree_4_3_u00_r5_network.node[33].content_store 	misses[33] 	8923
scalar tree_4_3_u00_r5_network.node[33].content_store 	decision_yes[33] 	22
scalar tree_4_3_u00_r5_network.node[33].content_store 	decision_no[33] 	8901
scalar tree_4_3_u00_r5_network.node[33].content_store 	decision_ratio[33] 	0.0024655384960215
scalar tree_4_3_u00_r5_network.node[34].core_layer 	interests[34] 	12470
scalar tree_4_3_u00_r5_network.node[34].core_layer 	data[34] 	8775
scalar tree_4_3_u00_r5_network.node[34].content_store 	p_hit[34] 	0.29631114675221
scalar tree_4_3_u00_r5_network.node[34].content_store 	hits[34] 	3695
scalar tree_4_3_u00_r5_network.node[34].content_store 	misses[34] 	8775
scalar tree_4_3_u00_r5_network.node[34].content_store 	decision_yes[34] 	22
scalar tree_4_3_u00_r5_network.node[34].content_store 	decision_no[34] 	8753
scalar tree_4_3_u00_r5_network.node[34].content_store 	decision_ratio[34] 	0.0025071225071225
scalar tree_4_3_u00_r5_network.node[35].core_layer 	interests[35] 	12334
scalar tree_4_3_u00_r5_network.node[35].core_layer 	data[35] 	8712
scalar tree_4_3_u00_r5_network.node[35].content_store 	p_hit[35] 	0.29365980217286
scalar tree_4_3_u00_r5_network.node[35].content_store 	hits[35] 	3622
scalar tree_4_3_u00_r5_network.node[35].content_store 	misses[35] 	8712
scalar tree_4_3_u00_r5_network.node[35].content_store 	decision_yes[35] 	30
scalar tree_4_3_u00_r5_network.node[35].content_store 	decision_no[35] 	8682
scalar tree_4_3_u00_r5_network.node[35].content_store 	decision_ratio[35] 	0.0034435261707989
scalar tree_4_3_u00_r5_network.node[36].core_layer 	interests[36] 	12256
scalar tree_4_3_u00_r5_network.node[36].core_layer 	data[36] 	8579
scalar tree_4_3_u00_r5_network.node[36].content_store 	p_hit[36] 	0.30001631853786
scalar tree_4_3_u00_r5_network.node[36].content_store 	hits[36] 	3677
scalar tree_4_3_u00_r5_network.node[36].content_store 	misses[36] 	8579
scalar tree_4_3_u00_r5_network.node[36].content_store 	decision_yes[36] 	21
scalar tree_4_3_u00_r5_network.node[36].content_store 	decision_no[36] 	8558
scalar tree_4_3_u00_r5_network.node[36].content_store 	decision_ratio[36] 	0.0024478377433267
scalar tree_4_3_u00_r5_network.node[37].core_layer 	interests[37] 	12483
scalar tree_4_3_u00_r5_network.node[37].core_layer 	data[37] 	8723
scalar tree_4_3_u00_r5_network.node[37].content_store 	p_hit[37] 	0.30120964511736
scalar tree_4_3_u00_r5_network.node[37].content_store 	hits[37] 	3760
scalar tree_4_3_u00_r5_network.node[37].content_store 	misses[37] 	8723
scalar tree_4_3_u00_r5_network.node[37].content_store 	decision_yes[37] 	18
scalar tree_4_3_u00_r5_network.node[37].content_store 	decision_no[37] 	8705
scalar tree_4_3_u00_r5_network.node[37].content_store 	decision_ratio[37] 	0.0020635102602316
scalar tree_4_3_u00_r5_network.node[38].core_layer 	interests[38] 	12560
scalar tree_4_3_u00_r5_network.node[38].core_layer 	data[38] 	8874
scalar tree_4_3_u00_r5_network.node[38].content_store 	p_hit[38] 	0.29347133757962
scalar tree_4_3_u00_r5_network.node[38].content_store 	hits[38] 	3686
scalar tree_4_3_u00_r5_network.node[38].content_store 	misses[38] 	8874
scalar tree_4_3_u00_r5_network.node[38].content_store 	decision_yes[38] 	23
scalar tree_4_3_u00_r5_network.node[38].content_store 	decision_no[38] 	8851
scalar tree_4_3_u00_r5_network.node[38].content_store 	decision_ratio[38] 	0.0025918413342348
scalar tree_4_3_u00_r5_network.node[39].core_layer 	interests[39] 	12501
scalar tree_4_3_u00_r5_network.node[39].core_layer 	data[39] 	8876
scalar tree_4_3_u00_r5_network.node[39].content_store 	p_hit[39] 	0.28997680185585
scalar tree_4_3_u00_r5_network.node[39].content_store 	hits[39] 	3625
scalar tree_4_3_u00_r5_network.node[39].content_store 	misses[39] 	8876
scalar tree_4_3_u00_r5_network.node[39].content_store 	decision_yes[39] 	33
scalar tree_4_3_u00_r5_network.node[39].content_store 	decision_no[39] 	8843
scalar tree_4_3_u00_r5_network.node[39].content_store 	decision_ratio[39] 	0.0037178909418657
scalar tree_4_3_u00_r5_network.client[13] 	hdistance[13] 	2.6541328474408
scalar tree_4_3_u00_r5_network.client[13] 	downloads[13] 	12074
scalar tree_4_3_u00_r5_network.client[13] 	avg_time[13] 	0.004131187931
scalar tree_4_3_u00_r5_network.client[14] 	hdistance[14] 	2.6278105036091
scalar tree_4_3_u00_r5_network.client[14] 	downloads[14] 	12053
scalar tree_4_3_u00_r5_network.client[14] 	avg_time[14] 	0.004093085829
scalar tree_4_3_u00_r5_network.client[15] 	hdistance[15] 	2.6639796351294
scalar tree_4_3_u00_r5_network.client[15] 	downloads[15] 	11785
scalar tree_4_3_u00_r5_network.client[15] 	avg_time[15] 	0.00414628472
scalar tree_4_3_u00_r5_network.client[16] 	hdistance[16] 	2.6809150108532
scalar tree_4_3_u00_r5_network.client[16] 	downloads[16] 	11978
scalar tree_4_3_u00_r5_network.client[16] 	avg_time[16] 	0.004158861761
scalar tree_4_3_u00_r5_network.client[17] 	hdistance[17] 	2.6783978548684
scalar tree_4_3_u00_r5_network.client[17] 	downloads[17] 	11934
scalar tree_4_3_u00_r5_network.client[17] 	avg_time[17] 	0.004163898505
scalar tree_4_3_u00_r5_network.client[18] 	hdistance[18] 	2.6555158324821
scalar tree_4_3_u00_r5_network.client[18] 	downloads[18] 	11748
scalar tree_4_3_u00_r5_network.client[18] 	avg_time[18] 	0.004125295007
scalar tree_4_3_u00_r5_network.client[19] 	hdistance[19] 	2.6433820493766
scalar tree_4_3_u00_r5_network.client[19] 	downloads[19] 	12111
scalar tree_4_3_u00_r5_network.client[19] 	avg_time[19] 	0.004111135583
scalar tree_4_3_u00_r5_network.client[20] 	hdistance[20] 	2.654416073671
scalar tree_4_3_u00_r5_network.client[20] 	downloads[20] 	11945
scalar tree_4_3_u00_r5_network.client[20] 	avg_time[20] 	0.00412239132
scalar tree_4_3_u00_r5_network.client[21] 	hdistance[21] 	2.6476886048635
scalar tree_4_3_u00_r5_network.client[21] 	downloads[21] 	12049
scalar tree_4_3_u00_r5_network.client[21] 	avg_time[21] 	0.004115359233
scalar tree_4_3_u00_r5_network.client[22] 	hdistance[22] 	2.676184133855
scalar tree_4_3_u00_r5_network.client[22] 	downloads[22] 	12013
scalar tree_4_3_u00_r5_network.client[22] 	avg_time[22] 	0.004167731549
scalar tree_4_3_u00_r5_network.client[23] 	hdistance[23] 	2.6555321834245
scalar tree_4_3_u00_r5_network.client[23] 	downloads[23] 	11885
scalar tree_4_3_u00_r5_network.client[23] 	avg_time[23] 	0.004130543397
scalar tree_4_3_u00_r5_network.client[24] 	hdistance[24] 	2.696574770259
scalar tree_4_3_u00_r5_network.client[24] 	downloads[24] 	11970
scalar tree_4_3_u00_r5_network.client[24] 	avg_time[24] 	0.004201333667
scalar tree_4_3_u00_r5_network.client[25] 	hdistance[25] 	2.6809631301731
scalar tree_4_3_u00_r5_network.client[25] 	downloads[25] 	11961
scalar tree_4_3_u00_r5_network.client[25] 	avg_time[25] 	0.004161856404
scalar tree_4_3_u00_r5_network.client[26] 	hdistance[26] 	2.6427494976557
scalar tree_4_3_u00_r5_network.client[26] 	downloads[26] 	11944
scalar tree_4_3_u00_r5_network.client[26] 	avg_time[26] 	0.004101638003
scalar tree_4_3_u00_r5_network.client[27] 	hdistance[27] 	2.6363408939293
scalar tree_4_3_u00_r5_network.client[27] 	downloads[27] 	11992
scalar tree_4_3_u00_r5_network.client[27] 	avg_time[27] 	0.004106067699
scalar tree_4_3_u00_r5_network.client[28] 	hdistance[28] 	2.6725559481743
scalar tree_4_3_u00_r5_network.client[28] 	downloads[28] 	11886
scalar tree_4_3_u00_r5_network.client[28] 	avg_time[28] 	0.004155453162
scalar tree_4_3_u00_r5_network.client[29] 	hdistance[29] 	2.6367656875834
scalar tree_4_3_u00_r5_network.client[29] 	downloads[29] 	11984
scalar tree_4_3_u00_r5_network.client[29] 	avg_time[29] 	0.004097460294
scalar tree_4_3_u00_r5_network.client[30] 	hdistance[30] 	2.6487906588824
scalar tree_4_3_u00_r5_network.client[30] 	downloads[30] 	11990
scalar tree_4_3_u00_r5_network.client[30] 	avg_time[30] 	0.004119429865
scalar tree_4_3_u00_r5_network.client[31] 	hdistance[31] 	2.6591803278689
scalar tree_4_3_u00_r5_network.client[31] 	downloads[31] 	12200
scalar tree_4_3_u00_r5_network.client[31] 	avg_time[31] 	0.004141472368
scalar tree_4_3_u00_r5_network.client[32] 	hdistance[32] 	2.6637205387205
scalar tree_4_3_u00_r5_network.client[32] 	downloads[32] 	11880
scalar tree_4_3_u00_r5_network.client[32] 	avg_time[32] 	0.004141579531
scalar tree_4_3_u00_r5_network.client[33] 	hdistance[33] 	2.6315059552945
scalar tree_4_3_u00_r5_network.client[33] 	downloads[33] 	12258
scalar tree_4_3_u00_r5_network.client[33] 	avg_time[33] 	0.004095444791
scalar tree_4_3_u00_r5_network.client[34] 	hdistance[34] 	2.6501329345297
scalar tree_4_3_u00_r5_network.client[34] 	downloads[34] 	12036
scalar tree_4_3_u00_r5_network.client[34] 	avg_time[34] 	0.004118502392
scalar tree_4_3_u00_r5_network.client[35] 	hdistance[35] 	2.643919657114
scalar tree_4_3_u00_r5_network.client[35] 	downloads[35] 	11899
scalar tree_4_3_u00_r5_network.client[35] 	avg_time[35] 	0.004114416246
scalar tree_4_3_u00_r5_network.client[36] 	hdistance[36] 	2.6294756490752
scalar tree_4_3_u00_r5_network.client[36] 	downloads[36] 	11786
scalar tree_4_3_u00_r5_network.client[36] 	avg_time[36] 	0.004092649381
scalar tree_4_3_u00_r5_network.client[37] 	hdistance[37] 	2.6526166430181
scalar tree_4_3_u00_r5_network.client[37] 	downloads[37] 	11981
scalar tree_4_3_u00_r5_network.client[37] 	avg_time[37] 	0.004123859801
scalar tree_4_3_u00_r5_network.client[38] 	hdistance[38] 	2.668755669168
scalar tree_4_3_u00_r5_network.client[38] 	downloads[38] 	12127
scalar tree_4_3_u00_r5_network.client[38] 	avg_time[38] 	0.004149487824
scalar tree_4_3_u00_r5_network.client[39] 	hdistance[39] 	2.6765364518537
scalar tree_4_3_u00_r5_network.client[39] 	downloads[39] 	12057
scalar tree_4_3_u00_r5_network.client[39] 	avg_time[39] 	0.004163885181
