version 2
run General-0-20160902-17:36:04-4279
attr a 0.9
attr cd ffc0.2
attr configname General
attr cr lru
attr datetime 20160902-17:36:04
attr experiment General
attr fsize 1
attr inifile hw5115/scenario_Y/omnetp.ini
attr iterationvars "$name=tree_4_3, $un=00, $rep=1, $cd=ffc0.2, $cr=lru, $fsize=1, $a=0.9, $sl=nrr, $ttl=1000, $variance=0.05"
attr iterationvars2 "$name=tree_4_3, $un=00, $rep=1, $cd=ffc0.2, $cr=lru, $fsize=1, $a=0.9, $sl=nrr, $ttl=1000, $variance=0.05, $repetition=0"
attr measurement "$name=tree_4_3, $un=00, $rep=1, $cd=ffc0.2, $cr=lru, $fsize=1, $a=0.9, $sl=nrr, $ttl=1000, $variance=0.05"
attr name tree_4_3
attr network networks.${name}_u${un}_r${rep}_network
attr processid 4279
attr rep 1
attr repetition 0
attr replication #0
attr resultdir results
attr runnumber 0
attr seedset 1
attr sl nrr
attr ttl 1000
attr un 00
attr variance 0.05

scalar . 	a 	0.9
scalar . 	fsize 	1
scalar . 	rep 	1
scalar . 	ttl 	1000
scalar . 	un 	00
scalar . 	variance 	0.05
scalar tree_4_3_u00_r1_network.content_distribution 	repo-0 	0
scalar tree_4_3_u00_r1_network.content_distribution 	client-0 	13
scalar tree_4_3_u00_r1_network.content_distribution 	client-1 	14
scalar tree_4_3_u00_r1_network.content_distribution 	client-2 	15
scalar tree_4_3_u00_r1_network.content_distribution 	client-3 	16
scalar tree_4_3_u00_r1_network.content_distribution 	client-4 	17
scalar tree_4_3_u00_r1_network.content_distribution 	client-5 	18
scalar tree_4_3_u00_r1_network.content_distribution 	client-6 	19
scalar tree_4_3_u00_r1_network.content_distribution 	client-7 	20
scalar tree_4_3_u00_r1_network.content_distribution 	client-8 	21
scalar tree_4_3_u00_r1_network.content_distribution 	client-9 	22
scalar tree_4_3_u00_r1_network.content_distribution 	client-10 	23
scalar tree_4_3_u00_r1_network.content_distribution 	client-11 	24
scalar tree_4_3_u00_r1_network.content_distribution 	client-12 	25
scalar tree_4_3_u00_r1_network.content_distribution 	client-13 	26
scalar tree_4_3_u00_r1_network.content_distribution 	client-14 	27
scalar tree_4_3_u00_r1_network.content_distribution 	client-15 	28
scalar tree_4_3_u00_r1_network.content_distribution 	client-16 	29
scalar tree_4_3_u00_r1_network.content_distribution 	client-17 	30
scalar tree_4_3_u00_r1_network.content_distribution 	client-18 	31
scalar tree_4_3_u00_r1_network.content_distribution 	client-19 	32
scalar tree_4_3_u00_r1_network.content_distribution 	client-20 	33
scalar tree_4_3_u00_r1_network.content_distribution 	client-21 	34
scalar tree_4_3_u00_r1_network.content_distribution 	client-22 	35
scalar tree_4_3_u00_r1_network.content_distribution 	client-23 	36
scalar tree_4_3_u00_r1_network.content_distribution 	client-24 	37
scalar tree_4_3_u00_r1_network.content_distribution 	client-25 	38
scalar tree_4_3_u00_r1_network.content_distribution 	client-26 	39
scalar tree_4_3_u00_r1_network.content_distribution 	repo-0_card 	100000
scalar tree_4_3_u00_r1_network.content_distribution 	repo-0_price 	0
scalar tree_4_3_u00_r1_network.statistics 	stabilization_time 	1753.8
scalar tree_4_3_u00_r1_network.statistics 	p_hit 	0.22169282823549
scalar tree_4_3_u00_r1_network.statistics 	interests 	24867.85
scalar tree_4_3_u00_r1_network.statistics 	data 	16758.7
scalar tree_4_3_u00_r1_network.statistics 	hdistance 	2.6603235538215
scalar tree_4_3_u00_r1_network.statistics 	avg_time 	0.004133364791
scalar tree_4_3_u00_r1_network.statistics 	downloads 	324362
scalar tree_4_3_u00_r1_network.statistics 	total_cost 	0
scalar tree_4_3_u00_r1_network.statistics 	total_replicas 	100000
scalar tree_4_3_u00_r1_network.statistics 	inner_hit 	0.4063885411978
scalar tree_4_3_u00_r1_network.node[0].core_layer 	interests[0] 	197007
scalar tree_4_3_u00_r1_network.node[0].core_layer 	repo_load[0] 	192545
scalar tree_4_3_u00_r1_network.node[0].core_layer 	data[0] 	0
scalar tree_4_3_u00_r1_network.node[0].core_layer 	repo_int[0] 	192545
scalar tree_4_3_u00_r1_network.node[0].content_store 	p_hit[0] 	0.022648941408173
scalar tree_4_3_u00_r1_network.node[0].content_store 	hits[0] 	4462
scalar tree_4_3_u00_r1_network.node[0].content_store 	misses[0] 	192545
scalar tree_4_3_u00_r1_network.node[0].content_store 	decision_yes[0] 	185
scalar tree_4_3_u00_r1_network.node[0].content_store 	decision_no[0] 	192360
scalar tree_4_3_u00_r1_network.node[0].content_store 	decision_ratio[0] 	0.00096081435508582
scalar tree_4_3_u00_r1_network.node[1].core_layer 	interests[1] 	71595
scalar tree_4_3_u00_r1_network.node[1].core_layer 	data[1] 	69075
scalar tree_4_3_u00_r1_network.node[1].content_store 	p_hit[1] 	0.035197988686361
scalar tree_4_3_u00_r1_network.node[1].content_store 	hits[1] 	2520
scalar tree_4_3_u00_r1_network.node[1].content_store 	misses[1] 	69075
scalar tree_4_3_u00_r1_network.node[1].content_store 	decision_yes[1] 	95
scalar tree_4_3_u00_r1_network.node[1].content_store 	decision_no[1] 	68980
scalar tree_4_3_u00_r1_network.node[1].content_store 	decision_ratio[1] 	0.0013753166847629
scalar tree_4_3_u00_r1_network.node[2].core_layer 	interests[2] 	71187
scalar tree_4_3_u00_r1_network.node[2].core_layer 	data[2] 	68738
scalar tree_4_3_u00_r1_network.node[2].content_store 	p_hit[2] 	0.03440234874345
scalar tree_4_3_u00_r1_network.node[2].content_store 	hits[2] 	2449
scalar tree_4_3_u00_r1_network.node[2].content_store 	misses[2] 	68738
scalar tree_4_3_u00_r1_network.node[2].content_store 	decision_yes[2] 	85
scalar tree_4_3_u00_r1_network.node[2].content_store 	decision_no[2] 	68653
scalar tree_4_3_u00_r1_network.node[2].content_store 	decision_ratio[2] 	0.0012365794756903
scalar tree_4_3_u00_r1_network.node[3].core_layer 	interests[3] 	71946
scalar tree_4_3_u00_r1_network.node[3].core_layer 	data[3] 	69460
scalar tree_4_3_u00_r1_network.node[3].content_store 	p_hit[3] 	0.03453979373419
scalar tree_4_3_u00_r1_network.node[3].content_store 	hits[3] 	2485
scalar tree_4_3_u00_r1_network.node[3].content_store 	misses[3] 	69461
scalar tree_4_3_u00_r1_network.node[3].content_store 	decision_yes[3] 	81
scalar tree_4_3_u00_r1_network.node[3].content_store 	decision_no[3] 	69379
scalar tree_4_3_u00_r1_network.node[3].content_store 	decision_ratio[3] 	0.0011661387849122
scalar tree_4_3_u00_r1_network.node[4].core_layer 	interests[4] 	27378
scalar tree_4_3_u00_r1_network.node[4].core_layer 	data[4] 	25015
scalar tree_4_3_u00_r1_network.node[4].content_store 	p_hit[4] 	0.086310176053766
scalar tree_4_3_u00_r1_network.node[4].content_store 	hits[4] 	2363
scalar tree_4_3_u00_r1_network.node[4].content_store 	misses[4] 	25015
scalar tree_4_3_u00_r1_network.node[4].content_store 	decision_yes[4] 	57
scalar tree_4_3_u00_r1_network.node[4].content_store 	decision_no[4] 	24958
scalar tree_4_3_u00_r1_network.node[4].content_store 	decision_ratio[4] 	0.0022786328203078
scalar tree_4_3_u00_r1_network.node[5].core_layer 	interests[5] 	27700
scalar tree_4_3_u00_r1_network.node[5].core_layer 	data[5] 	25447
scalar tree_4_3_u00_r1_network.node[5].content_store 	p_hit[5] 	0.081335740072202
scalar tree_4_3_u00_r1_network.node[5].content_store 	hits[5] 	2253
scalar tree_4_3_u00_r1_network.node[5].content_store 	misses[5] 	25447
scalar tree_4_3_u00_r1_network.node[5].content_store 	decision_yes[5] 	53
scalar tree_4_3_u00_r1_network.node[5].content_store 	decision_no[5] 	25394
scalar tree_4_3_u00_r1_network.node[5].content_store 	decision_ratio[5] 	0.0020827602467874
scalar tree_4_3_u00_r1_network.node[6].core_layer 	interests[6] 	27491
scalar tree_4_3_u00_r1_network.node[6].core_layer 	data[6] 	25252
scalar tree_4_3_u00_r1_network.node[6].content_store 	p_hit[6] 	0.081444836491943
scalar tree_4_3_u00_r1_network.node[6].content_store 	hits[6] 	2239
scalar tree_4_3_u00_r1_network.node[6].content_store 	misses[6] 	25252
scalar tree_4_3_u00_r1_network.node[6].content_store 	decision_yes[6] 	52
scalar tree_4_3_u00_r1_network.node[6].content_store 	decision_no[6] 	25200
scalar tree_4_3_u00_r1_network.node[6].content_store 	decision_ratio[6] 	0.0020592428322509
scalar tree_4_3_u00_r1_network.node[7].core_layer 	interests[7] 	27395
scalar tree_4_3_u00_r1_network.node[7].core_layer 	data[7] 	25180
scalar tree_4_3_u00_r1_network.node[7].content_store 	p_hit[7] 	0.080854170469064
scalar tree_4_3_u00_r1_network.node[7].content_store 	hits[7] 	2215
scalar tree_4_3_u00_r1_network.node[7].content_store 	misses[7] 	25180
scalar tree_4_3_u00_r1_network.node[7].content_store 	decision_yes[7] 	59
scalar tree_4_3_u00_r1_network.node[7].content_store 	decision_no[7] 	25121
scalar tree_4_3_u00_r1_network.node[7].content_store 	decision_ratio[7] 	0.0023431294678316
scalar tree_4_3_u00_r1_network.node[8].core_layer 	interests[8] 	27243
scalar tree_4_3_u00_r1_network.node[8].core_layer 	data[8] 	24879
scalar tree_4_3_u00_r1_network.node[8].content_store 	p_hit[8] 	0.086774584296884
scalar tree_4_3_u00_r1_network.node[8].content_store 	hits[8] 	2364
scalar tree_4_3_u00_r1_network.node[8].content_store 	misses[8] 	24879
scalar tree_4_3_u00_r1_network.node[8].content_store 	decision_yes[8] 	61
scalar tree_4_3_u00_r1_network.node[8].content_store 	decision_no[8] 	24818
scalar tree_4_3_u00_r1_network.node[8].content_store 	decision_ratio[8] 	0.0024518670364564
scalar tree_4_3_u00_r1_network.node[9].core_layer 	interests[9] 	27275
scalar tree_4_3_u00_r1_network.node[9].core_layer 	data[9] 	24952
scalar tree_4_3_u00_r1_network.node[9].content_store 	p_hit[9] 	0.085169569202566
scalar tree_4_3_u00_r1_network.node[9].content_store 	hits[9] 	2323
scalar tree_4_3_u00_r1_network.node[9].content_store 	misses[9] 	24952
scalar tree_4_3_u00_r1_network.node[9].content_store 	decision_yes[9] 	51
scalar tree_4_3_u00_r1_network.node[9].content_store 	decision_no[9] 	24901
scalar tree_4_3_u00_r1_network.node[9].content_store 	decision_ratio[9] 	0.0020439243347227
scalar tree_4_3_u00_r1_network.node[10].core_layer 	interests[10] 	27258
scalar tree_4_3_u00_r1_network.node[10].core_layer 	data[10] 	24954
scalar tree_4_3_u00_r1_network.node[10].content_store 	p_hit[10] 	0.084488957370313
scalar tree_4_3_u00_r1_network.node[10].content_store 	hits[10] 	2303
scalar tree_4_3_u00_r1_network.node[10].content_store 	misses[10] 	24955
scalar tree_4_3_u00_r1_network.node[10].content_store 	decision_yes[10] 	49
scalar tree_4_3_u00_r1_network.node[10].content_store 	decision_no[10] 	24905
scalar tree_4_3_u00_r1_network.node[10].content_store 	decision_ratio[10] 	0.0019636130480083
scalar tree_4_3_u00_r1_network.node[11].core_layer 	interests[11] 	27488
scalar tree_4_3_u00_r1_network.node[11].core_layer 	data[11] 	25367
scalar tree_4_3_u00_r1_network.node[11].content_store 	p_hit[11] 	0.077124563445867
scalar tree_4_3_u00_r1_network.node[11].content_store 	hits[11] 	2120
scalar tree_4_3_u00_r1_network.node[11].content_store 	misses[11] 	25368
scalar tree_4_3_u00_r1_network.node[11].content_store 	decision_yes[11] 	51
scalar tree_4_3_u00_r1_network.node[11].content_store 	decision_no[11] 	25316
scalar tree_4_3_u00_r1_network.node[11].content_store 	decision_ratio[11] 	0.0020104860645721
scalar tree_4_3_u00_r1_network.node[12].core_layer 	interests[12] 	27577
scalar tree_4_3_u00_r1_network.node[12].core_layer 	data[12] 	25491
scalar tree_4_3_u00_r1_network.node[12].content_store 	p_hit[12] 	0.075606483663923
scalar tree_4_3_u00_r1_network.node[12].content_store 	hits[12] 	2085
scalar tree_4_3_u00_r1_network.node[12].content_store 	misses[12] 	25492
scalar tree_4_3_u00_r1_network.node[12].content_store 	decision_yes[12] 	52
scalar tree_4_3_u00_r1_network.node[12].content_store 	decision_no[12] 	25439
scalar tree_4_3_u00_r1_network.node[12].content_store 	decision_ratio[12] 	0.0020399356635675
scalar tree_4_3_u00_r1_network.node[13].core_layer 	interests[13] 	12283
scalar tree_4_3_u00_r1_network.node[13].core_layer 	data[13] 	8672
scalar tree_4_3_u00_r1_network.node[13].content_store 	p_hit[13] 	0.29398355450623
scalar tree_4_3_u00_r1_network.node[13].content_store 	hits[13] 	3611
scalar tree_4_3_u00_r1_network.node[13].content_store 	misses[13] 	8672
scalar tree_4_3_u00_r1_network.node[13].content_store 	decision_yes[13] 	29
scalar tree_4_3_u00_r1_network.node[13].content_store 	decision_no[13] 	8643
scalar tree_4_3_u00_r1_network.node[13].content_store 	decision_ratio[13] 	0.0033440959409594
scalar tree_4_3_u00_r1_network.node[14].core_layer 	interests[14] 	12277
scalar tree_4_3_u00_r1_network.node[14].core_layer 	data[14] 	8709
scalar tree_4_3_u00_r1_network.node[14].content_store 	p_hit[14] 	0.29062474545899
scalar tree_4_3_u00_r1_network.node[14].content_store 	hits[14] 	3568
scalar tree_4_3_u00_r1_network.node[14].content_store 	misses[14] 	8709
scalar tree_4_3_u00_r1_network.node[14].content_store 	decision_yes[14] 	25
scalar tree_4_3_u00_r1_network.node[14].content_store 	decision_no[14] 	8684
scalar tree_4_3_u00_r1_network.node[14].content_store 	decision_ratio[14] 	0.0028705936387645
scalar tree_4_3_u00_r1_network.node[15].core_layer 	interests[15] 	12607
scalar tree_4_3_u00_r1_network.node[15].core_layer 	data[15] 	8865
scalar tree_4_3_u00_r1_network.node[15].content_store 	p_hit[15] 	0.29681922741334
scalar tree_4_3_u00_r1_network.node[15].content_store 	hits[15] 	3742
scalar tree_4_3_u00_r1_network.node[15].content_store 	misses[15] 	8865
scalar tree_4_3_u00_r1_network.node[15].content_store 	decision_yes[15] 	19
scalar tree_4_3_u00_r1_network.node[15].content_store 	decision_no[15] 	8846
scalar tree_4_3_u00_r1_network.node[15].content_store 	decision_ratio[15] 	0.0021432600112803
scalar tree_4_3_u00_r1_network.node[16].core_layer 	interests[16] 	12580
scalar tree_4_3_u00_r1_network.node[16].core_layer 	data[16] 	8826
scalar tree_4_3_u00_r1_network.node[16].content_store 	p_hit[16] 	0.29841017488076
scalar tree_4_3_u00_r1_network.node[16].content_store 	hits[16] 	3754
scalar tree_4_3_u00_r1_network.node[16].content_store 	misses[16] 	8826
scalar tree_4_3_u00_r1_network.node[16].content_store 	decision_yes[16] 	21
scalar tree_4_3_u00_r1_network.node[16].content_store 	decision_no[16] 	8805
scalar tree_4_3_u00_r1_network.node[16].content_store 	decision_ratio[16] 	0.0023793337865398
scalar tree_4_3_u00_r1_network.node[17].core_layer 	interests[17] 	12537
scalar tree_4_3_u00_r1_network.node[17].core_layer 	data[17] 	8833
scalar tree_4_3_u00_r1_network.node[17].content_store 	p_hit[17] 	0.29544548137513
scalar tree_4_3_u00_r1_network.node[17].content_store 	hits[17] 	3704
scalar tree_4_3_u00_r1_network.node[17].content_store 	misses[17] 	8833
scalar tree_4_3_u00_r1_network.node[17].content_store 	decision_yes[17] 	21
scalar tree_4_3_u00_r1_network.node[17].content_store 	decision_no[17] 	8812
scalar tree_4_3_u00_r1_network.node[17].content_store 	decision_ratio[17] 	0.0023774482055927
scalar tree_4_3_u00_r1_network.node[18].core_layer 	interests[18] 	12542
scalar tree_4_3_u00_r1_network.node[18].core_layer 	data[18] 	8820
scalar tree_4_3_u00_r1_network.node[18].content_store 	p_hit[18] 	0.29676287673417
scalar tree_4_3_u00_r1_network.node[18].content_store 	hits[18] 	3722
scalar tree_4_3_u00_r1_network.node[18].content_store 	misses[18] 	8820
scalar tree_4_3_u00_r1_network.node[18].content_store 	decision_yes[18] 	21
scalar tree_4_3_u00_r1_network.node[18].content_store 	decision_no[18] 	8799
scalar tree_4_3_u00_r1_network.node[18].content_store 	decision_ratio[18] 	0.0023809523809524
scalar tree_4_3_u00_r1_network.node[19].core_layer 	interests[19] 	12332
scalar tree_4_3_u00_r1_network.node[19].core_layer 	data[19] 	8689
scalar tree_4_3_u00_r1_network.node[19].content_store 	p_hit[19] 	0.29541031462861
scalar tree_4_3_u00_r1_network.node[19].content_store 	hits[19] 	3643
scalar tree_4_3_u00_r1_network.node[19].content_store 	misses[19] 	8689
scalar tree_4_3_u00_r1_network.node[19].content_store 	decision_yes[19] 	19
scalar tree_4_3_u00_r1_network.node[19].content_store 	decision_no[19] 	8670
scalar tree_4_3_u00_r1_network.node[19].content_store 	decision_ratio[19] 	0.0021866728046956
scalar tree_4_3_u00_r1_network.node[20].core_layer 	interests[20] 	12381
scalar tree_4_3_u00_r1_network.node[20].core_layer 	data[20] 	8781
scalar tree_4_3_u00_r1_network.node[20].content_store 	p_hit[20] 	0.29076811243034
scalar tree_4_3_u00_r1_network.node[20].content_store 	hits[20] 	3600
scalar tree_4_3_u00_r1_network.node[20].content_store 	misses[20] 	8781
scalar tree_4_3_u00_r1_network.node[20].content_store 	decision_yes[20] 	28
scalar tree_4_3_u00_r1_network.node[20].content_store 	decision_no[20] 	8753
scalar tree_4_3_u00_r1_network.node[20].content_store 	decision_ratio[20] 	0.0031887028812208
scalar tree_4_3_u00_r1_network.node[21].core_layer 	interests[21] 	12613
scalar tree_4_3_u00_r1_network.node[21].core_layer 	data[21] 	8808
scalar tree_4_3_u00_r1_network.node[21].content_store 	p_hit[21] 	0.3016728771902
scalar tree_4_3_u00_r1_network.node[21].content_store 	hits[21] 	3805
scalar tree_4_3_u00_r1_network.node[21].content_store 	misses[21] 	8808
scalar tree_4_3_u00_r1_network.node[21].content_store 	decision_yes[21] 	20
scalar tree_4_3_u00_r1_network.node[21].content_store 	decision_no[21] 	8788
scalar tree_4_3_u00_r1_network.node[21].content_store 	decision_ratio[21] 	0.0022706630336058
scalar tree_4_3_u00_r1_network.node[22].core_layer 	interests[22] 	12596
scalar tree_4_3_u00_r1_network.node[22].core_layer 	data[22] 	8843
scalar tree_4_3_u00_r1_network.node[22].content_store 	p_hit[22] 	0.29795173070816
scalar tree_4_3_u00_r1_network.node[22].content_store 	hits[22] 	3753
scalar tree_4_3_u00_r1_network.node[22].content_store 	misses[22] 	8843
scalar tree_4_3_u00_r1_network.node[22].content_store 	decision_yes[22] 	17
scalar tree_4_3_u00_r1_network.node[22].content_store 	decision_no[22] 	8826
scalar tree_4_3_u00_r1_network.node[22].content_store 	decision_ratio[22] 	0.0019224245165668
scalar tree_4_3_u00_r1_network.node[23].core_layer 	interests[23] 	12352
scalar tree_4_3_u00_r1_network.node[23].core_layer 	data[23] 	8643
scalar tree_4_3_u00_r1_network.node[23].content_store 	p_hit[23] 	0.30027525906736
scalar tree_4_3_u00_r1_network.node[23].content_store 	hits[23] 	3709
scalar tree_4_3_u00_r1_network.node[23].content_store 	misses[23] 	8643
scalar tree_4_3_u00_r1_network.node[23].content_store 	decision_yes[23] 	22
scalar tree_4_3_u00_r1_network.node[23].content_store 	decision_no[23] 	8621
scalar tree_4_3_u00_r1_network.node[23].content_store 	decision_ratio[23] 	0.0025454124725211
scalar tree_4_3_u00_r1_network.node[24].core_layer 	interests[24] 	12462
scalar tree_4_3_u00_r1_network.node[24].core_layer 	data[24] 	8783
scalar tree_4_3_u00_r1_network.node[24].content_store 	p_hit[24] 	0.29521746108169
scalar tree_4_3_u00_r1_network.node[24].content_store 	hits[24] 	3679
scalar tree_4_3_u00_r1_network.node[24].content_store 	misses[24] 	8783
scalar tree_4_3_u00_r1_network.node[24].content_store 	decision_yes[24] 	26
scalar tree_4_3_u00_r1_network.node[24].content_store 	decision_no[24] 	8757
scalar tree_4_3_u00_r1_network.node[24].content_store 	decision_ratio[24] 	0.0029602641466469
scalar tree_4_3_u00_r1_network.node[25].core_layer 	interests[25] 	12260
scalar tree_4_3_u00_r1_network.node[25].core_layer 	data[25] 	8615
scalar tree_4_3_u00_r1_network.node[25].content_store 	p_hit[25] 	0.29730831973899
scalar tree_4_3_u00_r1_network.node[25].content_store 	hits[25] 	3645
scalar tree_4_3_u00_r1_network.node[25].content_store 	misses[25] 	8615
scalar tree_4_3_u00_r1_network.node[25].content_store 	decision_yes[25] 	28
scalar tree_4_3_u00_r1_network.node[25].content_store 	decision_no[25] 	8587
scalar tree_4_3_u00_r1_network.node[25].content_store 	decision_ratio[25] 	0.0032501450957632
scalar tree_4_3_u00_r1_network.node[26].core_layer 	interests[26] 	12529
scalar tree_4_3_u00_r1_network.node[26].core_layer 	data[26] 	8779
scalar tree_4_3_u00_r1_network.node[26].content_store 	p_hit[26] 	0.29930561098252
scalar tree_4_3_u00_r1_network.node[26].content_store 	hits[26] 	3750
scalar tree_4_3_u00_r1_network.node[26].content_store 	misses[26] 	8779
scalar tree_4_3_u00_r1_network.node[26].content_store 	decision_yes[26] 	20
scalar tree_4_3_u00_r1_network.node[26].content_store 	decision_no[26] 	8759
scalar tree_4_3_u00_r1_network.node[26].content_store 	decision_ratio[26] 	0.0022781637999772
scalar tree_4_3_u00_r1_network.node[27].core_layer 	interests[27] 	12387
scalar tree_4_3_u00_r1_network.node[27].core_layer 	data[27] 	8726
scalar tree_4_3_u00_r1_network.node[27].content_store 	p_hit[27] 	0.29555178816501
scalar tree_4_3_u00_r1_network.node[27].content_store 	hits[27] 	3661
scalar tree_4_3_u00_r1_network.node[27].content_store 	misses[27] 	8726
scalar tree_4_3_u00_r1_network.node[27].content_store 	decision_yes[27] 	26
scalar tree_4_3_u00_r1_network.node[27].content_store 	decision_no[27] 	8700
scalar tree_4_3_u00_r1_network.node[27].content_store 	decision_ratio[27] 	0.0029796011918405
scalar tree_4_3_u00_r1_network.node[28].core_layer 	interests[28] 	12360
scalar tree_4_3_u00_r1_network.node[28].core_layer 	data[28] 	8659
scalar tree_4_3_u00_r1_network.node[28].content_store 	p_hit[28] 	0.29943365695793
scalar tree_4_3_u00_r1_network.node[28].content_store 	hits[28] 	3701
scalar tree_4_3_u00_r1_network.node[28].content_store 	misses[28] 	8659
scalar tree_4_3_u00_r1_network.node[28].content_store 	decision_yes[28] 	20
scalar tree_4_3_u00_r1_network.node[28].content_store 	decision_no[28] 	8639
scalar tree_4_3_u00_r1_network.node[28].content_store 	decision_ratio[28] 	0.0023097355352812
scalar tree_4_3_u00_r1_network.node[29].core_layer 	interests[29] 	12355
scalar tree_4_3_u00_r1_network.node[29].core_layer 	data[29] 	8721
scalar tree_4_3_u00_r1_network.node[29].content_store 	p_hit[29] 	0.29413193039255
scalar tree_4_3_u00_r1_network.node[29].content_store 	hits[29] 	3634
scalar tree_4_3_u00_r1_network.node[29].content_store 	misses[29] 	8721
scalar tree_4_3_u00_r1_network.node[29].content_store 	decision_yes[29] 	14
scalar tree_4_3_u00_r1_network.node[29].content_store 	decision_no[29] 	8707
scalar tree_4_3_u00_r1_network.node[29].content_store 	decision_ratio[29] 	0.0016053204907694
scalar tree_4_3_u00_r1_network.node[30].core_layer 	interests[30] 	12535
scalar tree_4_3_u00_r1_network.node[30].core_layer 	data[30] 	8783
scalar tree_4_3_u00_r1_network.node[30].content_store 	p_hit[30] 	0.29932189868369
scalar tree_4_3_u00_r1_network.node[30].content_store 	hits[30] 	3752
scalar tree_4_3_u00_r1_network.node[30].content_store 	misses[30] 	8783
scalar tree_4_3_u00_r1_network.node[30].content_store 	decision_yes[30] 	23
scalar tree_4_3_u00_r1_network.node[30].content_store 	decision_no[30] 	8760
scalar tree_4_3_u00_r1_network.node[30].content_store 	decision_ratio[30] 	0.0026186952066492
scalar tree_4_3_u00_r1_network.node[31].core_layer 	interests[31] 	12488
scalar tree_4_3_u00_r1_network.node[31].core_layer 	data[31] 	8667
scalar tree_4_3_u00_r1_network.node[31].content_store 	p_hit[31] 	0.3058135810378
scalar tree_4_3_u00_r1_network.node[31].content_store 	hits[31] 	3819
scalar tree_4_3_u00_r1_network.node[31].content_store 	misses[31] 	8669
scalar tree_4_3_u00_r1_network.node[31].content_store 	decision_yes[31] 	16
scalar tree_4_3_u00_r1_network.node[31].content_store 	decision_no[31] 	8651
scalar tree_4_3_u00_r1_network.node[31].content_store 	decision_ratio[31] 	0.0018460828429676
scalar tree_4_3_u00_r1_network.node[32].core_layer 	interests[32] 	12408
scalar tree_4_3_u00_r1_network.node[32].core_layer 	data[32] 	8750
scalar tree_4_3_u00_r1_network.node[32].content_store 	p_hit[32] 	0.29472920696325
scalar tree_4_3_u00_r1_network.node[32].content_store 	hits[32] 	3657
scalar tree_4_3_u00_r1_network.node[32].content_store 	misses[32] 	8751
scalar tree_4_3_u00_r1_network.node[32].content_store 	decision_yes[32] 	21
scalar tree_4_3_u00_r1_network.node[32].content_store 	decision_no[32] 	8729
scalar tree_4_3_u00_r1_network.node[32].content_store 	decision_ratio[32] 	0.0024
scalar tree_4_3_u00_r1_network.node[33].core_layer 	interests[33] 	12308
scalar tree_4_3_u00_r1_network.node[33].core_layer 	data[33] 	8674
scalar tree_4_3_u00_r1_network.node[33].content_store 	p_hit[33] 	0.29525511862203
scalar tree_4_3_u00_r1_network.node[33].content_store 	hits[33] 	3634
scalar tree_4_3_u00_r1_network.node[33].content_store 	misses[33] 	8674
scalar tree_4_3_u00_r1_network.node[33].content_store 	decision_yes[33] 	15
scalar tree_4_3_u00_r1_network.node[33].content_store 	decision_no[33] 	8659
scalar tree_4_3_u00_r1_network.node[33].content_store 	decision_ratio[33] 	0.00172930597187
scalar tree_4_3_u00_r1_network.node[34].core_layer 	interests[34] 	12470
scalar tree_4_3_u00_r1_network.node[34].core_layer 	data[34] 	8761
scalar tree_4_3_u00_r1_network.node[34].content_store 	p_hit[34] 	0.29743384121893
scalar tree_4_3_u00_r1_network.node[34].content_store 	hits[34] 	3709
scalar tree_4_3_u00_r1_network.node[34].content_store 	misses[34] 	8761
scalar tree_4_3_u00_r1_network.node[34].content_store 	decision_yes[34] 	16
scalar tree_4_3_u00_r1_network.node[34].content_store 	decision_no[34] 	8745
scalar tree_4_3_u00_r1_network.node[34].content_store 	decision_ratio[34] 	0.001826275539322
scalar tree_4_3_u00_r1_network.node[35].core_layer 	interests[35] 	12496
scalar tree_4_3_u00_r1_network.node[35].core_layer 	data[35] 	8752
scalar tree_4_3_u00_r1_network.node[35].content_store 	p_hit[35] 	0.29969590268886
scalar tree_4_3_u00_r1_network.node[35].content_store 	hits[35] 	3745
scalar tree_4_3_u00_r1_network.node[35].content_store 	misses[35] 	8751
scalar tree_4_3_u00_r1_network.node[35].content_store 	decision_yes[35] 	13
scalar tree_4_3_u00_r1_network.node[35].content_store 	decision_no[35] 	8739
scalar tree_4_3_u00_r1_network.node[35].content_store 	decision_ratio[35] 	0.0014853747714808
scalar tree_4_3_u00_r1_network.node[36].core_layer 	interests[36] 	12546
scalar tree_4_3_u00_r1_network.node[36].core_layer 	data[36] 	8886
scalar tree_4_3_u00_r1_network.node[36].content_store 	p_hit[36] 	0.29164673999681
scalar tree_4_3_u00_r1_network.node[36].content_store 	hits[36] 	3659
scalar tree_4_3_u00_r1_network.node[36].content_store 	misses[36] 	8887
scalar tree_4_3_u00_r1_network.node[36].content_store 	decision_yes[36] 	19
scalar tree_4_3_u00_r1_network.node[36].content_store 	decision_no[36] 	8867
scalar tree_4_3_u00_r1_network.node[36].content_store 	decision_ratio[36] 	0.0021381949133468
scalar tree_4_3_u00_r1_network.node[37].core_layer 	interests[37] 	12433
scalar tree_4_3_u00_r1_network.node[37].core_layer 	data[37] 	8861
scalar tree_4_3_u00_r1_network.node[37].content_store 	p_hit[37] 	0.287299927612
scalar tree_4_3_u00_r1_network.node[37].content_store 	hits[37] 	3572
scalar tree_4_3_u00_r1_network.node[37].content_store 	misses[37] 	8861
scalar tree_4_3_u00_r1_network.node[37].content_store 	decision_yes[37] 	21
scalar tree_4_3_u00_r1_network.node[37].content_store 	decision_no[37] 	8840
scalar tree_4_3_u00_r1_network.node[37].content_store 	decision_ratio[37] 	0.0023699356731746
scalar tree_4_3_u00_r1_network.node[38].core_layer 	interests[38] 	12430
scalar tree_4_3_u00_r1_network.node[38].core_layer 	data[38] 	8735
scalar tree_4_3_u00_r1_network.node[38].content_store 	p_hit[38] 	0.29726468222043
scalar tree_4_3_u00_r1_network.node[38].content_store 	hits[38] 	3695
scalar tree_4_3_u00_r1_network.node[38].content_store 	misses[38] 	8735
scalar tree_4_3_u00_r1_network.node[38].content_store 	decision_yes[38] 	28
scalar tree_4_3_u00_r1_network.node[38].content_store 	decision_no[38] 	8707
scalar tree_4_3_u00_r1_network.node[38].content_store 	decision_ratio[38] 	0.0032054951345163
scalar tree_4_3_u00_r1_network.node[39].core_layer 	interests[39] 	12607
scalar tree_4_3_u00_r1_network.node[39].core_layer 	data[39] 	8897
scalar tree_4_3_u00_r1_network.node[39].content_store 	p_hit[39] 	0.29428095502499
scalar tree_4_3_u00_r1_network.node[39].content_store 	hits[39] 	3710
scalar tree_4_3_u00_r1_network.node[39].content_store 	misses[39] 	8897
scalar tree_4_3_u00_r1_network.node[39].content_store 	decision_yes[39] 	22
scalar tree_4_3_u00_r1_network.node[39].content_store 	decision_no[39] 	8875
scalar tree_4_3_u00_r1_network.node[39].content_store 	decision_ratio[39] 	0.0024727436214454
scalar tree_4_3_u00_r1_network.client[13] 	hdistance[13] 	2.6630011842328
scalar tree_4_3_u00_r1_network.client[13] 	downloads[13] 	11822
scalar tree_4_3_u00_r1_network.client[13] 	avg_time[13] 	0.004143965902
scalar tree_4_3_u00_r1_network.client[14] 	hdistance[14] 	2.6725215335248
scalar tree_4_3_u00_r1_network.client[14] 	downloads[14] 	11842
scalar tree_4_3_u00_r1_network.client[14] 	avg_time[14] 	0.004150478382
scalar tree_4_3_u00_r1_network.client[15] 	hdistance[15] 	2.6467686235816
scalar tree_4_3_u00_r1_network.client[15] 	downloads[15] 	12162
scalar tree_4_3_u00_r1_network.client[15] 	avg_time[15] 	0.004118069653
scalar tree_4_3_u00_r1_network.client[16] 	hdistance[16] 	2.6759420289855
scalar tree_4_3_u00_r1_network.client[16] 	downloads[16] 	12075
scalar tree_4_3_u00_r1_network.client[16] 	avg_time[16] 	0.004161322048
scalar tree_4_3_u00_r1_network.client[17] 	hdistance[17] 	2.6521202140799
scalar tree_4_3_u00_r1_network.client[17] 	downloads[17] 	12145
scalar tree_4_3_u00_r1_network.client[17] 	avg_time[17] 	0.004124821995
scalar tree_4_3_u00_r1_network.client[18] 	hdistance[18] 	2.6734152007966
scalar tree_4_3_u00_r1_network.client[18] 	downloads[18] 	12052
scalar tree_4_3_u00_r1_network.client[18] 	avg_time[18] 	0.004155489842
scalar tree_4_3_u00_r1_network.client[19] 	hdistance[19] 	2.6718013468013
scalar tree_4_3_u00_r1_network.client[19] 	downloads[19] 	11880
scalar tree_4_3_u00_r1_network.client[19] 	avg_time[19] 	0.004150670425
scalar tree_4_3_u00_r1_network.client[20] 	hdistance[20] 	2.6713450292398
scalar tree_4_3_u00_r1_network.client[20] 	downloads[20] 	11970
scalar tree_4_3_u00_r1_network.client[20] 	avg_time[20] 	0.004153881707
scalar tree_4_3_u00_r1_network.client[21] 	hdistance[21] 	2.6539511791477
scalar tree_4_3_u00_r1_network.client[21] 	downloads[21] 	12085
scalar tree_4_3_u00_r1_network.client[21] 	avg_time[21] 	0.004129248133
scalar tree_4_3_u00_r1_network.client[22] 	hdistance[22] 	2.6726970954357
scalar tree_4_3_u00_r1_network.client[22] 	downloads[22] 	12050
scalar tree_4_3_u00_r1_network.client[22] 	avg_time[22] 	0.004154519805
scalar tree_4_3_u00_r1_network.client[23] 	hdistance[23] 	2.6506237356709
scalar tree_4_3_u00_r1_network.client[23] 	downloads[23] 	11864
scalar tree_4_3_u00_r1_network.client[23] 	avg_time[23] 	0.004122721213
scalar tree_4_3_u00_r1_network.client[24] 	hdistance[24] 	2.6484627496478
scalar tree_4_3_u00_r1_network.client[24] 	downloads[24] 	12067
scalar tree_4_3_u00_r1_network.client[24] 	avg_time[24] 	0.004115352931
scalar tree_4_3_u00_r1_network.client[25] 	hdistance[25] 	2.6396259792772
scalar tree_4_3_u00_r1_network.client[25] 	downloads[25] 	11871
scalar tree_4_3_u00_r1_network.client[25] 	avg_time[25] 	0.004102263093
scalar tree_4_3_u00_r1_network.client[26] 	hdistance[26] 	2.6404948453608
scalar tree_4_3_u00_r1_network.client[26] 	downloads[26] 	12125
scalar tree_4_3_u00_r1_network.client[26] 	avg_time[26] 	0.004097976338
scalar tree_4_3_u00_r1_network.client[27] 	hdistance[27] 	2.6494553920346
scalar tree_4_3_u00_r1_network.client[27] 	downloads[27] 	12027
scalar tree_4_3_u00_r1_network.client[27] 	avg_time[27] 	0.0041147388
scalar tree_4_3_u00_r1_network.client[28] 	hdistance[28] 	2.6545515732795
scalar tree_4_3_u00_r1_network.client[28] 	downloads[28] 	11886
scalar tree_4_3_u00_r1_network.client[28] 	avg_time[28] 	0.004120138342
scalar tree_4_3_u00_r1_network.client[29] 	hdistance[29] 	2.6675844806008
scalar tree_4_3_u00_r1_network.client[29] 	downloads[29] 	11985
scalar tree_4_3_u00_r1_network.client[29] 	avg_time[29] 	0.004138002845
scalar tree_4_3_u00_r1_network.client[30] 	hdistance[30] 	2.6266787509269
scalar tree_4_3_u00_r1_network.client[30] 	downloads[30] 	12137
scalar tree_4_3_u00_r1_network.client[30] 	avg_time[30] 	0.004080741772
scalar tree_4_3_u00_r1_network.client[31] 	hdistance[31] 	2.6388704318937
scalar tree_4_3_u00_r1_network.client[31] 	downloads[31] 	12040
scalar tree_4_3_u00_r1_network.client[31] 	avg_time[31] 	0.004094515653
scalar tree_4_3_u00_r1_network.client[32] 	hdistance[32] 	2.6627189324437
scalar tree_4_3_u00_r1_network.client[32] 	downloads[32] 	11990
scalar tree_4_3_u00_r1_network.client[32] 	avg_time[32] 	0.004129771793
scalar tree_4_3_u00_r1_network.client[33] 	hdistance[33] 	2.653184526307
scalar tree_4_3_u00_r1_network.client[33] 	downloads[33] 	11917
scalar tree_4_3_u00_r1_network.client[33] 	avg_time[33] 	0.004117644119
scalar tree_4_3_u00_r1_network.client[34] 	hdistance[34] 	2.6669164793072
scalar tree_4_3_u00_r1_network.client[34] 	downloads[34] 	12009
scalar tree_4_3_u00_r1_network.client[34] 	avg_time[34] 	0.004139392464
scalar tree_4_3_u00_r1_network.client[35] 	hdistance[35] 	2.6436183395291
scalar tree_4_3_u00_r1_network.client[35] 	downloads[35] 	12105
scalar tree_4_3_u00_r1_network.client[35] 	avg_time[35] 	0.00410755585
scalar tree_4_3_u00_r1_network.client[36] 	hdistance[36] 	2.681464303462
scalar tree_4_3_u00_r1_network.client[36] 	downloads[36] 	12074
scalar tree_4_3_u00_r1_network.client[36] 	avg_time[36] 	0.004169452014
scalar tree_4_3_u00_r1_network.client[37] 	hdistance[37] 	2.6975467775468
scalar tree_4_3_u00_r1_network.client[37] 	downloads[37] 	12025
scalar tree_4_3_u00_r1_network.client[37] 	avg_time[37] 	0.004191764131
scalar tree_4_3_u00_r1_network.client[38] 	hdistance[38] 	2.6795547744581
scalar tree_4_3_u00_r1_network.client[38] 	downloads[38] 	11949
scalar tree_4_3_u00_r1_network.client[38] 	avg_time[38] 	0.004166070201
scalar tree_4_3_u00_r1_network.client[39] 	hdistance[39] 	2.6738204456094
scalar tree_4_3_u00_r1_network.client[39] 	downloads[39] 	12208
scalar tree_4_3_u00_r1_network.client[39] 	avg_time[39] 	0.004150279923
