version 2
run General-2-20160820-13:40:41-2644
attr a 0.9
attr cd lce
attr configname General
attr cr lru
attr datetime 20160820-13:40:41
attr experiment General
attr fsize 1
attr inifile hw5115/scenario_A/SPR-LCE.ini
attr iterationvars "$name=tree_4_3, $un=00, $rep=3, $cd=lce, $cr=lru, $fsize=1, $a=0.9, $sl=spr, $ttl=1000, $variance=0.05"
attr iterationvars2 "$name=tree_4_3, $un=00, $rep=3, $cd=lce, $cr=lru, $fsize=1, $a=0.9, $sl=spr, $ttl=1000, $variance=0.05, $repetition=0"
attr measurement "$name=tree_4_3, $un=00, $rep=3, $cd=lce, $cr=lru, $fsize=1, $a=0.9, $sl=spr, $ttl=1000, $variance=0.05"
attr name tree_4_3
attr network networks.${name}_u${un}_r${rep}_network
attr processid 2644
attr rep 3
attr repetition 0
attr replication #0
attr resultdir results
attr runnumber 2
attr seedset 3
attr sl spr
attr ttl 1000
attr un 00
attr variance 0.05

scalar . 	a 	0.9
scalar . 	fsize 	1
scalar . 	rep 	3
scalar . 	ttl 	1000
scalar . 	un 	00
scalar . 	variance 	0.05
scalar tree_4_3_u00_r3_network.content_distribution 	repo-0 	0
scalar tree_4_3_u00_r3_network.content_distribution 	client-0 	13
scalar tree_4_3_u00_r3_network.content_distribution 	client-1 	14
scalar tree_4_3_u00_r3_network.content_distribution 	client-2 	15
scalar tree_4_3_u00_r3_network.content_distribution 	client-3 	16
scalar tree_4_3_u00_r3_network.content_distribution 	client-4 	17
scalar tree_4_3_u00_r3_network.content_distribution 	client-5 	18
scalar tree_4_3_u00_r3_network.content_distribution 	client-6 	19
scalar tree_4_3_u00_r3_network.content_distribution 	client-7 	20
scalar tree_4_3_u00_r3_network.content_distribution 	client-8 	21
scalar tree_4_3_u00_r3_network.content_distribution 	client-9 	22
scalar tree_4_3_u00_r3_network.content_distribution 	client-10 	23
scalar tree_4_3_u00_r3_network.content_distribution 	client-11 	24
scalar tree_4_3_u00_r3_network.content_distribution 	client-12 	25
scalar tree_4_3_u00_r3_network.content_distribution 	client-13 	26
scalar tree_4_3_u00_r3_network.content_distribution 	client-14 	27
scalar tree_4_3_u00_r3_network.content_distribution 	client-15 	28
scalar tree_4_3_u00_r3_network.content_distribution 	client-16 	29
scalar tree_4_3_u00_r3_network.content_distribution 	client-17 	30
scalar tree_4_3_u00_r3_network.content_distribution 	client-18 	31
scalar tree_4_3_u00_r3_network.content_distribution 	client-19 	32
scalar tree_4_3_u00_r3_network.content_distribution 	client-20 	33
scalar tree_4_3_u00_r3_network.content_distribution 	client-21 	34
scalar tree_4_3_u00_r3_network.content_distribution 	client-22 	35
scalar tree_4_3_u00_r3_network.content_distribution 	client-23 	36
scalar tree_4_3_u00_r3_network.content_distribution 	client-24 	37
scalar tree_4_3_u00_r3_network.content_distribution 	client-25 	38
scalar tree_4_3_u00_r3_network.content_distribution 	client-26 	39
scalar tree_4_3_u00_r3_network.content_distribution 	repo-0_card 	100000
scalar tree_4_3_u00_r3_network.content_distribution 	repo-0_price 	0
scalar tree_4_3_u00_r3_network.statistics 	stabilization_time 	566.5
scalar tree_4_3_u00_r3_network.statistics 	p_hit 	0.11464667212542
scalar tree_4_3_u00_r3_network.statistics 	interests 	28053.35
scalar tree_4_3_u00_r3_network.statistics 	data 	19949.25
scalar tree_4_3_u00_r3_network.statistics 	hdistance 	3.2467203251172
scalar tree_4_3_u00_r3_network.statistics 	avg_time 	0.004923333882
scalar tree_4_3_u00_r3_network.statistics 	downloads 	324159
scalar tree_4_3_u00_r3_network.statistics 	total_cost 	0
scalar tree_4_3_u00_r3_network.statistics 	total_replicas 	100000
scalar tree_4_3_u00_r3_network.statistics 	inner_hit 	0.21515675949148
scalar tree_4_3_u00_r3_network.node[0].core_layer 	interests[0] 	259295
scalar tree_4_3_u00_r3_network.node[0].core_layer 	repo_load[0] 	254414
scalar tree_4_3_u00_r3_network.node[0].core_layer 	data[0] 	0
scalar tree_4_3_u00_r3_network.node[0].core_layer 	repo_int[0] 	254414
scalar tree_4_3_u00_r3_network.node[0].content_store 	p_hit[0] 	0.018824119246418
scalar tree_4_3_u00_r3_network.node[0].content_store 	hits[0] 	4881
scalar tree_4_3_u00_r3_network.node[0].content_store 	misses[0] 	254414
scalar tree_4_3_u00_r3_network.node[0].content_store 	decision_yes[0] 	254414
scalar tree_4_3_u00_r3_network.node[0].content_store 	decision_no[0] 	0
scalar tree_4_3_u00_r3_network.node[0].content_store 	decision_ratio[0] 	1
scalar tree_4_3_u00_r3_network.node[1].core_layer 	interests[1] 	88661
scalar tree_4_3_u00_r3_network.node[1].core_layer 	data[1] 	86536
scalar tree_4_3_u00_r3_network.node[1].content_store 	p_hit[1] 	0.023945139351011
scalar tree_4_3_u00_r3_network.node[1].content_store 	hits[1] 	2123
scalar tree_4_3_u00_r3_network.node[1].content_store 	misses[1] 	86538
scalar tree_4_3_u00_r3_network.node[1].content_store 	decision_yes[1] 	86536
scalar tree_4_3_u00_r3_network.node[1].content_store 	decision_no[1] 	0
scalar tree_4_3_u00_r3_network.node[1].content_store 	decision_ratio[1] 	1
scalar tree_4_3_u00_r3_network.node[2].core_layer 	interests[2] 	87982
scalar tree_4_3_u00_r3_network.node[2].core_layer 	data[2] 	85960
scalar tree_4_3_u00_r3_network.node[2].content_store 	p_hit[2] 	0.022970607624287
scalar tree_4_3_u00_r3_network.node[2].content_store 	hits[2] 	2021
scalar tree_4_3_u00_r3_network.node[2].content_store 	misses[2] 	85961
scalar tree_4_3_u00_r3_network.node[2].content_store 	decision_yes[2] 	85960
scalar tree_4_3_u00_r3_network.node[2].content_store 	decision_no[2] 	0
scalar tree_4_3_u00_r3_network.node[2].content_store 	decision_ratio[2] 	1
scalar tree_4_3_u00_r3_network.node[3].core_layer 	interests[3] 	88789
scalar tree_4_3_u00_r3_network.node[3].core_layer 	data[3] 	86800
scalar tree_4_3_u00_r3_network.node[3].content_store 	p_hit[3] 	0.022300059692079
scalar tree_4_3_u00_r3_network.node[3].content_store 	hits[3] 	1980
scalar tree_4_3_u00_r3_network.node[3].content_store 	misses[3] 	86809
scalar tree_4_3_u00_r3_network.node[3].content_store 	decision_yes[3] 	86800
scalar tree_4_3_u00_r3_network.node[3].content_store 	decision_no[3] 	0
scalar tree_4_3_u00_r3_network.node[3].content_store 	decision_ratio[3] 	1
scalar tree_4_3_u00_r3_network.node[4].core_layer 	interests[4] 	30823
scalar tree_4_3_u00_r3_network.node[4].core_layer 	data[4] 	29942
scalar tree_4_3_u00_r3_network.node[4].content_store 	p_hit[4] 	0.028485222074425
scalar tree_4_3_u00_r3_network.node[4].content_store 	hits[4] 	878
scalar tree_4_3_u00_r3_network.node[4].content_store 	misses[4] 	29945
scalar tree_4_3_u00_r3_network.node[4].content_store 	decision_yes[4] 	29942
scalar tree_4_3_u00_r3_network.node[4].content_store 	decision_no[4] 	0
scalar tree_4_3_u00_r3_network.node[4].content_store 	decision_ratio[4] 	1
scalar tree_4_3_u00_r3_network.node[5].core_layer 	interests[5] 	30326
scalar tree_4_3_u00_r3_network.node[5].core_layer 	data[5] 	29411
scalar tree_4_3_u00_r3_network.node[5].content_store 	p_hit[5] 	0.030205104530766
scalar tree_4_3_u00_r3_network.node[5].content_store 	hits[5] 	916
scalar tree_4_3_u00_r3_network.node[5].content_store 	misses[5] 	29410
scalar tree_4_3_u00_r3_network.node[5].content_store 	decision_yes[5] 	29411
scalar tree_4_3_u00_r3_network.node[5].content_store 	decision_no[5] 	0
scalar tree_4_3_u00_r3_network.node[5].content_store 	decision_ratio[5] 	1
scalar tree_4_3_u00_r3_network.node[6].core_layer 	interests[6] 	30180
scalar tree_4_3_u00_r3_network.node[6].core_layer 	data[6] 	29309
scalar tree_4_3_u00_r3_network.node[6].content_store 	p_hit[6] 	0.028860172299536
scalar tree_4_3_u00_r3_network.node[6].content_store 	hits[6] 	871
scalar tree_4_3_u00_r3_network.node[6].content_store 	misses[6] 	29309
scalar tree_4_3_u00_r3_network.node[6].content_store 	decision_yes[6] 	29309
scalar tree_4_3_u00_r3_network.node[6].content_store 	decision_no[6] 	0
scalar tree_4_3_u00_r3_network.node[6].content_store 	decision_ratio[6] 	1
scalar tree_4_3_u00_r3_network.node[7].core_layer 	interests[7] 	30322
scalar tree_4_3_u00_r3_network.node[7].core_layer 	data[7] 	29443
scalar tree_4_3_u00_r3_network.node[7].content_store 	p_hit[7] 	0.028889914913264
scalar tree_4_3_u00_r3_network.node[7].content_store 	hits[7] 	876
scalar tree_4_3_u00_r3_network.node[7].content_store 	misses[7] 	29446
scalar tree_4_3_u00_r3_network.node[7].content_store 	decision_yes[7] 	29443
scalar tree_4_3_u00_r3_network.node[7].content_store 	decision_no[7] 	0
scalar tree_4_3_u00_r3_network.node[7].content_store 	decision_ratio[7] 	1
scalar tree_4_3_u00_r3_network.node[8].core_layer 	interests[8] 	30336
scalar tree_4_3_u00_r3_network.node[8].core_layer 	data[8] 	29524
scalar tree_4_3_u00_r3_network.node[8].content_store 	p_hit[8] 	0.026766877637131
scalar tree_4_3_u00_r3_network.node[8].content_store 	hits[8] 	812
scalar tree_4_3_u00_r3_network.node[8].content_store 	misses[8] 	29524
scalar tree_4_3_u00_r3_network.node[8].content_store 	decision_yes[8] 	29524
scalar tree_4_3_u00_r3_network.node[8].content_store 	decision_no[8] 	0
scalar tree_4_3_u00_r3_network.node[8].content_store 	decision_ratio[8] 	1
scalar tree_4_3_u00_r3_network.node[9].core_layer 	interests[9] 	29883
scalar tree_4_3_u00_r3_network.node[9].core_layer 	data[9] 	29017
scalar tree_4_3_u00_r3_network.node[9].content_store 	p_hit[9] 	0.028946223605394
scalar tree_4_3_u00_r3_network.node[9].content_store 	hits[9] 	865
scalar tree_4_3_u00_r3_network.node[9].content_store 	misses[9] 	29018
scalar tree_4_3_u00_r3_network.node[9].content_store 	decision_yes[9] 	29017
scalar tree_4_3_u00_r3_network.node[9].content_store 	decision_no[9] 	0
scalar tree_4_3_u00_r3_network.node[9].content_store 	decision_ratio[9] 	1
scalar tree_4_3_u00_r3_network.node[10].core_layer 	interests[10] 	30383
scalar tree_4_3_u00_r3_network.node[10].core_layer 	data[10] 	29527
scalar tree_4_3_u00_r3_network.node[10].content_store 	p_hit[10] 	0.028074910311687
scalar tree_4_3_u00_r3_network.node[10].content_store 	hits[10] 	853
scalar tree_4_3_u00_r3_network.node[10].content_store 	misses[10] 	29530
scalar tree_4_3_u00_r3_network.node[10].content_store 	decision_yes[10] 	29527
scalar tree_4_3_u00_r3_network.node[10].content_store 	decision_no[10] 	0
scalar tree_4_3_u00_r3_network.node[10].content_store 	decision_ratio[10] 	1
scalar tree_4_3_u00_r3_network.node[11].core_layer 	interests[11] 	30539
scalar tree_4_3_u00_r3_network.node[11].core_layer 	data[11] 	29674
scalar tree_4_3_u00_r3_network.node[11].content_store 	p_hit[11] 	0.02822620256066
scalar tree_4_3_u00_r3_network.node[11].content_store 	hits[11] 	862
scalar tree_4_3_u00_r3_network.node[11].content_store 	misses[11] 	29677
scalar tree_4_3_u00_r3_network.node[11].content_store 	decision_yes[11] 	29674
scalar tree_4_3_u00_r3_network.node[11].content_store 	decision_no[11] 	0
scalar tree_4_3_u00_r3_network.node[11].content_store 	decision_ratio[11] 	1
scalar tree_4_3_u00_r3_network.node[12].core_layer 	interests[12] 	30442
scalar tree_4_3_u00_r3_network.node[12].core_layer 	data[12] 	29589
scalar tree_4_3_u00_r3_network.node[12].content_store 	p_hit[12] 	0.027987648643322
scalar tree_4_3_u00_r3_network.node[12].content_store 	hits[12] 	852
scalar tree_4_3_u00_r3_network.node[12].content_store 	misses[12] 	29590
scalar tree_4_3_u00_r3_network.node[12].content_store 	decision_yes[12] 	29589
scalar tree_4_3_u00_r3_network.node[12].content_store 	decision_no[12] 	0
scalar tree_4_3_u00_r3_network.node[12].content_store 	decision_ratio[12] 	1
scalar tree_4_3_u00_r3_network.node[13].core_layer 	interests[13] 	12029
scalar tree_4_3_u00_r3_network.node[13].core_layer 	data[13] 	10218
scalar tree_4_3_u00_r3_network.node[13].content_store 	p_hit[13] 	0.15046969822928
scalar tree_4_3_u00_r3_network.node[13].content_store 	hits[13] 	1810
scalar tree_4_3_u00_r3_network.node[13].content_store 	misses[13] 	10219
scalar tree_4_3_u00_r3_network.node[13].content_store 	decision_yes[13] 	10218
scalar tree_4_3_u00_r3_network.node[13].content_store 	decision_no[13] 	0
scalar tree_4_3_u00_r3_network.node[13].content_store 	decision_ratio[13] 	1
scalar tree_4_3_u00_r3_network.node[14].core_layer 	interests[14] 	12221
scalar tree_4_3_u00_r3_network.node[14].core_layer 	data[14] 	10327
scalar tree_4_3_u00_r3_network.node[14].content_store 	p_hit[14] 	0.15497913427706
scalar tree_4_3_u00_r3_network.node[14].content_store 	hits[14] 	1894
scalar tree_4_3_u00_r3_network.node[14].content_store 	misses[14] 	10327
scalar tree_4_3_u00_r3_network.node[14].content_store 	decision_yes[14] 	10327
scalar tree_4_3_u00_r3_network.node[14].content_store 	decision_no[14] 	0
scalar tree_4_3_u00_r3_network.node[14].content_store 	decision_ratio[14] 	1
scalar tree_4_3_u00_r3_network.node[15].core_layer 	interests[15] 	12098
scalar tree_4_3_u00_r3_network.node[15].core_layer 	data[15] 	10278
scalar tree_4_3_u00_r3_network.node[15].content_store 	p_hit[15] 	0.15035543064969
scalar tree_4_3_u00_r3_network.node[15].content_store 	hits[15] 	1819
scalar tree_4_3_u00_r3_network.node[15].content_store 	misses[15] 	10279
scalar tree_4_3_u00_r3_network.node[15].content_store 	decision_yes[15] 	10278
scalar tree_4_3_u00_r3_network.node[15].content_store 	decision_no[15] 	0
scalar tree_4_3_u00_r3_network.node[15].content_store 	decision_ratio[15] 	1
scalar tree_4_3_u00_r3_network.node[16].core_layer 	interests[16] 	11817
scalar tree_4_3_u00_r3_network.node[16].core_layer 	data[16] 	9893
scalar tree_4_3_u00_r3_network.node[16].content_store 	p_hit[16] 	0.16281628162816
scalar tree_4_3_u00_r3_network.node[16].content_store 	hits[16] 	1924
scalar tree_4_3_u00_r3_network.node[16].content_store 	misses[16] 	9893
scalar tree_4_3_u00_r3_network.node[16].content_store 	decision_yes[16] 	9893
scalar tree_4_3_u00_r3_network.node[16].content_store 	decision_no[16] 	0
scalar tree_4_3_u00_r3_network.node[16].content_store 	decision_ratio[16] 	1
scalar tree_4_3_u00_r3_network.node[17].core_layer 	interests[17] 	12162
scalar tree_4_3_u00_r3_network.node[17].core_layer 	data[17] 	10251
scalar tree_4_3_u00_r3_network.node[17].content_store 	p_hit[17] 	0.15704653839829
scalar tree_4_3_u00_r3_network.node[17].content_store 	hits[17] 	1910
scalar tree_4_3_u00_r3_network.node[17].content_store 	misses[17] 	10252
scalar tree_4_3_u00_r3_network.node[17].content_store 	decision_yes[17] 	10251
scalar tree_4_3_u00_r3_network.node[17].content_store 	decision_no[17] 	0
scalar tree_4_3_u00_r3_network.node[17].content_store 	decision_ratio[17] 	1
scalar tree_4_3_u00_r3_network.node[18].core_layer 	interests[18] 	12107
scalar tree_4_3_u00_r3_network.node[18].core_layer 	data[18] 	10183
scalar tree_4_3_u00_r3_network.node[18].content_store 	p_hit[18] 	0.15875113570662
scalar tree_4_3_u00_r3_network.node[18].content_store 	hits[18] 	1922
scalar tree_4_3_u00_r3_network.node[18].content_store 	misses[18] 	10185
scalar tree_4_3_u00_r3_network.node[18].content_store 	decision_yes[18] 	10183
scalar tree_4_3_u00_r3_network.node[18].content_store 	decision_no[18] 	0
scalar tree_4_3_u00_r3_network.node[18].content_store 	decision_ratio[18] 	1
scalar tree_4_3_u00_r3_network.node[19].core_layer 	interests[19] 	12012
scalar tree_4_3_u00_r3_network.node[19].core_layer 	data[19] 	10041
scalar tree_4_3_u00_r3_network.node[19].content_store 	p_hit[19] 	0.16400266400266
scalar tree_4_3_u00_r3_network.node[19].content_store 	hits[19] 	1970
scalar tree_4_3_u00_r3_network.node[19].content_store 	misses[19] 	10042
scalar tree_4_3_u00_r3_network.node[19].content_store 	decision_yes[19] 	10041
scalar tree_4_3_u00_r3_network.node[19].content_store 	decision_no[19] 	0
scalar tree_4_3_u00_r3_network.node[19].content_store 	decision_ratio[19] 	1
scalar tree_4_3_u00_r3_network.node[20].core_layer 	interests[20] 	11917
scalar tree_4_3_u00_r3_network.node[20].core_layer 	data[20] 	10041
scalar tree_4_3_u00_r3_network.node[20].content_store 	p_hit[20] 	0.15742217000923
scalar tree_4_3_u00_r3_network.node[20].content_store 	hits[20] 	1876
scalar tree_4_3_u00_r3_network.node[20].content_store 	misses[20] 	10041
scalar tree_4_3_u00_r3_network.node[20].content_store 	decision_yes[20] 	10041
scalar tree_4_3_u00_r3_network.node[20].content_store 	decision_no[20] 	0
scalar tree_4_3_u00_r3_network.node[20].content_store 	decision_ratio[20] 	1
scalar tree_4_3_u00_r3_network.node[21].core_layer 	interests[21] 	12005
scalar tree_4_3_u00_r3_network.node[21].core_layer 	data[21] 	10098
scalar tree_4_3_u00_r3_network.node[21].content_store 	p_hit[21] 	0.1588504789671
scalar tree_4_3_u00_r3_network.node[21].content_store 	hits[21] 	1907
scalar tree_4_3_u00_r3_network.node[21].content_store 	misses[21] 	10098
scalar tree_4_3_u00_r3_network.node[21].content_store 	decision_yes[21] 	10098
scalar tree_4_3_u00_r3_network.node[21].content_store 	decision_no[21] 	0
scalar tree_4_3_u00_r3_network.node[21].content_store 	decision_ratio[21] 	1
scalar tree_4_3_u00_r3_network.node[22].core_layer 	interests[22] 	12006
scalar tree_4_3_u00_r3_network.node[22].core_layer 	data[22] 	10211
scalar tree_4_3_u00_r3_network.node[22].content_store 	p_hit[22] 	0.14934199566883
scalar tree_4_3_u00_r3_network.node[22].content_store 	hits[22] 	1793
scalar tree_4_3_u00_r3_network.node[22].content_store 	misses[22] 	10213
scalar tree_4_3_u00_r3_network.node[22].content_store 	decision_yes[22] 	10211
scalar tree_4_3_u00_r3_network.node[22].content_store 	decision_no[22] 	0
scalar tree_4_3_u00_r3_network.node[22].content_store 	decision_ratio[22] 	1
scalar tree_4_3_u00_r3_network.node[23].core_layer 	interests[23] 	11978
scalar tree_4_3_u00_r3_network.node[23].core_layer 	data[23] 	10048
scalar tree_4_3_u00_r3_network.node[23].content_store 	p_hit[23] 	0.16112873601603
scalar tree_4_3_u00_r3_network.node[23].content_store 	hits[23] 	1930
scalar tree_4_3_u00_r3_network.node[23].content_store 	misses[23] 	10048
scalar tree_4_3_u00_r3_network.node[23].content_store 	decision_yes[23] 	10048
scalar tree_4_3_u00_r3_network.node[23].content_store 	decision_no[23] 	0
scalar tree_4_3_u00_r3_network.node[23].content_store 	decision_ratio[23] 	1
scalar tree_4_3_u00_r3_network.node[24].core_layer 	interests[24] 	11937
scalar tree_4_3_u00_r3_network.node[24].core_layer 	data[24] 	10063
scalar tree_4_3_u00_r3_network.node[24].content_store 	p_hit[24] 	0.15699086872749
scalar tree_4_3_u00_r3_network.node[24].content_store 	hits[24] 	1874
scalar tree_4_3_u00_r3_network.node[24].content_store 	misses[24] 	10063
scalar tree_4_3_u00_r3_network.node[24].content_store 	decision_yes[24] 	10063
scalar tree_4_3_u00_r3_network.node[24].content_store 	decision_no[24] 	0
scalar tree_4_3_u00_r3_network.node[24].content_store 	decision_ratio[24] 	1
scalar tree_4_3_u00_r3_network.node[25].core_layer 	interests[25] 	12019
scalar tree_4_3_u00_r3_network.node[25].core_layer 	data[25] 	10159
scalar tree_4_3_u00_r3_network.node[25].content_store 	p_hit[25] 	0.15475497129545
scalar tree_4_3_u00_r3_network.node[25].content_store 	hits[25] 	1860
scalar tree_4_3_u00_r3_network.node[25].content_store 	misses[25] 	10159
scalar tree_4_3_u00_r3_network.node[25].content_store 	decision_yes[25] 	10159
scalar tree_4_3_u00_r3_network.node[25].content_store 	decision_no[25] 	0
scalar tree_4_3_u00_r3_network.node[25].content_store 	decision_ratio[25] 	1
scalar tree_4_3_u00_r3_network.node[26].core_layer 	interests[26] 	11893
scalar tree_4_3_u00_r3_network.node[26].core_layer 	data[26] 	9986
scalar tree_4_3_u00_r3_network.node[26].content_store 	p_hit[26] 	0.16043050533928
scalar tree_4_3_u00_r3_network.node[26].content_store 	hits[26] 	1908
scalar tree_4_3_u00_r3_network.node[26].content_store 	misses[26] 	9985
scalar tree_4_3_u00_r3_network.node[26].content_store 	decision_yes[26] 	9986
scalar tree_4_3_u00_r3_network.node[26].content_store 	decision_no[26] 	0
scalar tree_4_3_u00_r3_network.node[26].content_store 	decision_ratio[26] 	1
scalar tree_4_3_u00_r3_network.node[27].core_layer 	interests[27] 	12133
scalar tree_4_3_u00_r3_network.node[27].core_layer 	data[27] 	10192
scalar tree_4_3_u00_r3_network.node[27].content_store 	p_hit[27] 	0.16014176213632
scalar tree_4_3_u00_r3_network.node[27].content_store 	hits[27] 	1943
scalar tree_4_3_u00_r3_network.node[27].content_store 	misses[27] 	10190
scalar tree_4_3_u00_r3_network.node[27].content_store 	decision_yes[27] 	10192
scalar tree_4_3_u00_r3_network.node[27].content_store 	decision_no[27] 	0
scalar tree_4_3_u00_r3_network.node[27].content_store 	decision_ratio[27] 	1
scalar tree_4_3_u00_r3_network.node[28].core_layer 	interests[28] 	11667
scalar tree_4_3_u00_r3_network.node[28].core_layer 	data[28] 	9834
scalar tree_4_3_u00_r3_network.node[28].content_store 	p_hit[28] 	0.15710979686295
scalar tree_4_3_u00_r3_network.node[28].content_store 	hits[28] 	1833
scalar tree_4_3_u00_r3_network.node[28].content_store 	misses[28] 	9834
scalar tree_4_3_u00_r3_network.node[28].content_store 	decision_yes[28] 	9834
scalar tree_4_3_u00_r3_network.node[28].content_store 	decision_no[28] 	0
scalar tree_4_3_u00_r3_network.node[28].content_store 	decision_ratio[28] 	1
scalar tree_4_3_u00_r3_network.node[29].core_layer 	interests[29] 	11898
scalar tree_4_3_u00_r3_network.node[29].core_layer 	data[29] 	10016
scalar tree_4_3_u00_r3_network.node[29].content_store 	p_hit[29] 	0.15826189275508
scalar tree_4_3_u00_r3_network.node[29].content_store 	hits[29] 	1883
scalar tree_4_3_u00_r3_network.node[29].content_store 	misses[29] 	10015
scalar tree_4_3_u00_r3_network.node[29].content_store 	decision_yes[29] 	10016
scalar tree_4_3_u00_r3_network.node[29].content_store 	decision_no[29] 	0
scalar tree_4_3_u00_r3_network.node[29].content_store 	decision_ratio[29] 	1
scalar tree_4_3_u00_r3_network.node[30].core_layer 	interests[30] 	11995
scalar tree_4_3_u00_r3_network.node[30].core_layer 	data[30] 	10034
scalar tree_4_3_u00_r3_network.node[30].content_store 	p_hit[30] 	0.16340141725719
scalar tree_4_3_u00_r3_network.node[30].content_store 	hits[30] 	1960
scalar tree_4_3_u00_r3_network.node[30].content_store 	misses[30] 	10035
scalar tree_4_3_u00_r3_network.node[30].content_store 	decision_yes[30] 	10034
scalar tree_4_3_u00_r3_network.node[30].content_store 	decision_no[30] 	0
scalar tree_4_3_u00_r3_network.node[30].content_store 	decision_ratio[30] 	1
scalar tree_4_3_u00_r3_network.node[31].core_layer 	interests[31] 	12065
scalar tree_4_3_u00_r3_network.node[31].core_layer 	data[31] 	10095
scalar tree_4_3_u00_r3_network.node[31].content_store 	p_hit[31] 	0.16311645254869
scalar tree_4_3_u00_r3_network.node[31].content_store 	hits[31] 	1968
scalar tree_4_3_u00_r3_network.node[31].content_store 	misses[31] 	10097
scalar tree_4_3_u00_r3_network.node[31].content_store 	decision_yes[31] 	10095
scalar tree_4_3_u00_r3_network.node[31].content_store 	decision_no[31] 	0
scalar tree_4_3_u00_r3_network.node[31].content_store 	decision_ratio[31] 	1
scalar tree_4_3_u00_r3_network.node[32].core_layer 	interests[32] 	12061
scalar tree_4_3_u00_r3_network.node[32].core_layer 	data[32] 	10176
scalar tree_4_3_u00_r3_network.node[32].content_store 	p_hit[32] 	0.1561230412072
scalar tree_4_3_u00_r3_network.node[32].content_store 	hits[32] 	1883
scalar tree_4_3_u00_r3_network.node[32].content_store 	misses[32] 	10178
scalar tree_4_3_u00_r3_network.node[32].content_store 	decision_yes[32] 	10176
scalar tree_4_3_u00_r3_network.node[32].content_store 	decision_no[32] 	0
scalar tree_4_3_u00_r3_network.node[32].content_store 	decision_ratio[32] 	1
scalar tree_4_3_u00_r3_network.node[33].core_layer 	interests[33] 	11965
scalar tree_4_3_u00_r3_network.node[33].core_layer 	data[33] 	10112
scalar tree_4_3_u00_r3_network.node[33].content_store 	p_hit[33] 	0.1548683660677
scalar tree_4_3_u00_r3_network.node[33].content_store 	hits[33] 	1853
scalar tree_4_3_u00_r3_network.node[33].content_store 	misses[33] 	10112
scalar tree_4_3_u00_r3_network.node[33].content_store 	decision_yes[33] 	10112
scalar tree_4_3_u00_r3_network.node[33].content_store 	decision_no[33] 	0
scalar tree_4_3_u00_r3_network.node[33].content_store 	decision_ratio[33] 	1
scalar tree_4_3_u00_r3_network.node[34].core_layer 	interests[34] 	11985
scalar tree_4_3_u00_r3_network.node[34].core_layer 	data[34] 	10109
scalar tree_4_3_u00_r3_network.node[34].content_store 	p_hit[34] 	0.15652899457655
scalar tree_4_3_u00_r3_network.node[34].content_store 	hits[34] 	1876
scalar tree_4_3_u00_r3_network.node[34].content_store 	misses[34] 	10109
scalar tree_4_3_u00_r3_network.node[34].content_store 	decision_yes[34] 	10109
scalar tree_4_3_u00_r3_network.node[34].content_store 	decision_no[34] 	0
scalar tree_4_3_u00_r3_network.node[34].content_store 	decision_ratio[34] 	1
scalar tree_4_3_u00_r3_network.node[35].core_layer 	interests[35] 	11996
scalar tree_4_3_u00_r3_network.node[35].core_layer 	data[35] 	10181
scalar tree_4_3_u00_r3_network.node[35].content_store 	p_hit[35] 	0.15121707235745
scalar tree_4_3_u00_r3_network.node[35].content_store 	hits[35] 	1814
scalar tree_4_3_u00_r3_network.node[35].content_store 	misses[35] 	10182
scalar tree_4_3_u00_r3_network.node[35].content_store 	decision_yes[35] 	10181
scalar tree_4_3_u00_r3_network.node[35].content_store 	decision_no[35] 	0
scalar tree_4_3_u00_r3_network.node[35].content_store 	decision_ratio[35] 	1
scalar tree_4_3_u00_r3_network.node[36].core_layer 	interests[36] 	12157
scalar tree_4_3_u00_r3_network.node[36].core_layer 	data[36] 	10249
scalar tree_4_3_u00_r3_network.node[36].content_store 	p_hit[36] 	0.15669984371144
scalar tree_4_3_u00_r3_network.node[36].content_store 	hits[36] 	1905
scalar tree_4_3_u00_r3_network.node[36].content_store 	misses[36] 	10252
scalar tree_4_3_u00_r3_network.node[36].content_store 	decision_yes[36] 	10249
scalar tree_4_3_u00_r3_network.node[36].content_store 	decision_no[36] 	0
scalar tree_4_3_u00_r3_network.node[36].content_store 	decision_ratio[36] 	1
scalar tree_4_3_u00_r3_network.node[37].core_layer 	interests[37] 	12230
scalar tree_4_3_u00_r3_network.node[37].core_layer 	data[37] 	10358
scalar tree_4_3_u00_r3_network.node[37].content_store 	p_hit[37] 	0.15306623058054
scalar tree_4_3_u00_r3_network.node[37].content_store 	hits[37] 	1872
scalar tree_4_3_u00_r3_network.node[37].content_store 	misses[37] 	10358
scalar tree_4_3_u00_r3_network.node[37].content_store 	decision_yes[37] 	10358
scalar tree_4_3_u00_r3_network.node[37].content_store 	decision_no[37] 	0
scalar tree_4_3_u00_r3_network.node[37].content_store 	decision_ratio[37] 	1
scalar tree_4_3_u00_r3_network.node[38].core_layer 	interests[38] 	11955
scalar tree_4_3_u00_r3_network.node[38].core_layer 	data[38] 	10066
scalar tree_4_3_u00_r3_network.node[38].content_store 	p_hit[38] 	0.15792555416144
scalar tree_4_3_u00_r3_network.node[38].content_store 	hits[38] 	1888
scalar tree_4_3_u00_r3_network.node[38].content_store 	misses[38] 	10067
scalar tree_4_3_u00_r3_network.node[38].content_store 	decision_yes[38] 	10066
scalar tree_4_3_u00_r3_network.node[38].content_store 	decision_no[38] 	0
scalar tree_4_3_u00_r3_network.node[38].content_store 	decision_ratio[38] 	1
scalar tree_4_3_u00_r3_network.node[39].core_layer 	interests[39] 	11865
scalar tree_4_3_u00_r3_network.node[39].core_layer 	data[39] 	10019
scalar tree_4_3_u00_r3_network.node[39].content_store 	p_hit[39] 	0.15558364938896
scalar tree_4_3_u00_r3_network.node[39].content_store 	hits[39] 	1846
scalar tree_4_3_u00_r3_network.node[39].content_store 	misses[39] 	10019
scalar tree_4_3_u00_r3_network.node[39].content_store 	decision_yes[39] 	10019
scalar tree_4_3_u00_r3_network.node[39].content_store 	decision_no[39] 	0
scalar tree_4_3_u00_r3_network.node[39].content_store 	decision_ratio[39] 	1
scalar tree_4_3_u00_r3_network.client[13] 	hdistance[13] 	3.2769371466578
scalar tree_4_3_u00_r3_network.client[13] 	downloads[13] 	12028
scalar tree_4_3_u00_r3_network.client[13] 	avg_time[13] 	0.00496802183
scalar tree_4_3_u00_r3_network.client[14] 	hdistance[14] 	3.2488339743065
scalar tree_4_3_u00_r3_network.client[14] 	downloads[14] 	12221
scalar tree_4_3_u00_r3_network.client[14] 	avg_time[14] 	0.004926802958
scalar tree_4_3_u00_r3_network.client[15] 	hdistance[15] 	3.2711416053567
scalar tree_4_3_u00_r3_network.client[15] 	downloads[15] 	12097
scalar tree_4_3_u00_r3_network.client[15] 	avg_time[15] 	0.004961130104
scalar tree_4_3_u00_r3_network.client[16] 	hdistance[16] 	3.2258610476432
scalar tree_4_3_u00_r3_network.client[16] 	downloads[16] 	11817
scalar tree_4_3_u00_r3_network.client[16] 	avg_time[16] 	0.004889296687
scalar tree_4_3_u00_r3_network.client[17] 	hdistance[17] 	3.2404407532275
scalar tree_4_3_u00_r3_network.client[17] 	downloads[17] 	12161
scalar tree_4_3_u00_r3_network.client[17] 	avg_time[17] 	0.004917269156
scalar tree_4_3_u00_r3_network.client[18] 	hdistance[18] 	3.2297397769517
scalar tree_4_3_u00_r3_network.client[18] 	downloads[18] 	12105
scalar tree_4_3_u00_r3_network.client[18] 	avg_time[18] 	0.004897432797
scalar tree_4_3_u00_r3_network.client[19] 	hdistance[19] 	3.2218799433852
scalar tree_4_3_u00_r3_network.client[19] 	downloads[19] 	12011
scalar tree_4_3_u00_r3_network.client[19] 	avg_time[19] 	0.004885695108
scalar tree_4_3_u00_r3_network.client[20] 	hdistance[20] 	3.2428463539481
scalar tree_4_3_u00_r3_network.client[20] 	downloads[20] 	11917
scalar tree_4_3_u00_r3_network.client[20] 	avg_time[20] 	0.004918868229
scalar tree_4_3_u00_r3_network.client[21] 	hdistance[21] 	3.2354019158684
scalar tree_4_3_u00_r3_network.client[21] 	downloads[21] 	12005
scalar tree_4_3_u00_r3_network.client[21] 	avg_time[21] 	0.004906850247
scalar tree_4_3_u00_r3_network.client[22] 	hdistance[22] 	3.2793235588137
scalar tree_4_3_u00_r3_network.client[22] 	downloads[22] 	12004
scalar tree_4_3_u00_r3_network.client[22] 	avg_time[22] 	0.004969758629
scalar tree_4_3_u00_r3_network.client[23] 	hdistance[23] 	3.2302554683587
scalar tree_4_3_u00_r3_network.client[23] 	downloads[23] 	11978
scalar tree_4_3_u00_r3_network.client[23] 	avg_time[23] 	0.004900068373
scalar tree_4_3_u00_r3_network.client[24] 	hdistance[24] 	3.24227192762
scalar tree_4_3_u00_r3_network.client[24] 	downloads[24] 	11937
scalar tree_4_3_u00_r3_network.client[24] 	avg_time[24] 	0.004918354359
scalar tree_4_3_u00_r3_network.client[25] 	hdistance[25] 	3.2489391796323
scalar tree_4_3_u00_r3_network.client[25] 	downloads[25] 	12019
scalar tree_4_3_u00_r3_network.client[25] 	avg_time[25] 	0.004928568575
scalar tree_4_3_u00_r3_network.client[26] 	hdistance[26] 	3.2404573734656
scalar tree_4_3_u00_r3_network.client[26] 	downloads[26] 	11894
scalar tree_4_3_u00_r3_network.client[26] 	avg_time[26] 	0.004913277819
scalar tree_4_3_u00_r3_network.client[27] 	hdistance[27] 	3.2449114132674
scalar tree_4_3_u00_r3_network.client[27] 	downloads[27] 	12135
scalar tree_4_3_u00_r3_network.client[27] 	avg_time[27] 	0.004918991639
scalar tree_4_3_u00_r3_network.client[28] 	hdistance[28] 	3.2458215479558
scalar tree_4_3_u00_r3_network.client[28] 	downloads[28] 	11667
scalar tree_4_3_u00_r3_network.client[28] 	avg_time[28] 	0.004918827987
scalar tree_4_3_u00_r3_network.client[29] 	hdistance[29] 	3.2459870577359
scalar tree_4_3_u00_r3_network.client[29] 	downloads[29] 	11899
scalar tree_4_3_u00_r3_network.client[29] 	avg_time[29] 	0.004918511123
scalar tree_4_3_u00_r3_network.client[30] 	hdistance[30] 	3.2239453059863
scalar tree_4_3_u00_r3_network.client[30] 	downloads[30] 	11994
scalar tree_4_3_u00_r3_network.client[30] 	avg_time[30] 	0.004889690158
scalar tree_4_3_u00_r3_network.client[31] 	hdistance[31] 	3.2287988062671
scalar tree_4_3_u00_r3_network.client[31] 	downloads[31] 	12063
scalar tree_4_3_u00_r3_network.client[31] 	avg_time[31] 	0.004895027037
scalar tree_4_3_u00_r3_network.client[32] 	hdistance[32] 	3.2504353594825
scalar tree_4_3_u00_r3_network.client[32] 	downloads[32] 	12059
scalar tree_4_3_u00_r3_network.client[32] 	avg_time[32] 	0.004928510316
scalar tree_4_3_u00_r3_network.client[33] 	hdistance[33] 	3.2551608859173
scalar tree_4_3_u00_r3_network.client[33] 	downloads[33] 	11965
scalar tree_4_3_u00_r3_network.client[33] 	avg_time[33] 	0.00493599235
scalar tree_4_3_u00_r3_network.client[34] 	hdistance[34] 	3.2500625782228
scalar tree_4_3_u00_r3_network.client[34] 	downloads[34] 	11985
scalar tree_4_3_u00_r3_network.client[34] 	avg_time[34] 	0.004929693496
scalar tree_4_3_u00_r3_network.client[35] 	hdistance[35] 	3.2725302209254
scalar tree_4_3_u00_r3_network.client[35] 	downloads[35] 	11995
scalar tree_4_3_u00_r3_network.client[35] 	avg_time[35] 	0.004962868307
scalar tree_4_3_u00_r3_network.client[36] 	hdistance[36] 	3.2460918216225
scalar tree_4_3_u00_r3_network.client[36] 	downloads[36] 	12154
scalar tree_4_3_u00_r3_network.client[36] 	avg_time[36] 	0.004921229847
scalar tree_4_3_u00_r3_network.client[37] 	hdistance[37] 	3.2615699100573
scalar tree_4_3_u00_r3_network.client[37] 	downloads[37] 	12230
scalar tree_4_3_u00_r3_network.client[37] 	avg_time[37] 	0.004948016114
scalar tree_4_3_u00_r3_network.client[38] 	hdistance[38] 	3.248285092856
scalar tree_4_3_u00_r3_network.client[38] 	downloads[38] 	11954
scalar tree_4_3_u00_r3_network.client[38] 	avg_time[38] 	0.004925252268
scalar tree_4_3_u00_r3_network.client[39] 	hdistance[39] 	3.2535187526338
scalar tree_4_3_u00_r3_network.client[39] 	downloads[39] 	11865
scalar tree_4_3_u00_r3_network.client[39] 	avg_time[39] 	0.004936009308
