version 2
run General-12-20160820-13:51:34-2644
attr a 0.9
attr cd lce
attr configname General
attr cr lru
attr datetime 20160820-13:51:34
attr experiment General
attr fsize 1
attr inifile hw5115/scenario_A/SPR-LCE.ini
attr iterationvars "$name=tree_4_3, $un=00, $rep=13, $cd=lce, $cr=lru, $fsize=1, $a=0.9, $sl=spr, $ttl=1000, $variance=0.05"
attr iterationvars2 "$name=tree_4_3, $un=00, $rep=13, $cd=lce, $cr=lru, $fsize=1, $a=0.9, $sl=spr, $ttl=1000, $variance=0.05, $repetition=0"
attr measurement "$name=tree_4_3, $un=00, $rep=13, $cd=lce, $cr=lru, $fsize=1, $a=0.9, $sl=spr, $ttl=1000, $variance=0.05"
attr name tree_4_3
attr network networks.${name}_u${un}_r${rep}_network
attr processid 2644
attr rep 13
attr repetition 0
attr replication #0
attr resultdir results
attr runnumber 12
attr seedset 13
attr sl spr
attr ttl 1000
attr un 00
attr variance 0.05

scalar . 	a 	0.9
scalar . 	fsize 	1
scalar . 	rep 	13
scalar . 	ttl 	1000
scalar . 	un 	00
scalar . 	variance 	0.05
scalar tree_4_3_u00_r13_network.content_distribution 	repo-0 	0
scalar tree_4_3_u00_r13_network.content_distribution 	client-0 	13
scalar tree_4_3_u00_r13_network.content_distribution 	client-1 	14
scalar tree_4_3_u00_r13_network.content_distribution 	client-2 	15
scalar tree_4_3_u00_r13_network.content_distribution 	client-3 	16
scalar tree_4_3_u00_r13_network.content_distribution 	client-4 	17
scalar tree_4_3_u00_r13_network.content_distribution 	client-5 	18
scalar tree_4_3_u00_r13_network.content_distribution 	client-6 	19
scalar tree_4_3_u00_r13_network.content_distribution 	client-7 	20
scalar tree_4_3_u00_r13_network.content_distribution 	client-8 	21
scalar tree_4_3_u00_r13_network.content_distribution 	client-9 	22
scalar tree_4_3_u00_r13_network.content_distribution 	client-10 	23
scalar tree_4_3_u00_r13_network.content_distribution 	client-11 	24
scalar tree_4_3_u00_r13_network.content_distribution 	client-12 	25
scalar tree_4_3_u00_r13_network.content_distribution 	client-13 	26
scalar tree_4_3_u00_r13_network.content_distribution 	client-14 	27
scalar tree_4_3_u00_r13_network.content_distribution 	client-15 	28
scalar tree_4_3_u00_r13_network.content_distribution 	client-16 	29
scalar tree_4_3_u00_r13_network.content_distribution 	client-17 	30
scalar tree_4_3_u00_r13_network.content_distribution 	client-18 	31
scalar tree_4_3_u00_r13_network.content_distribution 	client-19 	32
scalar tree_4_3_u00_r13_network.content_distribution 	client-20 	33
scalar tree_4_3_u00_r13_network.content_distribution 	client-21 	34
scalar tree_4_3_u00_r13_network.content_distribution 	client-22 	35
scalar tree_4_3_u00_r13_network.content_distribution 	client-23 	36
scalar tree_4_3_u00_r13_network.content_distribution 	client-24 	37
scalar tree_4_3_u00_r13_network.content_distribution 	client-25 	38
scalar tree_4_3_u00_r13_network.content_distribution 	client-26 	39
scalar tree_4_3_u00_r13_network.content_distribution 	repo-0_card 	100000
scalar tree_4_3_u00_r13_network.content_distribution 	repo-0_price 	0
scalar tree_4_3_u00_r13_network.statistics 	stabilization_time 	568.8
scalar tree_4_3_u00_r13_network.statistics 	p_hit 	0.11455295143597
scalar tree_4_3_u00_r13_network.statistics 	interests 	28036.75
scalar tree_4_3_u00_r13_network.statistics 	data 	19938.65
scalar tree_4_3_u00_r13_network.statistics 	hdistance 	3.2475539787453
scalar tree_4_3_u00_r13_network.statistics 	avg_time 	0.004924616743
scalar tree_4_3_u00_r13_network.statistics 	downloads 	323908
scalar tree_4_3_u00_r13_network.statistics 	total_cost 	0
scalar tree_4_3_u00_r13_network.statistics 	total_replicas 	100000
scalar tree_4_3_u00_r13_network.statistics 	inner_hit 	0.21493448757054
scalar tree_4_3_u00_r13_network.node[0].core_layer 	interests[0] 	259219
scalar tree_4_3_u00_r13_network.node[0].core_layer 	repo_load[0] 	254289
scalar tree_4_3_u00_r13_network.node[0].core_layer 	data[0] 	0
scalar tree_4_3_u00_r13_network.node[0].core_layer 	repo_int[0] 	254289
scalar tree_4_3_u00_r13_network.node[0].content_store 	p_hit[0] 	0.019018667613099
scalar tree_4_3_u00_r13_network.node[0].content_store 	hits[0] 	4930
scalar tree_4_3_u00_r13_network.node[0].content_store 	misses[0] 	254289
scalar tree_4_3_u00_r13_network.node[0].content_store 	decision_yes[0] 	254289
scalar tree_4_3_u00_r13_network.node[0].content_store 	decision_no[0] 	0
scalar tree_4_3_u00_r13_network.node[0].content_store 	decision_ratio[0] 	1
scalar tree_4_3_u00_r13_network.node[1].core_layer 	interests[1] 	88124
scalar tree_4_3_u00_r13_network.node[1].core_layer 	data[1] 	86114
scalar tree_4_3_u00_r13_network.node[1].content_store 	p_hit[1] 	0.022740683582225
scalar tree_4_3_u00_r13_network.node[1].content_store 	hits[1] 	2004
scalar tree_4_3_u00_r13_network.node[1].content_store 	misses[1] 	86120
scalar tree_4_3_u00_r13_network.node[1].content_store 	decision_yes[1] 	86114
scalar tree_4_3_u00_r13_network.node[1].content_store 	decision_no[1] 	0
scalar tree_4_3_u00_r13_network.node[1].content_store 	decision_ratio[1] 	1
scalar tree_4_3_u00_r13_network.node[2].core_layer 	interests[2] 	88274
scalar tree_4_3_u00_r13_network.node[2].core_layer 	data[2] 	86228
scalar tree_4_3_u00_r13_network.node[2].content_store 	p_hit[2] 	0.023109862473662
scalar tree_4_3_u00_r13_network.node[2].content_store 	hits[2] 	2040
scalar tree_4_3_u00_r13_network.node[2].content_store 	misses[2] 	86234
scalar tree_4_3_u00_r13_network.node[2].content_store 	decision_yes[2] 	86228
scalar tree_4_3_u00_r13_network.node[2].content_store 	decision_no[2] 	0
scalar tree_4_3_u00_r13_network.node[2].content_store 	decision_ratio[2] 	1
scalar tree_4_3_u00_r13_network.node[3].core_layer 	interests[3] 	88876
scalar tree_4_3_u00_r13_network.node[3].core_layer 	data[3] 	86876
scalar tree_4_3_u00_r13_network.node[3].content_store 	p_hit[3] 	0.022424501552725
scalar tree_4_3_u00_r13_network.node[3].content_store 	hits[3] 	1993
scalar tree_4_3_u00_r13_network.node[3].content_store 	misses[3] 	86883
scalar tree_4_3_u00_r13_network.node[3].content_store 	decision_yes[3] 	86876
scalar tree_4_3_u00_r13_network.node[3].content_store 	decision_no[3] 	0
scalar tree_4_3_u00_r13_network.node[3].content_store 	decision_ratio[3] 	1
scalar tree_4_3_u00_r13_network.node[4].core_layer 	interests[4] 	30390
scalar tree_4_3_u00_r13_network.node[4].core_layer 	data[4] 	29565
scalar tree_4_3_u00_r13_network.node[4].content_store 	p_hit[4] 	0.027114182296808
scalar tree_4_3_u00_r13_network.node[4].content_store 	hits[4] 	824
scalar tree_4_3_u00_r13_network.node[4].content_store 	misses[4] 	29566
scalar tree_4_3_u00_r13_network.node[4].content_store 	decision_yes[4] 	29565
scalar tree_4_3_u00_r13_network.node[4].content_store 	decision_no[4] 	0
scalar tree_4_3_u00_r13_network.node[4].content_store 	decision_ratio[4] 	1
scalar tree_4_3_u00_r13_network.node[5].core_layer 	interests[5] 	30129
scalar tree_4_3_u00_r13_network.node[5].core_layer 	data[5] 	29240
scalar tree_4_3_u00_r13_network.node[5].content_store 	p_hit[5] 	0.029473264960669
scalar tree_4_3_u00_r13_network.node[5].content_store 	hits[5] 	888
scalar tree_4_3_u00_r13_network.node[5].content_store 	misses[5] 	29241
scalar tree_4_3_u00_r13_network.node[5].content_store 	decision_yes[5] 	29240
scalar tree_4_3_u00_r13_network.node[5].content_store 	decision_no[5] 	0
scalar tree_4_3_u00_r13_network.node[5].content_store 	decision_ratio[5] 	1
scalar tree_4_3_u00_r13_network.node[6].core_layer 	interests[6] 	30232
scalar tree_4_3_u00_r13_network.node[6].core_layer 	data[6] 	29317
scalar tree_4_3_u00_r13_network.node[6].content_store 	p_hit[6] 	0.030199788303784
scalar tree_4_3_u00_r13_network.node[6].content_store 	hits[6] 	913
scalar tree_4_3_u00_r13_network.node[6].content_store 	misses[6] 	29319
scalar tree_4_3_u00_r13_network.node[6].content_store 	decision_yes[6] 	29317
scalar tree_4_3_u00_r13_network.node[6].content_store 	decision_no[6] 	0
scalar tree_4_3_u00_r13_network.node[6].content_store 	decision_ratio[6] 	1
scalar tree_4_3_u00_r13_network.node[7].core_layer 	interests[7] 	30190
scalar tree_4_3_u00_r13_network.node[7].core_layer 	data[7] 	29368
scalar tree_4_3_u00_r13_network.node[7].content_store 	p_hit[7] 	0.027161311692613
scalar tree_4_3_u00_r13_network.node[7].content_store 	hits[7] 	820
scalar tree_4_3_u00_r13_network.node[7].content_store 	misses[7] 	29370
scalar tree_4_3_u00_r13_network.node[7].content_store 	decision_yes[7] 	29368
scalar tree_4_3_u00_r13_network.node[7].content_store 	decision_no[7] 	0
scalar tree_4_3_u00_r13_network.node[7].content_store 	decision_ratio[7] 	1
scalar tree_4_3_u00_r13_network.node[8].core_layer 	interests[8] 	30392
scalar tree_4_3_u00_r13_network.node[8].core_layer 	data[8] 	29498
scalar tree_4_3_u00_r13_network.node[8].content_store 	p_hit[8] 	0.029284022111082
scalar tree_4_3_u00_r13_network.node[8].content_store 	hits[8] 	890
scalar tree_4_3_u00_r13_network.node[8].content_store 	misses[8] 	29502
scalar tree_4_3_u00_r13_network.node[8].content_store 	decision_yes[8] 	29498
scalar tree_4_3_u00_r13_network.node[8].content_store 	decision_no[8] 	0
scalar tree_4_3_u00_r13_network.node[8].content_store 	decision_ratio[8] 	1
scalar tree_4_3_u00_r13_network.node[9].core_layer 	interests[9] 	30274
scalar tree_4_3_u00_r13_network.node[9].core_layer 	data[9] 	29408
scalar tree_4_3_u00_r13_network.node[9].content_store 	p_hit[9] 	0.028506309044064
scalar tree_4_3_u00_r13_network.node[9].content_store 	hits[9] 	863
scalar tree_4_3_u00_r13_network.node[9].content_store 	misses[9] 	29411
scalar tree_4_3_u00_r13_network.node[9].content_store 	decision_yes[9] 	29408
scalar tree_4_3_u00_r13_network.node[9].content_store 	decision_no[9] 	0
scalar tree_4_3_u00_r13_network.node[9].content_store 	decision_ratio[9] 	1
scalar tree_4_3_u00_r13_network.node[10].core_layer 	interests[10] 	30592
scalar tree_4_3_u00_r13_network.node[10].core_layer 	data[10] 	29728
scalar tree_4_3_u00_r13_network.node[10].content_store 	p_hit[10] 	0.02817730125523
scalar tree_4_3_u00_r13_network.node[10].content_store 	hits[10] 	862
scalar tree_4_3_u00_r13_network.node[10].content_store 	misses[10] 	29730
scalar tree_4_3_u00_r13_network.node[10].content_store 	decision_yes[10] 	29728
scalar tree_4_3_u00_r13_network.node[10].content_store 	decision_no[10] 	0
scalar tree_4_3_u00_r13_network.node[10].content_store 	decision_ratio[10] 	1
scalar tree_4_3_u00_r13_network.node[11].core_layer 	interests[11] 	30530
scalar tree_4_3_u00_r13_network.node[11].core_layer 	data[11] 	29691
scalar tree_4_3_u00_r13_network.node[11].content_store 	p_hit[11] 	0.027513920733705
scalar tree_4_3_u00_r13_network.node[11].content_store 	hits[11] 	840
scalar tree_4_3_u00_r13_network.node[11].content_store 	misses[11] 	29690
scalar tree_4_3_u00_r13_network.node[11].content_store 	decision_yes[11] 	29691
scalar tree_4_3_u00_r13_network.node[11].content_store 	decision_no[11] 	0
scalar tree_4_3_u00_r13_network.node[11].content_store 	decision_ratio[11] 	1
scalar tree_4_3_u00_r13_network.node[12].core_layer 	interests[12] 	30325
scalar tree_4_3_u00_r13_network.node[12].core_layer 	data[12] 	29458
scalar tree_4_3_u00_r13_network.node[12].content_store 	p_hit[12] 	0.028557295960429
scalar tree_4_3_u00_r13_network.node[12].content_store 	hits[12] 	866
scalar tree_4_3_u00_r13_network.node[12].content_store 	misses[12] 	29459
scalar tree_4_3_u00_r13_network.node[12].content_store 	decision_yes[12] 	29458
scalar tree_4_3_u00_r13_network.node[12].content_store 	decision_no[12] 	0
scalar tree_4_3_u00_r13_network.node[12].content_store 	decision_ratio[12] 	1
scalar tree_4_3_u00_r13_network.node[13].core_layer 	interests[13] 	11952
scalar tree_4_3_u00_r13_network.node[13].core_layer 	data[13] 	10106
scalar tree_4_3_u00_r13_network.node[13].content_store 	p_hit[13] 	0.15436746987952
scalar tree_4_3_u00_r13_network.node[13].content_store 	hits[13] 	1845
scalar tree_4_3_u00_r13_network.node[13].content_store 	misses[13] 	10107
scalar tree_4_3_u00_r13_network.node[13].content_store 	decision_yes[13] 	10106
scalar tree_4_3_u00_r13_network.node[13].content_store 	decision_no[13] 	0
scalar tree_4_3_u00_r13_network.node[13].content_store 	decision_ratio[13] 	1
scalar tree_4_3_u00_r13_network.node[14].core_layer 	interests[14] 	12083
scalar tree_4_3_u00_r13_network.node[14].core_layer 	data[14] 	10143
scalar tree_4_3_u00_r13_network.node[14].content_store 	p_hit[14] 	0.16047339236944
scalar tree_4_3_u00_r13_network.node[14].content_store 	hits[14] 	1939
scalar tree_4_3_u00_r13_network.node[14].content_store 	misses[14] 	10144
scalar tree_4_3_u00_r13_network.node[14].content_store 	decision_yes[14] 	10143
scalar tree_4_3_u00_r13_network.node[14].content_store 	decision_no[14] 	0
scalar tree_4_3_u00_r13_network.node[14].content_store 	decision_ratio[14] 	1
scalar tree_4_3_u00_r13_network.node[15].core_layer 	interests[15] 	11943
scalar tree_4_3_u00_r13_network.node[15].core_layer 	data[15] 	10139
scalar tree_4_3_u00_r13_network.node[15].content_store 	p_hit[15] 	0.15096709369505
scalar tree_4_3_u00_r13_network.node[15].content_store 	hits[15] 	1803
scalar tree_4_3_u00_r13_network.node[15].content_store 	misses[15] 	10140
scalar tree_4_3_u00_r13_network.node[15].content_store 	decision_yes[15] 	10139
scalar tree_4_3_u00_r13_network.node[15].content_store 	decision_no[15] 	0
scalar tree_4_3_u00_r13_network.node[15].content_store 	decision_ratio[15] 	1
scalar tree_4_3_u00_r13_network.node[16].core_layer 	interests[16] 	12129
scalar tree_4_3_u00_r13_network.node[16].core_layer 	data[16] 	10224
scalar tree_4_3_u00_r13_network.node[16].content_store 	p_hit[16] 	0.15706158792976
scalar tree_4_3_u00_r13_network.node[16].content_store 	hits[16] 	1905
scalar tree_4_3_u00_r13_network.node[16].content_store 	misses[16] 	10224
scalar tree_4_3_u00_r13_network.node[16].content_store 	decision_yes[16] 	10224
scalar tree_4_3_u00_r13_network.node[16].content_store 	decision_no[16] 	0
scalar tree_4_3_u00_r13_network.node[16].content_store 	decision_ratio[16] 	1
scalar tree_4_3_u00_r13_network.node[17].core_layer 	interests[17] 	11807
scalar tree_4_3_u00_r13_network.node[17].core_layer 	data[17] 	9947
scalar tree_4_3_u00_r13_network.node[17].content_store 	p_hit[17] 	0.15761836198865
scalar tree_4_3_u00_r13_network.node[17].content_store 	hits[17] 	1861
scalar tree_4_3_u00_r13_network.node[17].content_store 	misses[17] 	9946
scalar tree_4_3_u00_r13_network.node[17].content_store 	decision_yes[17] 	9947
scalar tree_4_3_u00_r13_network.node[17].content_store 	decision_no[17] 	0
scalar tree_4_3_u00_r13_network.node[17].content_store 	decision_ratio[17] 	1
scalar tree_4_3_u00_r13_network.node[18].core_layer 	interests[18] 	11880
scalar tree_4_3_u00_r13_network.node[18].core_layer 	data[18] 	9959
scalar tree_4_3_u00_r13_network.node[18].content_store 	p_hit[18] 	0.16153198653199
scalar tree_4_3_u00_r13_network.node[18].content_store 	hits[18] 	1919
scalar tree_4_3_u00_r13_network.node[18].content_store 	misses[18] 	9961
scalar tree_4_3_u00_r13_network.node[18].content_store 	decision_yes[18] 	9959
scalar tree_4_3_u00_r13_network.node[18].content_store 	decision_no[18] 	0
scalar tree_4_3_u00_r13_network.node[18].content_store 	decision_ratio[18] 	1
scalar tree_4_3_u00_r13_network.node[19].core_layer 	interests[19] 	11894
scalar tree_4_3_u00_r13_network.node[19].core_layer 	data[19] 	9968
scalar tree_4_3_u00_r13_network.node[19].content_store 	p_hit[19] 	0.16184630906339
scalar tree_4_3_u00_r13_network.node[19].content_store 	hits[19] 	1925
scalar tree_4_3_u00_r13_network.node[19].content_store 	misses[19] 	9969
scalar tree_4_3_u00_r13_network.node[19].content_store 	decision_yes[19] 	9968
scalar tree_4_3_u00_r13_network.node[19].content_store 	decision_no[19] 	0
scalar tree_4_3_u00_r13_network.node[19].content_store 	decision_ratio[19] 	1
scalar tree_4_3_u00_r13_network.node[20].core_layer 	interests[20] 	11987
scalar tree_4_3_u00_r13_network.node[20].core_layer 	data[20] 	10091
scalar tree_4_3_u00_r13_network.node[20].content_store 	p_hit[20] 	0.15817135229832
scalar tree_4_3_u00_r13_network.node[20].content_store 	hits[20] 	1896
scalar tree_4_3_u00_r13_network.node[20].content_store 	misses[20] 	10091
scalar tree_4_3_u00_r13_network.node[20].content_store 	decision_yes[20] 	10091
scalar tree_4_3_u00_r13_network.node[20].content_store 	decision_no[20] 	0
scalar tree_4_3_u00_r13_network.node[20].content_store 	decision_ratio[20] 	1
scalar tree_4_3_u00_r13_network.node[21].core_layer 	interests[21] 	12011
scalar tree_4_3_u00_r13_network.node[21].core_layer 	data[21] 	10173
scalar tree_4_3_u00_r13_network.node[21].content_store 	p_hit[21] 	0.15294313545916
scalar tree_4_3_u00_r13_network.node[21].content_store 	hits[21] 	1837
scalar tree_4_3_u00_r13_network.node[21].content_store 	misses[21] 	10174
scalar tree_4_3_u00_r13_network.node[21].content_store 	decision_yes[21] 	10173
scalar tree_4_3_u00_r13_network.node[21].content_store 	decision_no[21] 	0
scalar tree_4_3_u00_r13_network.node[21].content_store 	decision_ratio[21] 	1
scalar tree_4_3_u00_r13_network.node[22].core_layer 	interests[22] 	11831
scalar tree_4_3_u00_r13_network.node[22].core_layer 	data[22] 	9951
scalar tree_4_3_u00_r13_network.node[22].content_store 	p_hit[22] 	0.15890457273265
scalar tree_4_3_u00_r13_network.node[22].content_store 	hits[22] 	1880
scalar tree_4_3_u00_r13_network.node[22].content_store 	misses[22] 	9951
scalar tree_4_3_u00_r13_network.node[22].content_store 	decision_yes[22] 	9951
scalar tree_4_3_u00_r13_network.node[22].content_store 	decision_no[22] 	0
scalar tree_4_3_u00_r13_network.node[22].content_store 	decision_ratio[22] 	1
scalar tree_4_3_u00_r13_network.node[23].core_layer 	interests[23] 	12049
scalar tree_4_3_u00_r13_network.node[23].core_layer 	data[23] 	10134
scalar tree_4_3_u00_r13_network.node[23].content_store 	p_hit[23] 	0.15893435139846
scalar tree_4_3_u00_r13_network.node[23].content_store 	hits[23] 	1915
scalar tree_4_3_u00_r13_network.node[23].content_store 	misses[23] 	10134
scalar tree_4_3_u00_r13_network.node[23].content_store 	decision_yes[23] 	10134
scalar tree_4_3_u00_r13_network.node[23].content_store 	decision_no[23] 	0
scalar tree_4_3_u00_r13_network.node[23].content_store 	decision_ratio[23] 	1
scalar tree_4_3_u00_r13_network.node[24].core_layer 	interests[24] 	11927
scalar tree_4_3_u00_r13_network.node[24].core_layer 	data[24] 	10105
scalar tree_4_3_u00_r13_network.node[24].content_store 	p_hit[24] 	0.15276263938962
scalar tree_4_3_u00_r13_network.node[24].content_store 	hits[24] 	1822
scalar tree_4_3_u00_r13_network.node[24].content_store 	misses[24] 	10105
scalar tree_4_3_u00_r13_network.node[24].content_store 	decision_yes[24] 	10105
scalar tree_4_3_u00_r13_network.node[24].content_store 	decision_no[24] 	0
scalar tree_4_3_u00_r13_network.node[24].content_store 	decision_ratio[24] 	1
scalar tree_4_3_u00_r13_network.node[25].core_layer 	interests[25] 	11886
scalar tree_4_3_u00_r13_network.node[25].core_layer 	data[25] 	9986
scalar tree_4_3_u00_r13_network.node[25].content_store 	p_hit[25] 	0.15959952885748
scalar tree_4_3_u00_r13_network.node[25].content_store 	hits[25] 	1897
scalar tree_4_3_u00_r13_network.node[25].content_store 	misses[25] 	9989
scalar tree_4_3_u00_r13_network.node[25].content_store 	decision_yes[25] 	9986
scalar tree_4_3_u00_r13_network.node[25].content_store 	decision_no[25] 	0
scalar tree_4_3_u00_r13_network.node[25].content_store 	decision_ratio[25] 	1
scalar tree_4_3_u00_r13_network.node[26].core_layer 	interests[26] 	12017
scalar tree_4_3_u00_r13_network.node[26].core_layer 	data[26] 	10090
scalar tree_4_3_u00_r13_network.node[26].content_store 	p_hit[26] 	0.16035616210369
scalar tree_4_3_u00_r13_network.node[26].content_store 	hits[26] 	1927
scalar tree_4_3_u00_r13_network.node[26].content_store 	misses[26] 	10090
scalar tree_4_3_u00_r13_network.node[26].content_store 	decision_yes[26] 	10090
scalar tree_4_3_u00_r13_network.node[26].content_store 	decision_no[26] 	0
scalar tree_4_3_u00_r13_network.node[26].content_store 	decision_ratio[26] 	1
scalar tree_4_3_u00_r13_network.node[27].core_layer 	interests[27] 	12211
scalar tree_4_3_u00_r13_network.node[27].core_layer 	data[27] 	10316
scalar tree_4_3_u00_r13_network.node[27].content_store 	p_hit[27] 	0.1551060519204
scalar tree_4_3_u00_r13_network.node[27].content_store 	hits[27] 	1894
scalar tree_4_3_u00_r13_network.node[27].content_store 	misses[27] 	10317
scalar tree_4_3_u00_r13_network.node[27].content_store 	decision_yes[27] 	10316
scalar tree_4_3_u00_r13_network.node[27].content_store 	decision_no[27] 	0
scalar tree_4_3_u00_r13_network.node[27].content_store 	decision_ratio[27] 	1
scalar tree_4_3_u00_r13_network.node[28].core_layer 	interests[28] 	12062
scalar tree_4_3_u00_r13_network.node[28].core_layer 	data[28] 	10258
scalar tree_4_3_u00_r13_network.node[28].content_store 	p_hit[28] 	0.14947769855745
scalar tree_4_3_u00_r13_network.node[28].content_store 	hits[28] 	1803
scalar tree_4_3_u00_r13_network.node[28].content_store 	misses[28] 	10259
scalar tree_4_3_u00_r13_network.node[28].content_store 	decision_yes[28] 	10258
scalar tree_4_3_u00_r13_network.node[28].content_store 	decision_no[28] 	0
scalar tree_4_3_u00_r13_network.node[28].content_store 	decision_ratio[28] 	1
scalar tree_4_3_u00_r13_network.node[29].core_layer 	interests[29] 	12078
scalar tree_4_3_u00_r13_network.node[29].core_layer 	data[29] 	10076
scalar tree_4_3_u00_r13_network.node[29].content_store 	p_hit[29] 	0.16575591985428
scalar tree_4_3_u00_r13_network.node[29].content_store 	hits[29] 	2002
scalar tree_4_3_u00_r13_network.node[29].content_store 	misses[29] 	10076
scalar tree_4_3_u00_r13_network.node[29].content_store 	decision_yes[29] 	10076
scalar tree_4_3_u00_r13_network.node[29].content_store 	decision_no[29] 	0
scalar tree_4_3_u00_r13_network.node[29].content_store 	decision_ratio[29] 	1
scalar tree_4_3_u00_r13_network.node[30].core_layer 	interests[30] 	11824
scalar tree_4_3_u00_r13_network.node[30].core_layer 	data[30] 	9940
scalar tree_4_3_u00_r13_network.node[30].content_store 	p_hit[30] 	0.15925236806495
scalar tree_4_3_u00_r13_network.node[30].content_store 	hits[30] 	1883
scalar tree_4_3_u00_r13_network.node[30].content_store 	misses[30] 	9941
scalar tree_4_3_u00_r13_network.node[30].content_store 	decision_yes[30] 	9940
scalar tree_4_3_u00_r13_network.node[30].content_store 	decision_no[30] 	0
scalar tree_4_3_u00_r13_network.node[30].content_store 	decision_ratio[30] 	1
scalar tree_4_3_u00_r13_network.node[31].core_layer 	interests[31] 	12128
scalar tree_4_3_u00_r13_network.node[31].core_layer 	data[31] 	10190
scalar tree_4_3_u00_r13_network.node[31].content_store 	p_hit[31] 	0.15979551451187
scalar tree_4_3_u00_r13_network.node[31].content_store 	hits[31] 	1938
scalar tree_4_3_u00_r13_network.node[31].content_store 	misses[31] 	10190
scalar tree_4_3_u00_r13_network.node[31].content_store 	decision_yes[31] 	10190
scalar tree_4_3_u00_r13_network.node[31].content_store 	decision_no[31] 	0
scalar tree_4_3_u00_r13_network.node[31].content_store 	decision_ratio[31] 	1
scalar tree_4_3_u00_r13_network.node[32].core_layer 	interests[32] 	12019
scalar tree_4_3_u00_r13_network.node[32].core_layer 	data[32] 	10194
scalar tree_4_3_u00_r13_network.node[32].content_store 	p_hit[32] 	0.1517597137865
scalar tree_4_3_u00_r13_network.node[32].content_store 	hits[32] 	1824
scalar tree_4_3_u00_r13_network.node[32].content_store 	misses[32] 	10195
scalar tree_4_3_u00_r13_network.node[32].content_store 	decision_yes[32] 	10194
scalar tree_4_3_u00_r13_network.node[32].content_store 	decision_no[32] 	0
scalar tree_4_3_u00_r13_network.node[32].content_store 	decision_ratio[32] 	1
scalar tree_4_3_u00_r13_network.node[33].core_layer 	interests[33] 	12110
scalar tree_4_3_u00_r13_network.node[33].core_layer 	data[33] 	10208
scalar tree_4_3_u00_r13_network.node[33].content_store 	p_hit[33] 	0.15697770437655
scalar tree_4_3_u00_r13_network.node[33].content_store 	hits[33] 	1901
scalar tree_4_3_u00_r13_network.node[33].content_store 	misses[33] 	10209
scalar tree_4_3_u00_r13_network.node[33].content_store 	decision_yes[33] 	10208
scalar tree_4_3_u00_r13_network.node[33].content_store 	decision_no[33] 	0
scalar tree_4_3_u00_r13_network.node[33].content_store 	decision_ratio[33] 	1
scalar tree_4_3_u00_r13_network.node[34].core_layer 	interests[34] 	12050
scalar tree_4_3_u00_r13_network.node[34].core_layer 	data[34] 	10173
scalar tree_4_3_u00_r13_network.node[34].content_store 	p_hit[34] 	0.15576763485477
scalar tree_4_3_u00_r13_network.node[34].content_store 	hits[34] 	1877
scalar tree_4_3_u00_r13_network.node[34].content_store 	misses[34] 	10173
scalar tree_4_3_u00_r13_network.node[34].content_store 	decision_yes[34] 	10173
scalar tree_4_3_u00_r13_network.node[34].content_store 	decision_no[34] 	0
scalar tree_4_3_u00_r13_network.node[34].content_store 	decision_ratio[34] 	1
scalar tree_4_3_u00_r13_network.node[35].core_layer 	interests[35] 	12087
scalar tree_4_3_u00_r13_network.node[35].core_layer 	data[35] 	10221
scalar tree_4_3_u00_r13_network.node[35].content_store 	p_hit[35] 	0.15438073963763
scalar tree_4_3_u00_r13_network.node[35].content_store 	hits[35] 	1866
scalar tree_4_3_u00_r13_network.node[35].content_store 	misses[35] 	10221
scalar tree_4_3_u00_r13_network.node[35].content_store 	decision_yes[35] 	10221
scalar tree_4_3_u00_r13_network.node[35].content_store 	decision_no[35] 	0
scalar tree_4_3_u00_r13_network.node[35].content_store 	decision_ratio[35] 	1
scalar tree_4_3_u00_r13_network.node[36].core_layer 	interests[36] 	11944
scalar tree_4_3_u00_r13_network.node[36].core_layer 	data[36] 	10137
scalar tree_4_3_u00_r13_network.node[36].content_store 	p_hit[36] 	0.15120562625586
scalar tree_4_3_u00_r13_network.node[36].content_store 	hits[36] 	1806
scalar tree_4_3_u00_r13_network.node[36].content_store 	misses[36] 	10138
scalar tree_4_3_u00_r13_network.node[36].content_store 	decision_yes[36] 	10137
scalar tree_4_3_u00_r13_network.node[36].content_store 	decision_no[36] 	0
scalar tree_4_3_u00_r13_network.node[36].content_store 	decision_ratio[36] 	1
scalar tree_4_3_u00_r13_network.node[37].core_layer 	interests[37] 	12111
scalar tree_4_3_u00_r13_network.node[37].core_layer 	data[37] 	10194
scalar tree_4_3_u00_r13_network.node[37].content_store 	p_hit[37] 	0.15828585583354
scalar tree_4_3_u00_r13_network.node[37].content_store 	hits[37] 	1917
scalar tree_4_3_u00_r13_network.node[37].content_store 	misses[37] 	10194
scalar tree_4_3_u00_r13_network.node[37].content_store 	decision_yes[37] 	10194
scalar tree_4_3_u00_r13_network.node[37].content_store 	decision_no[37] 	0
scalar tree_4_3_u00_r13_network.node[37].content_store 	decision_ratio[37] 	1
scalar tree_4_3_u00_r13_network.node[38].core_layer 	interests[38] 	12020
scalar tree_4_3_u00_r13_network.node[38].core_layer 	data[38] 	10134
scalar tree_4_3_u00_r13_network.node[38].content_store 	p_hit[38] 	0.15698835274542
scalar tree_4_3_u00_r13_network.node[38].content_store 	hits[38] 	1887
scalar tree_4_3_u00_r13_network.node[38].content_store 	misses[38] 	10133
scalar tree_4_3_u00_r13_network.node[38].content_store 	decision_yes[38] 	10134
scalar tree_4_3_u00_r13_network.node[38].content_store 	decision_no[38] 	0
scalar tree_4_3_u00_r13_network.node[38].content_store 	decision_ratio[38] 	1
scalar tree_4_3_u00_r13_network.node[39].core_layer 	interests[39] 	11883
scalar tree_4_3_u00_r13_network.node[39].core_layer 	data[39] 	9998
scalar tree_4_3_u00_r13_network.node[39].content_store 	p_hit[39] 	0.15854582176218
scalar tree_4_3_u00_r13_network.node[39].content_store 	hits[39] 	1884
scalar tree_4_3_u00_r13_network.node[39].content_store 	misses[39] 	9999
scalar tree_4_3_u00_r13_network.node[39].content_store 	decision_yes[39] 	9998
scalar tree_4_3_u00_r13_network.node[39].content_store 	decision_no[39] 	0
scalar tree_4_3_u00_r13_network.node[39].content_store 	decision_ratio[39] 	1
scalar tree_4_3_u00_r13_network.client[13] 	hdistance[13] 	3.2611496945862
scalar tree_4_3_u00_r13_network.client[13] 	downloads[13] 	11951
scalar tree_4_3_u00_r13_network.client[13] 	avg_time[13] 	0.004943227106
scalar tree_4_3_u00_r13_network.client[14] 	hdistance[14] 	3.2348948849528
scalar tree_4_3_u00_r13_network.client[14] 	downloads[14] 	12082
scalar tree_4_3_u00_r13_network.client[14] 	avg_time[14] 	0.004904189606
scalar tree_4_3_u00_r13_network.client[15] 	hdistance[15] 	3.2775916931837
scalar tree_4_3_u00_r13_network.client[15] 	downloads[15] 	11942
scalar tree_4_3_u00_r13_network.client[15] 	avg_time[15] 	0.00496918141
scalar tree_4_3_u00_r13_network.client[16] 	hdistance[16] 	3.2446203314371
scalar tree_4_3_u00_r13_network.client[16] 	downloads[16] 	12129
scalar tree_4_3_u00_r13_network.client[16] 	avg_time[16] 	0.004922084536
scalar tree_4_3_u00_r13_network.client[17] 	hdistance[17] 	3.2403455284553
scalar tree_4_3_u00_r13_network.client[17] 	downloads[17] 	11808
scalar tree_4_3_u00_r13_network.client[17] 	avg_time[17] 	0.004912937424
scalar tree_4_3_u00_r13_network.client[18] 	hdistance[18] 	3.2298366728405
scalar tree_4_3_u00_r13_network.client[18] 	downloads[18] 	11878
scalar tree_4_3_u00_r13_network.client[18] 	avg_time[18] 	0.004898000171
scalar tree_4_3_u00_r13_network.client[19] 	hdistance[19] 	3.2225678970823
scalar tree_4_3_u00_r13_network.client[19] 	downloads[19] 	11893
scalar tree_4_3_u00_r13_network.client[19] 	avg_time[19] 	0.00488601116
scalar tree_4_3_u00_r13_network.client[20] 	hdistance[20] 	3.2419287561525
scalar tree_4_3_u00_r13_network.client[20] 	downloads[20] 	11987
scalar tree_4_3_u00_r13_network.client[20] 	avg_time[20] 	0.004919826811
scalar tree_4_3_u00_r13_network.client[21] 	hdistance[21] 	3.2554537885096
scalar tree_4_3_u00_r13_network.client[21] 	downloads[21] 	12010
scalar tree_4_3_u00_r13_network.client[21] 	avg_time[21] 	0.004939807152
scalar tree_4_3_u00_r13_network.client[22] 	hdistance[22] 	3.2440199475953
scalar tree_4_3_u00_r13_network.client[22] 	downloads[22] 	11831
scalar tree_4_3_u00_r13_network.client[22] 	avg_time[22] 	0.004920705949
scalar tree_4_3_u00_r13_network.client[23] 	hdistance[23] 	3.2435056851191
scalar tree_4_3_u00_r13_network.client[23] 	downloads[23] 	12049
scalar tree_4_3_u00_r13_network.client[23] 	avg_time[23] 	0.004915259666
scalar tree_4_3_u00_r13_network.client[24] 	hdistance[24] 	3.2643581789218
scalar tree_4_3_u00_r13_network.client[24] 	downloads[24] 	11927
scalar tree_4_3_u00_r13_network.client[24] 	avg_time[24] 	0.00494773899
scalar tree_4_3_u00_r13_network.client[25] 	hdistance[25] 	3.2294875031558
scalar tree_4_3_u00_r13_network.client[25] 	downloads[25] 	11883
scalar tree_4_3_u00_r13_network.client[25] 	avg_time[25] 	0.004897277476
scalar tree_4_3_u00_r13_network.client[26] 	hdistance[26] 	3.2340850461846
scalar tree_4_3_u00_r13_network.client[26] 	downloads[26] 	12017
scalar tree_4_3_u00_r13_network.client[26] 	avg_time[26] 	0.00490470498
scalar tree_4_3_u00_r13_network.client[27] 	hdistance[27] 	3.2542997542997
scalar tree_4_3_u00_r13_network.client[27] 	downloads[27] 	12210
scalar tree_4_3_u00_r13_network.client[27] 	avg_time[27] 	0.00493487939
scalar tree_4_3_u00_r13_network.client[28] 	hdistance[28] 	3.2777547467043
scalar tree_4_3_u00_r13_network.client[28] 	downloads[28] 	12061
scalar tree_4_3_u00_r13_network.client[28] 	avg_time[28] 	0.004972882759
scalar tree_4_3_u00_r13_network.client[29] 	hdistance[29] 	3.2187448253022
scalar tree_4_3_u00_r13_network.client[29] 	downloads[29] 	12078
scalar tree_4_3_u00_r13_network.client[29] 	avg_time[29] 	0.004877014256
scalar tree_4_3_u00_r13_network.client[30] 	hdistance[30] 	3.2355578110463
scalar tree_4_3_u00_r13_network.client[30] 	downloads[30] 	11823
scalar tree_4_3_u00_r13_network.client[30] 	avg_time[30] 	0.004906727801
scalar tree_4_3_u00_r13_network.client[31] 	hdistance[31] 	3.2335916886544
scalar tree_4_3_u00_r13_network.client[31] 	downloads[31] 	12128
scalar tree_4_3_u00_r13_network.client[31] 	avg_time[31] 	0.004904502506
scalar tree_4_3_u00_r13_network.client[32] 	hdistance[32] 	3.268680312864
scalar tree_4_3_u00_r13_network.client[32] 	downloads[32] 	12018
scalar tree_4_3_u00_r13_network.client[32] 	avg_time[32] 	0.004956100163
scalar tree_4_3_u00_r13_network.client[33] 	hdistance[33] 	3.2535304319101
scalar tree_4_3_u00_r13_network.client[33] 	downloads[33] 	12109
scalar tree_4_3_u00_r13_network.client[33] 	avg_time[33] 	0.00493294037
scalar tree_4_3_u00_r13_network.client[34] 	hdistance[34] 	3.2546887966805
scalar tree_4_3_u00_r13_network.client[34] 	downloads[34] 	12050
scalar tree_4_3_u00_r13_network.client[34] 	avg_time[34] 	0.004933494552
scalar tree_4_3_u00_r13_network.client[35] 	hdistance[35] 	3.2667328534789
scalar tree_4_3_u00_r13_network.client[35] 	downloads[35] 	12087
scalar tree_4_3_u00_r13_network.client[35] 	avg_time[35] 	0.004951288297
scalar tree_4_3_u00_r13_network.client[36] 	hdistance[36] 	3.2714560830612
scalar tree_4_3_u00_r13_network.client[36] 	downloads[36] 	11943
scalar tree_4_3_u00_r13_network.client[36] 	avg_time[36] 	0.004960534706
scalar tree_4_3_u00_r13_network.client[37] 	hdistance[37] 	3.2459747337131
scalar tree_4_3_u00_r13_network.client[37] 	downloads[37] 	12111
scalar tree_4_3_u00_r13_network.client[37] 	avg_time[37] 	0.004921638478
scalar tree_4_3_u00_r13_network.client[38] 	hdistance[38] 	3.2398302969803
scalar tree_4_3_u00_r13_network.client[38] 	downloads[38] 	12021
scalar tree_4_3_u00_r13_network.client[38] 	avg_time[38] 	0.004917817735
scalar tree_4_3_u00_r13_network.client[39] 	hdistance[39] 	3.239269483252
scalar tree_4_3_u00_r13_network.client[39] 	downloads[39] 	11882
scalar tree_4_3_u00_r13_network.client[39] 	avg_time[39] 	0.004913878627
