version 2
run General-15-20160820-13:54:46-2644
attr a 0.9
attr cd lce
attr configname General
attr cr lru
attr datetime 20160820-13:54:46
attr experiment General
attr fsize 1
attr inifile hw5115/scenario_A/SPR-LCE.ini
attr iterationvars "$name=tree_4_3, $un=00, $rep=16, $cd=lce, $cr=lru, $fsize=1, $a=0.9, $sl=spr, $ttl=1000, $variance=0.05"
attr iterationvars2 "$name=tree_4_3, $un=00, $rep=16, $cd=lce, $cr=lru, $fsize=1, $a=0.9, $sl=spr, $ttl=1000, $variance=0.05, $repetition=0"
attr measurement "$name=tree_4_3, $un=00, $rep=16, $cd=lce, $cr=lru, $fsize=1, $a=0.9, $sl=spr, $ttl=1000, $variance=0.05"
attr name tree_4_3
attr network networks.${name}_u${un}_r${rep}_network
attr processid 2644
attr rep 16
attr repetition 0
attr replication #0
attr resultdir results
attr runnumber 15
attr seedset 16
attr sl spr
attr ttl 1000
attr un 00
attr variance 0.05

scalar . 	a 	0.9
scalar . 	fsize 	1
scalar . 	rep 	16
scalar . 	ttl 	1000
scalar . 	un 	00
scalar . 	variance 	0.05
scalar tree_4_3_u00_r16_network.content_distribution 	repo-0 	0
scalar tree_4_3_u00_r16_network.content_distribution 	client-0 	13
scalar tree_4_3_u00_r16_network.content_distribution 	client-1 	14
scalar tree_4_3_u00_r16_network.content_distribution 	client-2 	15
scalar tree_4_3_u00_r16_network.content_distribution 	client-3 	16
scalar tree_4_3_u00_r16_network.content_distribution 	client-4 	17
scalar tree_4_3_u00_r16_network.content_distribution 	client-5 	18
scalar tree_4_3_u00_r16_network.content_distribution 	client-6 	19
scalar tree_4_3_u00_r16_network.content_distribution 	client-7 	20
scalar tree_4_3_u00_r16_network.content_distribution 	client-8 	21
scalar tree_4_3_u00_r16_network.content_distribution 	client-9 	22
scalar tree_4_3_u00_r16_network.content_distribution 	client-10 	23
scalar tree_4_3_u00_r16_network.content_distribution 	client-11 	24
scalar tree_4_3_u00_r16_network.content_distribution 	client-12 	25
scalar tree_4_3_u00_r16_network.content_distribution 	client-13 	26
scalar tree_4_3_u00_r16_network.content_distribution 	client-14 	27
scalar tree_4_3_u00_r16_network.content_distribution 	client-15 	28
scalar tree_4_3_u00_r16_network.content_distribution 	client-16 	29
scalar tree_4_3_u00_r16_network.content_distribution 	client-17 	30
scalar tree_4_3_u00_r16_network.content_distribution 	client-18 	31
scalar tree_4_3_u00_r16_network.content_distribution 	client-19 	32
scalar tree_4_3_u00_r16_network.content_distribution 	client-20 	33
scalar tree_4_3_u00_r16_network.content_distribution 	client-21 	34
scalar tree_4_3_u00_r16_network.content_distribution 	client-22 	35
scalar tree_4_3_u00_r16_network.content_distribution 	client-23 	36
scalar tree_4_3_u00_r16_network.content_distribution 	client-24 	37
scalar tree_4_3_u00_r16_network.content_distribution 	client-25 	38
scalar tree_4_3_u00_r16_network.content_distribution 	client-26 	39
scalar tree_4_3_u00_r16_network.content_distribution 	repo-0_card 	100000
scalar tree_4_3_u00_r16_network.content_distribution 	repo-0_price 	0
scalar tree_4_3_u00_r16_network.statistics 	stabilization_time 	632.9
scalar tree_4_3_u00_r16_network.statistics 	p_hit 	0.11404160845644
scalar tree_4_3_u00_r16_network.statistics 	interests 	28060.975
scalar tree_4_3_u00_r16_network.statistics 	data 	19961.7
scalar tree_4_3_u00_r16_network.statistics 	hdistance 	3.2506382695134
scalar tree_4_3_u00_r16_network.statistics 	avg_time 	0.004929435108
scalar tree_4_3_u00_r16_network.statistics 	downloads 	323960
scalar tree_4_3_u00_r16_network.statistics 	total_cost 	0
scalar tree_4_3_u00_r16_network.statistics 	total_replicas 	100000
scalar tree_4_3_u00_r16_network.statistics 	inner_hit 	0.21429497468823
scalar tree_4_3_u00_r16_network.node[0].core_layer 	interests[0] 	259555
scalar tree_4_3_u00_r16_network.node[0].core_layer 	repo_load[0] 	254537
scalar tree_4_3_u00_r16_network.node[0].core_layer 	data[0] 	0
scalar tree_4_3_u00_r16_network.node[0].core_layer 	repo_int[0] 	254537
scalar tree_4_3_u00_r16_network.node[0].content_store 	p_hit[0] 	0.019333089325962
scalar tree_4_3_u00_r16_network.node[0].content_store 	hits[0] 	5018
scalar tree_4_3_u00_r16_network.node[0].content_store 	misses[0] 	254537
scalar tree_4_3_u00_r16_network.node[0].content_store 	decision_yes[0] 	254537
scalar tree_4_3_u00_r16_network.node[0].content_store 	decision_no[0] 	0
scalar tree_4_3_u00_r16_network.node[0].content_store 	decision_ratio[0] 	1
scalar tree_4_3_u00_r16_network.node[1].core_layer 	interests[1] 	88736
scalar tree_4_3_u00_r16_network.node[1].core_layer 	data[1] 	86672
scalar tree_4_3_u00_r16_network.node[1].content_store 	p_hit[1] 	0.023192390912369
scalar tree_4_3_u00_r16_network.node[1].content_store 	hits[1] 	2058
scalar tree_4_3_u00_r16_network.node[1].content_store 	misses[1] 	86678
scalar tree_4_3_u00_r16_network.node[1].content_store 	decision_yes[1] 	86672
scalar tree_4_3_u00_r16_network.node[1].content_store 	decision_no[1] 	0
scalar tree_4_3_u00_r16_network.node[1].content_store 	decision_ratio[1] 	1
scalar tree_4_3_u00_r16_network.node[2].core_layer 	interests[2] 	88532
scalar tree_4_3_u00_r16_network.node[2].core_layer 	data[2] 	86566
scalar tree_4_3_u00_r16_network.node[2].content_store 	p_hit[2] 	0.022127592283016
scalar tree_4_3_u00_r16_network.node[2].content_store 	hits[2] 	1959
scalar tree_4_3_u00_r16_network.node[2].content_store 	misses[2] 	86573
scalar tree_4_3_u00_r16_network.node[2].content_store 	decision_yes[2] 	86566
scalar tree_4_3_u00_r16_network.node[2].content_store 	decision_no[2] 	0
scalar tree_4_3_u00_r16_network.node[2].content_store 	decision_ratio[2] 	1
scalar tree_4_3_u00_r16_network.node[3].core_layer 	interests[3] 	88322
scalar tree_4_3_u00_r16_network.node[3].core_layer 	data[3] 	86319
scalar tree_4_3_u00_r16_network.node[3].content_store 	p_hit[3] 	0.022655736962478
scalar tree_4_3_u00_r16_network.node[3].content_store 	hits[3] 	2001
scalar tree_4_3_u00_r16_network.node[3].content_store 	misses[3] 	86321
scalar tree_4_3_u00_r16_network.node[3].content_store 	decision_yes[3] 	86319
scalar tree_4_3_u00_r16_network.node[3].content_store 	decision_no[3] 	0
scalar tree_4_3_u00_r16_network.node[3].content_store 	decision_ratio[3] 	1
scalar tree_4_3_u00_r16_network.node[4].core_layer 	interests[4] 	30432
scalar tree_4_3_u00_r16_network.node[4].core_layer 	data[4] 	29599
scalar tree_4_3_u00_r16_network.node[4].content_store 	p_hit[4] 	0.027339642481598
scalar tree_4_3_u00_r16_network.node[4].content_store 	hits[4] 	832
scalar tree_4_3_u00_r16_network.node[4].content_store 	misses[4] 	29600
scalar tree_4_3_u00_r16_network.node[4].content_store 	decision_yes[4] 	29599
scalar tree_4_3_u00_r16_network.node[4].content_store 	decision_no[4] 	0
scalar tree_4_3_u00_r16_network.node[4].content_store 	decision_ratio[4] 	1
scalar tree_4_3_u00_r16_network.node[5].core_layer 	interests[5] 	30281
scalar tree_4_3_u00_r16_network.node[5].core_layer 	data[5] 	29426
scalar tree_4_3_u00_r16_network.node[5].content_store 	p_hit[5] 	0.028136455202933
scalar tree_4_3_u00_r16_network.node[5].content_store 	hits[5] 	852
scalar tree_4_3_u00_r16_network.node[5].content_store 	misses[5] 	29429
scalar tree_4_3_u00_r16_network.node[5].content_store 	decision_yes[5] 	29426
scalar tree_4_3_u00_r16_network.node[5].content_store 	decision_no[5] 	0
scalar tree_4_3_u00_r16_network.node[5].content_store 	decision_ratio[5] 	1
scalar tree_4_3_u00_r16_network.node[6].core_layer 	interests[6] 	30549
scalar tree_4_3_u00_r16_network.node[6].core_layer 	data[6] 	29711
scalar tree_4_3_u00_r16_network.node[6].content_store 	p_hit[6] 	0.027365871223281
scalar tree_4_3_u00_r16_network.node[6].content_store 	hits[6] 	836
scalar tree_4_3_u00_r16_network.node[6].content_store 	misses[6] 	29713
scalar tree_4_3_u00_r16_network.node[6].content_store 	decision_yes[6] 	29711
scalar tree_4_3_u00_r16_network.node[6].content_store 	decision_no[6] 	0
scalar tree_4_3_u00_r16_network.node[6].content_store 	decision_ratio[6] 	1
scalar tree_4_3_u00_r16_network.node[7].core_layer 	interests[7] 	30494
scalar tree_4_3_u00_r16_network.node[7].core_layer 	data[7] 	29651
scalar tree_4_3_u00_r16_network.node[7].content_store 	p_hit[7] 	0.027611989243786
scalar tree_4_3_u00_r16_network.node[7].content_store 	hits[7] 	842
scalar tree_4_3_u00_r16_network.node[7].content_store 	misses[7] 	29652
scalar tree_4_3_u00_r16_network.node[7].content_store 	decision_yes[7] 	29651
scalar tree_4_3_u00_r16_network.node[7].content_store 	decision_no[7] 	0
scalar tree_4_3_u00_r16_network.node[7].content_store 	decision_ratio[7] 	1
scalar tree_4_3_u00_r16_network.node[8].core_layer 	interests[8] 	30557
scalar tree_4_3_u00_r16_network.node[8].core_layer 	data[8] 	29704
scalar tree_4_3_u00_r16_network.node[8].content_store 	p_hit[8] 	0.027882318290408
scalar tree_4_3_u00_r16_network.node[8].content_store 	hits[8] 	852
scalar tree_4_3_u00_r16_network.node[8].content_store 	misses[8] 	29705
scalar tree_4_3_u00_r16_network.node[8].content_store 	decision_yes[8] 	29704
scalar tree_4_3_u00_r16_network.node[8].content_store 	decision_no[8] 	0
scalar tree_4_3_u00_r16_network.node[8].content_store 	decision_ratio[8] 	1
scalar tree_4_3_u00_r16_network.node[9].core_layer 	interests[9] 	30072
scalar tree_4_3_u00_r16_network.node[9].core_layer 	data[9] 	29178
scalar tree_4_3_u00_r16_network.node[9].content_store 	p_hit[9] 	0.029695397712157
scalar tree_4_3_u00_r16_network.node[9].content_store 	hits[9] 	893
scalar tree_4_3_u00_r16_network.node[9].content_store 	misses[9] 	29179
scalar tree_4_3_u00_r16_network.node[9].content_store 	decision_yes[9] 	29178
scalar tree_4_3_u00_r16_network.node[9].content_store 	decision_no[9] 	0
scalar tree_4_3_u00_r16_network.node[9].content_store 	decision_ratio[9] 	1
scalar tree_4_3_u00_r16_network.node[10].core_layer 	interests[10] 	30407
scalar tree_4_3_u00_r16_network.node[10].core_layer 	data[10] 	29536
scalar tree_4_3_u00_r16_network.node[10].content_store 	p_hit[10] 	0.028546058473378
scalar tree_4_3_u00_r16_network.node[10].content_store 	hits[10] 	868
scalar tree_4_3_u00_r16_network.node[10].content_store 	misses[10] 	29539
scalar tree_4_3_u00_r16_network.node[10].content_store 	decision_yes[10] 	29536
scalar tree_4_3_u00_r16_network.node[10].content_store 	decision_no[10] 	0
scalar tree_4_3_u00_r16_network.node[10].content_store 	decision_ratio[10] 	1
scalar tree_4_3_u00_r16_network.node[11].core_layer 	interests[11] 	30191
scalar tree_4_3_u00_r16_network.node[11].core_layer 	data[11] 	29295
scalar tree_4_3_u00_r16_network.node[11].content_store 	p_hit[11] 	0.029611473617966
scalar tree_4_3_u00_r16_network.node[11].content_store 	hits[11] 	894
scalar tree_4_3_u00_r16_network.node[11].content_store 	misses[11] 	29297
scalar tree_4_3_u00_r16_network.node[11].content_store 	decision_yes[11] 	29295
scalar tree_4_3_u00_r16_network.node[11].content_store 	decision_no[11] 	0
scalar tree_4_3_u00_r16_network.node[11].content_store 	decision_ratio[11] 	1
scalar tree_4_3_u00_r16_network.node[12].core_layer 	interests[12] 	30335
scalar tree_4_3_u00_r16_network.node[12].core_layer 	data[12] 	29492
scalar tree_4_3_u00_r16_network.node[12].content_store 	p_hit[12] 	0.027789681885611
scalar tree_4_3_u00_r16_network.node[12].content_store 	hits[12] 	843
scalar tree_4_3_u00_r16_network.node[12].content_store 	misses[12] 	29492
scalar tree_4_3_u00_r16_network.node[12].content_store 	decision_yes[12] 	29492
scalar tree_4_3_u00_r16_network.node[12].content_store 	decision_no[12] 	0
scalar tree_4_3_u00_r16_network.node[12].content_store 	decision_ratio[12] 	1
scalar tree_4_3_u00_r16_network.node[13].core_layer 	interests[13] 	11945
scalar tree_4_3_u00_r16_network.node[13].core_layer 	data[13] 	10083
scalar tree_4_3_u00_r16_network.node[13].content_store 	p_hit[13] 	0.15588112180829
scalar tree_4_3_u00_r16_network.node[13].content_store 	hits[13] 	1862
scalar tree_4_3_u00_r16_network.node[13].content_store 	misses[13] 	10083
scalar tree_4_3_u00_r16_network.node[13].content_store 	decision_yes[13] 	10083
scalar tree_4_3_u00_r16_network.node[13].content_store 	decision_no[13] 	0
scalar tree_4_3_u00_r16_network.node[13].content_store 	decision_ratio[13] 	1
scalar tree_4_3_u00_r16_network.node[14].core_layer 	interests[14] 	12049
scalar tree_4_3_u00_r16_network.node[14].core_layer 	data[14] 	10151
scalar tree_4_3_u00_r16_network.node[14].content_store 	p_hit[14] 	0.15744045148975
scalar tree_4_3_u00_r16_network.node[14].content_store 	hits[14] 	1897
scalar tree_4_3_u00_r16_network.node[14].content_store 	misses[14] 	10152
scalar tree_4_3_u00_r16_network.node[14].content_store 	decision_yes[14] 	10151
scalar tree_4_3_u00_r16_network.node[14].content_store 	decision_no[14] 	0
scalar tree_4_3_u00_r16_network.node[14].content_store 	decision_ratio[14] 	1
scalar tree_4_3_u00_r16_network.node[15].core_layer 	interests[15] 	12058
scalar tree_4_3_u00_r16_network.node[15].core_layer 	data[15] 	10198
scalar tree_4_3_u00_r16_network.node[15].content_store 	p_hit[15] 	0.15417150439542
scalar tree_4_3_u00_r16_network.node[15].content_store 	hits[15] 	1859
scalar tree_4_3_u00_r16_network.node[15].content_store 	misses[15] 	10199
scalar tree_4_3_u00_r16_network.node[15].content_store 	decision_yes[15] 	10198
scalar tree_4_3_u00_r16_network.node[15].content_store 	decision_no[15] 	0
scalar tree_4_3_u00_r16_network.node[15].content_store 	decision_ratio[15] 	1
scalar tree_4_3_u00_r16_network.node[16].core_layer 	interests[16] 	11849
scalar tree_4_3_u00_r16_network.node[16].core_layer 	data[16] 	10025
scalar tree_4_3_u00_r16_network.node[16].content_store 	p_hit[16] 	0.15402143640814
scalar tree_4_3_u00_r16_network.node[16].content_store 	hits[16] 	1825
scalar tree_4_3_u00_r16_network.node[16].content_store 	misses[16] 	10024
scalar tree_4_3_u00_r16_network.node[16].content_store 	decision_yes[16] 	10025
scalar tree_4_3_u00_r16_network.node[16].content_store 	decision_no[16] 	0
scalar tree_4_3_u00_r16_network.node[16].content_store 	decision_ratio[16] 	1
scalar tree_4_3_u00_r16_network.node[17].core_layer 	interests[17] 	11953
scalar tree_4_3_u00_r16_network.node[17].core_layer 	data[17] 	10104
scalar tree_4_3_u00_r16_network.node[17].content_store 	p_hit[17] 	0.15452187735297
scalar tree_4_3_u00_r16_network.node[17].content_store 	hits[17] 	1847
scalar tree_4_3_u00_r16_network.node[17].content_store 	misses[17] 	10106
scalar tree_4_3_u00_r16_network.node[17].content_store 	decision_yes[17] 	10104
scalar tree_4_3_u00_r16_network.node[17].content_store 	decision_no[17] 	0
scalar tree_4_3_u00_r16_network.node[17].content_store 	decision_ratio[17] 	1
scalar tree_4_3_u00_r16_network.node[18].core_layer 	interests[18] 	12067
scalar tree_4_3_u00_r16_network.node[18].core_layer 	data[18] 	10153
scalar tree_4_3_u00_r16_network.node[18].content_store 	p_hit[18] 	0.15853153227811
scalar tree_4_3_u00_r16_network.node[18].content_store 	hits[18] 	1913
scalar tree_4_3_u00_r16_network.node[18].content_store 	misses[18] 	10154
scalar tree_4_3_u00_r16_network.node[18].content_store 	decision_yes[18] 	10153
scalar tree_4_3_u00_r16_network.node[18].content_store 	decision_no[18] 	0
scalar tree_4_3_u00_r16_network.node[18].content_store 	decision_ratio[18] 	1
scalar tree_4_3_u00_r16_network.node[19].core_layer 	interests[19] 	12050
scalar tree_4_3_u00_r16_network.node[19].core_layer 	data[19] 	10236
scalar tree_4_3_u00_r16_network.node[19].content_store 	p_hit[19] 	0.1503734439834
scalar tree_4_3_u00_r16_network.node[19].content_store 	hits[19] 	1812
scalar tree_4_3_u00_r16_network.node[19].content_store 	misses[19] 	10238
scalar tree_4_3_u00_r16_network.node[19].content_store 	decision_yes[19] 	10236
scalar tree_4_3_u00_r16_network.node[19].content_store 	decision_no[19] 	0
scalar tree_4_3_u00_r16_network.node[19].content_store 	decision_ratio[19] 	1
scalar tree_4_3_u00_r16_network.node[20].core_layer 	interests[20] 	11995
scalar tree_4_3_u00_r16_network.node[20].core_layer 	data[20] 	10164
scalar tree_4_3_u00_r16_network.node[20].content_store 	p_hit[20] 	0.1525635681534
scalar tree_4_3_u00_r16_network.node[20].content_store 	hits[20] 	1830
scalar tree_4_3_u00_r16_network.node[20].content_store 	misses[20] 	10165
scalar tree_4_3_u00_r16_network.node[20].content_store 	decision_yes[20] 	10164
scalar tree_4_3_u00_r16_network.node[20].content_store 	decision_no[20] 	0
scalar tree_4_3_u00_r16_network.node[20].content_store 	decision_ratio[20] 	1
scalar tree_4_3_u00_r16_network.node[21].core_layer 	interests[21] 	12006
scalar tree_4_3_u00_r16_network.node[21].core_layer 	data[21] 	10148
scalar tree_4_3_u00_r16_network.node[21].content_store 	p_hit[21] 	0.15475595535566
scalar tree_4_3_u00_r16_network.node[21].content_store 	hits[21] 	1858
scalar tree_4_3_u00_r16_network.node[21].content_store 	misses[21] 	10148
scalar tree_4_3_u00_r16_network.node[21].content_store 	decision_yes[21] 	10148
scalar tree_4_3_u00_r16_network.node[21].content_store 	decision_no[21] 	0
scalar tree_4_3_u00_r16_network.node[21].content_store 	decision_ratio[21] 	1
scalar tree_4_3_u00_r16_network.node[22].core_layer 	interests[22] 	12032
scalar tree_4_3_u00_r16_network.node[22].core_layer 	data[22] 	10199
scalar tree_4_3_u00_r16_network.node[22].content_store 	p_hit[22] 	0.15226063829787
scalar tree_4_3_u00_r16_network.node[22].content_store 	hits[22] 	1832
scalar tree_4_3_u00_r16_network.node[22].content_store 	misses[22] 	10200
scalar tree_4_3_u00_r16_network.node[22].content_store 	decision_yes[22] 	10199
scalar tree_4_3_u00_r16_network.node[22].content_store 	decision_no[22] 	0
scalar tree_4_3_u00_r16_network.node[22].content_store 	decision_ratio[22] 	1
scalar tree_4_3_u00_r16_network.node[23].core_layer 	interests[23] 	12046
scalar tree_4_3_u00_r16_network.node[23].core_layer 	data[23] 	10134
scalar tree_4_3_u00_r16_network.node[23].content_store 	p_hit[23] 	0.1587248879296
scalar tree_4_3_u00_r16_network.node[23].content_store 	hits[23] 	1912
scalar tree_4_3_u00_r16_network.node[23].content_store 	misses[23] 	10134
scalar tree_4_3_u00_r16_network.node[23].content_store 	decision_yes[23] 	10134
scalar tree_4_3_u00_r16_network.node[23].content_store 	decision_no[23] 	0
scalar tree_4_3_u00_r16_network.node[23].content_store 	decision_ratio[23] 	1
scalar tree_4_3_u00_r16_network.node[24].core_layer 	interests[24] 	12032
scalar tree_4_3_u00_r16_network.node[24].core_layer 	data[24] 	10161
scalar tree_4_3_u00_r16_network.node[24].content_store 	p_hit[24] 	0.1553357712766
scalar tree_4_3_u00_r16_network.node[24].content_store 	hits[24] 	1869
scalar tree_4_3_u00_r16_network.node[24].content_store 	misses[24] 	10163
scalar tree_4_3_u00_r16_network.node[24].content_store 	decision_yes[24] 	10161
scalar tree_4_3_u00_r16_network.node[24].content_store 	decision_no[24] 	0
scalar tree_4_3_u00_r16_network.node[24].content_store 	decision_ratio[24] 	1
scalar tree_4_3_u00_r16_network.node[25].core_layer 	interests[25] 	12117
scalar tree_4_3_u00_r16_network.node[25].core_layer 	data[25] 	10188
scalar tree_4_3_u00_r16_network.node[25].content_store 	p_hit[25] 	0.15919782124288
scalar tree_4_3_u00_r16_network.node[25].content_store 	hits[25] 	1929
scalar tree_4_3_u00_r16_network.node[25].content_store 	misses[25] 	10188
scalar tree_4_3_u00_r16_network.node[25].content_store 	decision_yes[25] 	10188
scalar tree_4_3_u00_r16_network.node[25].content_store 	decision_no[25] 	0
scalar tree_4_3_u00_r16_network.node[25].content_store 	decision_ratio[25] 	1
scalar tree_4_3_u00_r16_network.node[26].core_layer 	interests[26] 	12032
scalar tree_4_3_u00_r16_network.node[26].core_layer 	data[26] 	10203
scalar tree_4_3_u00_r16_network.node[26].content_store 	p_hit[26] 	0.15201130319149
scalar tree_4_3_u00_r16_network.node[26].content_store 	hits[26] 	1829
scalar tree_4_3_u00_r16_network.node[26].content_store 	misses[26] 	10203
scalar tree_4_3_u00_r16_network.node[26].content_store 	decision_yes[26] 	10203
scalar tree_4_3_u00_r16_network.node[26].content_store 	decision_no[26] 	0
scalar tree_4_3_u00_r16_network.node[26].content_store 	decision_ratio[26] 	1
scalar tree_4_3_u00_r16_network.node[27].core_layer 	interests[27] 	12003
scalar tree_4_3_u00_r16_network.node[27].core_layer 	data[27] 	10167
scalar tree_4_3_u00_r16_network.node[27].content_store 	p_hit[27] 	0.15304507206532
scalar tree_4_3_u00_r16_network.node[27].content_store 	hits[27] 	1837
scalar tree_4_3_u00_r16_network.node[27].content_store 	misses[27] 	10166
scalar tree_4_3_u00_r16_network.node[27].content_store 	decision_yes[27] 	10167
scalar tree_4_3_u00_r16_network.node[27].content_store 	decision_no[27] 	0
scalar tree_4_3_u00_r16_network.node[27].content_store 	decision_ratio[27] 	1
scalar tree_4_3_u00_r16_network.node[28].core_layer 	interests[28] 	11965
scalar tree_4_3_u00_r16_network.node[28].core_layer 	data[28] 	10073
scalar tree_4_3_u00_r16_network.node[28].content_store 	p_hit[28] 	0.15812787296281
scalar tree_4_3_u00_r16_network.node[28].content_store 	hits[28] 	1892
scalar tree_4_3_u00_r16_network.node[28].content_store 	misses[28] 	10073
scalar tree_4_3_u00_r16_network.node[28].content_store 	decision_yes[28] 	10073
scalar tree_4_3_u00_r16_network.node[28].content_store 	decision_no[28] 	0
scalar tree_4_3_u00_r16_network.node[28].content_store 	decision_ratio[28] 	1
scalar tree_4_3_u00_r16_network.node[29].core_layer 	interests[29] 	11841
scalar tree_4_3_u00_r16_network.node[29].core_layer 	data[29] 	9905
scalar tree_4_3_u00_r16_network.node[29].content_store 	p_hit[29] 	0.1634152520902
scalar tree_4_3_u00_r16_network.node[29].content_store 	hits[29] 	1935
scalar tree_4_3_u00_r16_network.node[29].content_store 	misses[29] 	9906
scalar tree_4_3_u00_r16_network.node[29].content_store 	decision_yes[29] 	9905
scalar tree_4_3_u00_r16_network.node[29].content_store 	decision_no[29] 	0
scalar tree_4_3_u00_r16_network.node[29].content_store 	decision_ratio[29] 	1
scalar tree_4_3_u00_r16_network.node[30].core_layer 	interests[30] 	12056
scalar tree_4_3_u00_r16_network.node[30].core_layer 	data[30] 	10093
scalar tree_4_3_u00_r16_network.node[30].content_store 	p_hit[30] 	0.16274054412741
scalar tree_4_3_u00_r16_network.node[30].content_store 	hits[30] 	1962
scalar tree_4_3_u00_r16_network.node[30].content_store 	misses[30] 	10094
scalar tree_4_3_u00_r16_network.node[30].content_store 	decision_yes[30] 	10093
scalar tree_4_3_u00_r16_network.node[30].content_store 	decision_no[30] 	0
scalar tree_4_3_u00_r16_network.node[30].content_store 	decision_ratio[30] 	1
scalar tree_4_3_u00_r16_network.node[31].core_layer 	interests[31] 	11960
scalar tree_4_3_u00_r16_network.node[31].core_layer 	data[31] 	10099
scalar tree_4_3_u00_r16_network.node[31].content_store 	p_hit[31] 	0.15560200668896
scalar tree_4_3_u00_r16_network.node[31].content_store 	hits[31] 	1861
scalar tree_4_3_u00_r16_network.node[31].content_store 	misses[31] 	10099
scalar tree_4_3_u00_r16_network.node[31].content_store 	decision_yes[31] 	10099
scalar tree_4_3_u00_r16_network.node[31].content_store 	decision_no[31] 	0
scalar tree_4_3_u00_r16_network.node[31].content_store 	decision_ratio[31] 	1
scalar tree_4_3_u00_r16_network.node[32].core_layer 	interests[32] 	12098
scalar tree_4_3_u00_r16_network.node[32].core_layer 	data[32] 	10173
scalar tree_4_3_u00_r16_network.node[32].content_store 	p_hit[32] 	0.15903455116548
scalar tree_4_3_u00_r16_network.node[32].content_store 	hits[32] 	1924
scalar tree_4_3_u00_r16_network.node[32].content_store 	misses[32] 	10174
scalar tree_4_3_u00_r16_network.node[32].content_store 	decision_yes[32] 	10173
scalar tree_4_3_u00_r16_network.node[32].content_store 	decision_no[32] 	0
scalar tree_4_3_u00_r16_network.node[32].content_store 	decision_ratio[32] 	1
scalar tree_4_3_u00_r16_network.node[33].core_layer 	interests[33] 	12054
scalar tree_4_3_u00_r16_network.node[33].core_layer 	data[33] 	10135
scalar tree_4_3_u00_r16_network.node[33].content_store 	p_hit[33] 	0.15911730545877
scalar tree_4_3_u00_r16_network.node[33].content_store 	hits[33] 	1918
scalar tree_4_3_u00_r16_network.node[33].content_store 	misses[33] 	10136
scalar tree_4_3_u00_r16_network.node[33].content_store 	decision_yes[33] 	10135
scalar tree_4_3_u00_r16_network.node[33].content_store 	decision_no[33] 	0
scalar tree_4_3_u00_r16_network.node[33].content_store 	decision_ratio[33] 	1
scalar tree_4_3_u00_r16_network.node[34].core_layer 	interests[34] 	12007
scalar tree_4_3_u00_r16_network.node[34].core_layer 	data[34] 	10108
scalar tree_4_3_u00_r16_network.node[34].content_store 	p_hit[34] 	0.15815774131756
scalar tree_4_3_u00_r16_network.node[34].content_store 	hits[34] 	1899
scalar tree_4_3_u00_r16_network.node[34].content_store 	misses[34] 	10108
scalar tree_4_3_u00_r16_network.node[34].content_store 	decision_yes[34] 	10108
scalar tree_4_3_u00_r16_network.node[34].content_store 	decision_no[34] 	0
scalar tree_4_3_u00_r16_network.node[34].content_store 	decision_ratio[34] 	1
scalar tree_4_3_u00_r16_network.node[35].core_layer 	interests[35] 	12043
scalar tree_4_3_u00_r16_network.node[35].core_layer 	data[35] 	10102
scalar tree_4_3_u00_r16_network.node[35].content_store 	p_hit[35] 	0.16117246533256
scalar tree_4_3_u00_r16_network.node[35].content_store 	hits[35] 	1941
scalar tree_4_3_u00_r16_network.node[35].content_store 	misses[35] 	10102
scalar tree_4_3_u00_r16_network.node[35].content_store 	decision_yes[35] 	10102
scalar tree_4_3_u00_r16_network.node[35].content_store 	decision_no[35] 	0
scalar tree_4_3_u00_r16_network.node[35].content_store 	decision_ratio[35] 	1
scalar tree_4_3_u00_r16_network.node[36].core_layer 	interests[36] 	11841
scalar tree_4_3_u00_r16_network.node[36].core_layer 	data[36] 	9981
scalar tree_4_3_u00_r16_network.node[36].content_store 	p_hit[36] 	0.15708132759058
scalar tree_4_3_u00_r16_network.node[36].content_store 	hits[36] 	1860
scalar tree_4_3_u00_r16_network.node[36].content_store 	misses[36] 	9981
scalar tree_4_3_u00_r16_network.node[36].content_store 	decision_yes[36] 	9981
scalar tree_4_3_u00_r16_network.node[36].content_store 	decision_no[36] 	0
scalar tree_4_3_u00_r16_network.node[36].content_store 	decision_ratio[36] 	1
scalar tree_4_3_u00_r16_network.node[37].core_layer 	interests[37] 	11956
scalar tree_4_3_u00_r16_network.node[37].core_layer 	data[37] 	10174
scalar tree_4_3_u00_r16_network.node[37].content_store 	p_hit[37] 	0.14896286383406
scalar tree_4_3_u00_r16_network.node[37].content_store 	hits[37] 	1781
scalar tree_4_3_u00_r16_network.node[37].content_store 	misses[37] 	10175
scalar tree_4_3_u00_r16_network.node[37].content_store 	decision_yes[37] 	10174
scalar tree_4_3_u00_r16_network.node[37].content_store 	decision_no[37] 	0
scalar tree_4_3_u00_r16_network.node[37].content_store 	decision_ratio[37] 	1
scalar tree_4_3_u00_r16_network.node[38].core_layer 	interests[38] 	11866
scalar tree_4_3_u00_r16_network.node[38].core_layer 	data[38] 	9993
scalar tree_4_3_u00_r16_network.node[38].content_store 	p_hit[38] 	0.15776167200405
scalar tree_4_3_u00_r16_network.node[38].content_store 	hits[38] 	1872
scalar tree_4_3_u00_r16_network.node[38].content_store 	misses[38] 	9994
scalar tree_4_3_u00_r16_network.node[38].content_store 	decision_yes[38] 	9993
scalar tree_4_3_u00_r16_network.node[38].content_store 	decision_no[38] 	0
scalar tree_4_3_u00_r16_network.node[38].content_store 	decision_ratio[38] 	1
scalar tree_4_3_u00_r16_network.node[39].core_layer 	interests[39] 	12055
scalar tree_4_3_u00_r16_network.node[39].core_layer 	data[39] 	10169
scalar tree_4_3_u00_r16_network.node[39].content_store 	p_hit[39] 	0.15636665284114
scalar tree_4_3_u00_r16_network.node[39].content_store 	hits[39] 	1885
scalar tree_4_3_u00_r16_network.node[39].content_store 	misses[39] 	10170
scalar tree_4_3_u00_r16_network.node[39].content_store 	decision_yes[39] 	10169
scalar tree_4_3_u00_r16_network.node[39].content_store 	decision_no[39] 	0
scalar tree_4_3_u00_r16_network.node[39].content_store 	decision_ratio[39] 	1
scalar tree_4_3_u00_r16_network.client[13] 	hdistance[13] 	3.2568438677271
scalar tree_4_3_u00_r16_network.client[13] 	downloads[13] 	11945
scalar tree_4_3_u00_r16_network.client[13] 	avg_time[13] 	0.004938175885
scalar tree_4_3_u00_r16_network.client[14] 	hdistance[14] 	3.2495849933599
scalar tree_4_3_u00_r16_network.client[14] 	downloads[14] 	12048
scalar tree_4_3_u00_r16_network.client[14] 	avg_time[14] 	0.004924449465
scalar tree_4_3_u00_r16_network.client[15] 	hdistance[15] 	3.2588537778884
scalar tree_4_3_u00_r16_network.client[15] 	downloads[15] 	12057
scalar tree_4_3_u00_r16_network.client[15] 	avg_time[15] 	0.004942485777
scalar tree_4_3_u00_r16_network.client[16] 	hdistance[16] 	3.2586497890295
scalar tree_4_3_u00_r16_network.client[16] 	downloads[16] 	11850
scalar tree_4_3_u00_r16_network.client[16] 	avg_time[16] 	0.004942422205
scalar tree_4_3_u00_r16_network.client[17] 	hdistance[17] 	3.2551250941344
scalar tree_4_3_u00_r16_network.client[17] 	downloads[17] 	11951
scalar tree_4_3_u00_r16_network.client[17] 	avg_time[17] 	0.004936145776
scalar tree_4_3_u00_r16_network.client[18] 	hdistance[18] 	3.2431626056688
scalar tree_4_3_u00_r16_network.client[18] 	downloads[18] 	12066
scalar tree_4_3_u00_r16_network.client[18] 	avg_time[18] 	0.0049180384
scalar tree_4_3_u00_r16_network.client[19] 	hdistance[19] 	3.2766434262948
scalar tree_4_3_u00_r16_network.client[19] 	downloads[19] 	12048
scalar tree_4_3_u00_r16_network.client[19] 	avg_time[19] 	0.004968525788
scalar tree_4_3_u00_r16_network.client[20] 	hdistance[20] 	3.2687176921794
scalar tree_4_3_u00_r16_network.client[20] 	downloads[20] 	11994
scalar tree_4_3_u00_r16_network.client[20] 	avg_time[20] 	0.00495580826
scalar tree_4_3_u00_r16_network.client[21] 	hdistance[21] 	3.2513743128436
scalar tree_4_3_u00_r16_network.client[21] 	downloads[21] 	12006
scalar tree_4_3_u00_r16_network.client[21] 	avg_time[21] 	0.004933100713
scalar tree_4_3_u00_r16_network.client[22] 	hdistance[22] 	3.2664782644834
scalar tree_4_3_u00_r16_network.client[22] 	downloads[22] 	12031
scalar tree_4_3_u00_r16_network.client[22] 	avg_time[22] 	0.004955541799
scalar tree_4_3_u00_r16_network.client[23] 	hdistance[23] 	3.2427361779844
scalar tree_4_3_u00_r16_network.client[23] 	downloads[23] 	12046
scalar tree_4_3_u00_r16_network.client[23] 	avg_time[23] 	0.004915801166
scalar tree_4_3_u00_r16_network.client[24] 	hdistance[24] 	3.2596009975062
scalar tree_4_3_u00_r16_network.client[24] 	downloads[24] 	12030
scalar tree_4_3_u00_r16_network.client[24] 	avg_time[24] 	0.004944143159
scalar tree_4_3_u00_r16_network.client[25] 	hdistance[25] 	3.2402409837418
scalar tree_4_3_u00_r16_network.client[25] 	downloads[25] 	12117
scalar tree_4_3_u00_r16_network.client[25] 	avg_time[25] 	0.00491333297
scalar tree_4_3_u00_r16_network.client[26] 	hdistance[26] 	3.2642121010638
scalar tree_4_3_u00_r16_network.client[26] 	downloads[26] 	12032
scalar tree_4_3_u00_r16_network.client[26] 	avg_time[26] 	0.004949689247
scalar tree_4_3_u00_r16_network.client[27] 	hdistance[27] 	3.2687437520826
scalar tree_4_3_u00_r16_network.client[27] 	downloads[27] 	12004
scalar tree_4_3_u00_r16_network.client[27] 	avg_time[27] 	0.00495624068
scalar tree_4_3_u00_r16_network.client[28] 	hdistance[28] 	3.2481404095278
scalar tree_4_3_u00_r16_network.client[28] 	downloads[28] 	11965
scalar tree_4_3_u00_r16_network.client[28] 	avg_time[28] 	0.004923380391
scalar tree_4_3_u00_r16_network.client[29] 	hdistance[29] 	3.2124155405405
scalar tree_4_3_u00_r16_network.client[29] 	downloads[29] 	11840
scalar tree_4_3_u00_r16_network.client[29] 	avg_time[29] 	0.00487415247
scalar tree_4_3_u00_r16_network.client[30] 	hdistance[30] 	3.2246370800498
scalar tree_4_3_u00_r16_network.client[30] 	downloads[30] 	12055
scalar tree_4_3_u00_r16_network.client[30] 	avg_time[30] 	0.004889224277
scalar tree_4_3_u00_r16_network.client[31] 	hdistance[31] 	3.25
scalar tree_4_3_u00_r16_network.client[31] 	downloads[31] 	11960
scalar tree_4_3_u00_r16_network.client[31] 	avg_time[31] 	0.004929595685
scalar tree_4_3_u00_r16_network.client[32] 	hdistance[32] 	3.242043481855
scalar tree_4_3_u00_r16_network.client[32] 	downloads[32] 	12097
scalar tree_4_3_u00_r16_network.client[32] 	avg_time[32] 	0.004917368139
scalar tree_4_3_u00_r16_network.client[33] 	hdistance[33] 	3.2414336679665
scalar tree_4_3_u00_r16_network.client[33] 	downloads[33] 	12053
scalar tree_4_3_u00_r16_network.client[33] 	avg_time[33] 	0.004911872458
scalar tree_4_3_u00_r16_network.client[34] 	hdistance[34] 	3.2450237361539
scalar tree_4_3_u00_r16_network.client[34] 	downloads[34] 	12007
scalar tree_4_3_u00_r16_network.client[34] 	avg_time[34] 	0.004921959216
scalar tree_4_3_u00_r16_network.client[35] 	hdistance[35] 	3.223615378228
scalar tree_4_3_u00_r16_network.client[35] 	downloads[35] 	12043
scalar tree_4_3_u00_r16_network.client[35] 	avg_time[35] 	0.004892394835
scalar tree_4_3_u00_r16_network.client[36] 	hdistance[36] 	3.2472764124652
scalar tree_4_3_u00_r16_network.client[36] 	downloads[36] 	11841
scalar tree_4_3_u00_r16_network.client[36] 	avg_time[36] 	0.004921036784
scalar tree_4_3_u00_r16_network.client[37] 	hdistance[37] 	3.2704307820995
scalar tree_4_3_u00_r16_network.client[37] 	downloads[37] 	11955
scalar tree_4_3_u00_r16_network.client[37] 	avg_time[37] 	0.004963508153
scalar tree_4_3_u00_r16_network.client[38] 	hdistance[38] 	3.2489675516224
scalar tree_4_3_u00_r16_network.client[38] 	downloads[38] 	11865
scalar tree_4_3_u00_r16_network.client[38] 	avg_time[38] 	0.00492585297
scalar tree_4_3_u00_r16_network.client[39] 	hdistance[39] 	3.252281400365
scalar tree_4_3_u00_r16_network.client[39] 	downloads[39] 	12054
scalar tree_4_3_u00_r16_network.client[39] 	avg_time[39] 	0.004930501268
