version 2
run General-59-20160818-18:59:31-19481
attr a 0.9
attr cd lce
attr configname General
attr cr lru
attr datetime 20160818-18:59:31
attr experiment General
attr fsize 1
attr inifile hw5115/scenario_A/EdgeCoop.ini
attr iterationvars "$name=tree_4_3, $un=02, $rep=20, $scenario=Edge, $cd=lce, $cr=lru, $fsize=1, $a=0.9, $sl=nrr, $ttl=1000, $variance=0.05"
attr iterationvars2 "$name=tree_4_3, $un=02, $rep=20, $scenario=Edge, $cd=lce, $cr=lru, $fsize=1, $a=0.9, $sl=nrr, $ttl=1000, $variance=0.05, $repetition=0"
attr measurement "$name=tree_4_3, $un=02, $rep=20, $scenario=Edge, $cd=lce, $cr=lru, $fsize=1, $a=0.9, $sl=nrr, $ttl=1000, $variance=0.05"
attr name tree_4_3
attr network networks.${name}_u${un}_r${rep}_network
attr processid 19481
attr rep 20
attr repetition 0
attr replication #0
attr resultdir results
attr runnumber 59
attr scenario Edge
attr seedset 20
attr sl nrr
attr ttl 1000
attr un 02
attr variance 0.05

scalar . 	a 	0.9
scalar . 	fsize 	1
scalar . 	rep 	20
scalar . 	ttl 	1000
scalar . 	un 	02
scalar . 	variance 	0.05
scalar tree_4_3_u02_r20_network.content_distribution 	repo-0 	0
scalar tree_4_3_u02_r20_network.content_distribution 	client-0 	13
scalar tree_4_3_u02_r20_network.content_distribution 	client-1 	14
scalar tree_4_3_u02_r20_network.content_distribution 	client-2 	15
scalar tree_4_3_u02_r20_network.content_distribution 	client-3 	16
scalar tree_4_3_u02_r20_network.content_distribution 	client-4 	17
scalar tree_4_3_u02_r20_network.content_distribution 	client-5 	18
scalar tree_4_3_u02_r20_network.content_distribution 	client-6 	19
scalar tree_4_3_u02_r20_network.content_distribution 	client-7 	20
scalar tree_4_3_u02_r20_network.content_distribution 	client-8 	21
scalar tree_4_3_u02_r20_network.content_distribution 	client-9 	22
scalar tree_4_3_u02_r20_network.content_distribution 	client-10 	23
scalar tree_4_3_u02_r20_network.content_distribution 	client-11 	24
scalar tree_4_3_u02_r20_network.content_distribution 	client-12 	25
scalar tree_4_3_u02_r20_network.content_distribution 	client-13 	26
scalar tree_4_3_u02_r20_network.content_distribution 	client-14 	27
scalar tree_4_3_u02_r20_network.content_distribution 	client-15 	28
scalar tree_4_3_u02_r20_network.content_distribution 	client-16 	29
scalar tree_4_3_u02_r20_network.content_distribution 	client-17 	30
scalar tree_4_3_u02_r20_network.content_distribution 	client-18 	31
scalar tree_4_3_u02_r20_network.content_distribution 	client-19 	32
scalar tree_4_3_u02_r20_network.content_distribution 	client-20 	33
scalar tree_4_3_u02_r20_network.content_distribution 	client-21 	34
scalar tree_4_3_u02_r20_network.content_distribution 	client-22 	35
scalar tree_4_3_u02_r20_network.content_distribution 	client-23 	36
scalar tree_4_3_u02_r20_network.content_distribution 	client-24 	37
scalar tree_4_3_u02_r20_network.content_distribution 	client-25 	38
scalar tree_4_3_u02_r20_network.content_distribution 	client-26 	39
scalar tree_4_3_u02_r20_network.content_distribution 	repo-0_card 	100000
scalar tree_4_3_u02_r20_network.content_distribution 	repo-0_price 	0
scalar tree_4_3_u02_r20_network.statistics 	stabilization_time 	336.9
scalar tree_4_3_u02_r20_network.statistics 	p_hit 	0.1898704450143
scalar tree_4_3_u02_r20_network.statistics 	interests 	28337.975
scalar tree_4_3_u02_r20_network.statistics 	data 	20226.15
scalar tree_4_3_u02_r20_network.statistics 	hdistance 	3.1648498750703
scalar tree_4_3_u02_r20_network.statistics 	avg_time 	0.004986878849
scalar tree_4_3_u02_r20_network.statistics 	downloads 	324445
scalar tree_4_3_u02_r20_network.statistics 	total_cost 	0
scalar tree_4_3_u02_r20_network.statistics 	total_replicas 	100000
scalar tree_4_3_u02_r20_network.statistics 	inner_hit 	0.32861656058808
scalar tree_4_3_u02_r20_network.node[0].core_layer 	interests[0] 	217827
scalar tree_4_3_u02_r20_network.node[0].core_layer 	repo_load[0] 	217827
scalar tree_4_3_u02_r20_network.node[0].core_layer 	data[0] 	0
scalar tree_4_3_u02_r20_network.node[0].core_layer 	repo_int[0] 	217827
scalar tree_4_3_u02_r20_network.node[0].content_store 	p_hit[0] 	0
scalar tree_4_3_u02_r20_network.node[0].content_store 	hits[0] 	0
scalar tree_4_3_u02_r20_network.node[0].content_store 	misses[0] 	217827
scalar tree_4_3_u02_r20_network.node[0].content_store 	decision_yes[0] 	0
scalar tree_4_3_u02_r20_network.node[0].content_store 	decision_no[0] 	217827
scalar tree_4_3_u02_r20_network.node[0].content_store 	decision_ratio[0] 	0
scalar tree_4_3_u02_r20_network.node[1].core_layer 	interests[1] 	78435
scalar tree_4_3_u02_r20_network.node[1].core_layer 	data[1] 	78435
scalar tree_4_3_u02_r20_network.node[1].content_store 	p_hit[1] 	0
scalar tree_4_3_u02_r20_network.node[1].content_store 	hits[1] 	0
scalar tree_4_3_u02_r20_network.node[1].content_store 	misses[1] 	78435
scalar tree_4_3_u02_r20_network.node[1].content_store 	decision_yes[1] 	0
scalar tree_4_3_u02_r20_network.node[1].content_store 	decision_no[1] 	78435
scalar tree_4_3_u02_r20_network.node[1].content_store 	decision_ratio[1] 	0
scalar tree_4_3_u02_r20_network.node[2].core_layer 	interests[2] 	81233
scalar tree_4_3_u02_r20_network.node[2].core_layer 	data[2] 	81225
scalar tree_4_3_u02_r20_network.node[2].content_store 	p_hit[2] 	0
scalar tree_4_3_u02_r20_network.node[2].content_store 	hits[2] 	0
scalar tree_4_3_u02_r20_network.node[2].content_store 	misses[2] 	81233
scalar tree_4_3_u02_r20_network.node[2].content_store 	decision_yes[2] 	0
scalar tree_4_3_u02_r20_network.node[2].content_store 	decision_no[2] 	81221
scalar tree_4_3_u02_r20_network.node[2].content_store 	decision_ratio[2] 	0
scalar tree_4_3_u02_r20_network.node[3].core_layer 	interests[3] 	82697
scalar tree_4_3_u02_r20_network.node[3].core_layer 	data[3] 	82696
scalar tree_4_3_u02_r20_network.node[3].content_store 	p_hit[3] 	0
scalar tree_4_3_u02_r20_network.node[3].content_store 	hits[3] 	0
scalar tree_4_3_u02_r20_network.node[3].content_store 	misses[3] 	82697
scalar tree_4_3_u02_r20_network.node[3].content_store 	decision_yes[3] 	0
scalar tree_4_3_u02_r20_network.node[3].content_store 	decision_no[3] 	82689
scalar tree_4_3_u02_r20_network.node[3].content_store 	decision_ratio[3] 	0
scalar tree_4_3_u02_r20_network.node[4].core_layer 	interests[4] 	41762
scalar tree_4_3_u02_r20_network.node[4].core_layer 	data[4] 	41758
scalar tree_4_3_u02_r20_network.node[4].content_store 	p_hit[4] 	0
scalar tree_4_3_u02_r20_network.node[4].content_store 	hits[4] 	0
scalar tree_4_3_u02_r20_network.node[4].content_store 	misses[4] 	41762
scalar tree_4_3_u02_r20_network.node[4].content_store 	decision_yes[4] 	0
scalar tree_4_3_u02_r20_network.node[4].content_store 	decision_no[4] 	41756
scalar tree_4_3_u02_r20_network.node[4].content_store 	decision_ratio[4] 	0
scalar tree_4_3_u02_r20_network.node[5].core_layer 	interests[5] 	22051
scalar tree_4_3_u02_r20_network.node[5].core_layer 	data[5] 	22051
scalar tree_4_3_u02_r20_network.node[5].content_store 	p_hit[5] 	0
scalar tree_4_3_u02_r20_network.node[5].content_store 	hits[5] 	0
scalar tree_4_3_u02_r20_network.node[5].content_store 	misses[5] 	22051
scalar tree_4_3_u02_r20_network.node[5].content_store 	decision_yes[5] 	0
scalar tree_4_3_u02_r20_network.node[5].content_store 	decision_no[5] 	22051
scalar tree_4_3_u02_r20_network.node[5].content_store 	decision_ratio[5] 	0
scalar tree_4_3_u02_r20_network.node[6].core_layer 	interests[6] 	36443
scalar tree_4_3_u02_r20_network.node[6].core_layer 	data[6] 	36442
scalar tree_4_3_u02_r20_network.node[6].content_store 	p_hit[6] 	0
scalar tree_4_3_u02_r20_network.node[6].content_store 	hits[6] 	0
scalar tree_4_3_u02_r20_network.node[6].content_store 	misses[6] 	36443
scalar tree_4_3_u02_r20_network.node[6].content_store 	decision_yes[6] 	0
scalar tree_4_3_u02_r20_network.node[6].content_store 	decision_no[6] 	36440
scalar tree_4_3_u02_r20_network.node[6].content_store 	decision_ratio[6] 	0
scalar tree_4_3_u02_r20_network.node[7].core_layer 	interests[7] 	31412
scalar tree_4_3_u02_r20_network.node[7].core_layer 	data[7] 	31412
scalar tree_4_3_u02_r20_network.node[7].content_store 	p_hit[7] 	0
scalar tree_4_3_u02_r20_network.node[7].content_store 	hits[7] 	0
scalar tree_4_3_u02_r20_network.node[7].content_store 	misses[7] 	31412
scalar tree_4_3_u02_r20_network.node[7].content_store 	decision_yes[7] 	0
scalar tree_4_3_u02_r20_network.node[7].content_store 	decision_no[7] 	31409
scalar tree_4_3_u02_r20_network.node[7].content_store 	decision_ratio[7] 	0
scalar tree_4_3_u02_r20_network.node[8].core_layer 	interests[8] 	32713
scalar tree_4_3_u02_r20_network.node[8].core_layer 	data[8] 	32709
scalar tree_4_3_u02_r20_network.node[8].content_store 	p_hit[8] 	0
scalar tree_4_3_u02_r20_network.node[8].content_store 	hits[8] 	0
scalar tree_4_3_u02_r20_network.node[8].content_store 	misses[8] 	32713
scalar tree_4_3_u02_r20_network.node[8].content_store 	decision_yes[8] 	0
scalar tree_4_3_u02_r20_network.node[8].content_store 	decision_no[8] 	32708
scalar tree_4_3_u02_r20_network.node[8].content_store 	decision_ratio[8] 	0
scalar tree_4_3_u02_r20_network.node[9].core_layer 	interests[9] 	33165
scalar tree_4_3_u02_r20_network.node[9].core_layer 	data[9] 	33161
scalar tree_4_3_u02_r20_network.node[9].content_store 	p_hit[9] 	0
scalar tree_4_3_u02_r20_network.node[9].content_store 	hits[9] 	0
scalar tree_4_3_u02_r20_network.node[9].content_store 	misses[9] 	33165
scalar tree_4_3_u02_r20_network.node[9].content_store 	decision_yes[9] 	0
scalar tree_4_3_u02_r20_network.node[9].content_store 	decision_no[9] 	33159
scalar tree_4_3_u02_r20_network.node[9].content_store 	decision_ratio[9] 	0
scalar tree_4_3_u02_r20_network.node[10].core_layer 	interests[10] 	42428
scalar tree_4_3_u02_r20_network.node[10].core_layer 	data[10] 	42426
scalar tree_4_3_u02_r20_network.node[10].content_store 	p_hit[10] 	0
scalar tree_4_3_u02_r20_network.node[10].content_store 	hits[10] 	0
scalar tree_4_3_u02_r20_network.node[10].content_store 	misses[10] 	42428
scalar tree_4_3_u02_r20_network.node[10].content_store 	decision_yes[10] 	0
scalar tree_4_3_u02_r20_network.node[10].content_store 	decision_no[10] 	42420
scalar tree_4_3_u02_r20_network.node[10].content_store 	decision_ratio[10] 	0
scalar tree_4_3_u02_r20_network.node[11].core_layer 	interests[11] 	31787
scalar tree_4_3_u02_r20_network.node[11].core_layer 	data[11] 	31785
scalar tree_4_3_u02_r20_network.node[11].content_store 	p_hit[11] 	0
scalar tree_4_3_u02_r20_network.node[11].content_store 	hits[11] 	0
scalar tree_4_3_u02_r20_network.node[11].content_store 	misses[11] 	31787
scalar tree_4_3_u02_r20_network.node[11].content_store 	decision_yes[11] 	0
scalar tree_4_3_u02_r20_network.node[11].content_store 	decision_no[11] 	31783
scalar tree_4_3_u02_r20_network.node[11].content_store 	decision_ratio[11] 	0
scalar tree_4_3_u02_r20_network.node[12].core_layer 	interests[12] 	23859
scalar tree_4_3_u02_r20_network.node[12].core_layer 	data[12] 	23857
scalar tree_4_3_u02_r20_network.node[12].content_store 	p_hit[12] 	0
scalar tree_4_3_u02_r20_network.node[12].content_store 	hits[12] 	0
scalar tree_4_3_u02_r20_network.node[12].content_store 	misses[12] 	23859
scalar tree_4_3_u02_r20_network.node[12].content_store 	decision_yes[12] 	0
scalar tree_4_3_u02_r20_network.node[12].content_store 	decision_no[12] 	23855
scalar tree_4_3_u02_r20_network.node[12].content_store 	decision_ratio[12] 	0
scalar tree_4_3_u02_r20_network.node[13].core_layer 	interests[13] 	13722
scalar tree_4_3_u02_r20_network.node[13].core_layer 	data[13] 	10062
scalar tree_4_3_u02_r20_network.node[13].content_store 	p_hit[13] 	0.26665209153185
scalar tree_4_3_u02_r20_network.node[13].content_store 	hits[13] 	3659
scalar tree_4_3_u02_r20_network.node[13].content_store 	misses[13] 	10063
scalar tree_4_3_u02_r20_network.node[13].content_store 	decision_yes[13] 	10062
scalar tree_4_3_u02_r20_network.node[13].content_store 	decision_no[13] 	0
scalar tree_4_3_u02_r20_network.node[13].content_store 	decision_ratio[13] 	1
scalar tree_4_3_u02_r20_network.node[14].core_layer 	interests[14] 	13450
scalar tree_4_3_u02_r20_network.node[14].core_layer 	data[14] 	9942
scalar tree_4_3_u02_r20_network.node[14].content_store 	p_hit[14] 	0.26066914498141
scalar tree_4_3_u02_r20_network.node[14].content_store 	hits[14] 	3506
scalar tree_4_3_u02_r20_network.node[14].content_store 	misses[14] 	9944
scalar tree_4_3_u02_r20_network.node[14].content_store 	decision_yes[14] 	9942
scalar tree_4_3_u02_r20_network.node[14].content_store 	decision_no[14] 	0
scalar tree_4_3_u02_r20_network.node[14].content_store 	decision_ratio[14] 	1
scalar tree_4_3_u02_r20_network.node[15].core_layer 	interests[15] 	13752
scalar tree_4_3_u02_r20_network.node[15].core_layer 	data[15] 	10149
scalar tree_4_3_u02_r20_network.node[15].content_store 	p_hit[15] 	0.2619982547993
scalar tree_4_3_u02_r20_network.node[15].content_store 	hits[15] 	3603
scalar tree_4_3_u02_r20_network.node[15].content_store 	misses[15] 	10149
scalar tree_4_3_u02_r20_network.node[15].content_store 	decision_yes[15] 	10149
scalar tree_4_3_u02_r20_network.node[15].content_store 	decision_no[15] 	0
scalar tree_4_3_u02_r20_network.node[15].content_store 	decision_ratio[15] 	1
scalar tree_4_3_u02_r20_network.node[16].core_layer 	interests[16] 	14350
scalar tree_4_3_u02_r20_network.node[16].core_layer 	data[16] 	9995
scalar tree_4_3_u02_r20_network.node[16].content_store 	p_hit[16] 	0.30341463414634
scalar tree_4_3_u02_r20_network.node[16].content_store 	hits[16] 	4354
scalar tree_4_3_u02_r20_network.node[16].content_store 	misses[16] 	9996
scalar tree_4_3_u02_r20_network.node[16].content_store 	decision_yes[16] 	9995
scalar tree_4_3_u02_r20_network.node[16].content_store 	decision_no[16] 	0
scalar tree_4_3_u02_r20_network.node[16].content_store 	decision_ratio[16] 	1
scalar tree_4_3_u02_r20_network.node[17].core_layer 	interests[17] 	13418
scalar tree_4_3_u02_r20_network.node[17].core_layer 	data[17] 	10034
scalar tree_4_3_u02_r20_network.node[17].content_store 	p_hit[17] 	0.25212401252049
scalar tree_4_3_u02_r20_network.node[17].content_store 	hits[17] 	3383
scalar tree_4_3_u02_r20_network.node[17].content_store 	misses[17] 	10035
scalar tree_4_3_u02_r20_network.node[17].content_store 	decision_yes[17] 	10034
scalar tree_4_3_u02_r20_network.node[17].content_store 	decision_no[17] 	0
scalar tree_4_3_u02_r20_network.node[17].content_store 	decision_ratio[17] 	1
scalar tree_4_3_u02_r20_network.node[18].core_layer 	interests[18] 	13383
scalar tree_4_3_u02_r20_network.node[18].core_layer 	data[18] 	10070
scalar tree_4_3_u02_r20_network.node[18].content_store 	p_hit[18] 	0.2473287005903
scalar tree_4_3_u02_r20_network.node[18].content_store 	hits[18] 	3310
scalar tree_4_3_u02_r20_network.node[18].content_store 	misses[18] 	10073
scalar tree_4_3_u02_r20_network.node[18].content_store 	decision_yes[18] 	10070
scalar tree_4_3_u02_r20_network.node[18].content_store 	decision_no[18] 	0
scalar tree_4_3_u02_r20_network.node[18].content_store 	decision_ratio[18] 	1
scalar tree_4_3_u02_r20_network.node[19].core_layer 	interests[19] 	15048
scalar tree_4_3_u02_r20_network.node[19].core_layer 	data[19] 	10172
scalar tree_4_3_u02_r20_network.node[19].content_store 	p_hit[19] 	0.32396331738437
scalar tree_4_3_u02_r20_network.node[19].content_store 	hits[19] 	4875
scalar tree_4_3_u02_r20_network.node[19].content_store 	misses[19] 	10173
scalar tree_4_3_u02_r20_network.node[19].content_store 	decision_yes[19] 	10172
scalar tree_4_3_u02_r20_network.node[19].content_store 	decision_no[19] 	0
scalar tree_4_3_u02_r20_network.node[19].content_store 	decision_ratio[19] 	1
scalar tree_4_3_u02_r20_network.node[20].core_layer 	interests[20] 	14812
scalar tree_4_3_u02_r20_network.node[20].core_layer 	data[20] 	9988
scalar tree_4_3_u02_r20_network.node[20].content_store 	p_hit[20] 	0.32568187955712
scalar tree_4_3_u02_r20_network.node[20].content_store 	hits[20] 	4824
scalar tree_4_3_u02_r20_network.node[20].content_store 	misses[20] 	9988
scalar tree_4_3_u02_r20_network.node[20].content_store 	decision_yes[20] 	9988
scalar tree_4_3_u02_r20_network.node[20].content_store 	decision_no[20] 	0
scalar tree_4_3_u02_r20_network.node[20].content_store 	decision_ratio[20] 	1
scalar tree_4_3_u02_r20_network.node[21].core_layer 	interests[21] 	15146
scalar tree_4_3_u02_r20_network.node[21].core_layer 	data[21] 	10039
scalar tree_4_3_u02_r20_network.node[21].content_store 	p_hit[21] 	0.33698666314538
scalar tree_4_3_u02_r20_network.node[21].content_store 	hits[21] 	5104
scalar tree_4_3_u02_r20_network.node[21].content_store 	misses[21] 	10042
scalar tree_4_3_u02_r20_network.node[21].content_store 	decision_yes[21] 	10039
scalar tree_4_3_u02_r20_network.node[21].content_store 	decision_no[21] 	0
scalar tree_4_3_u02_r20_network.node[21].content_store 	decision_ratio[21] 	1
scalar tree_4_3_u02_r20_network.node[22].core_layer 	interests[22] 	13499
scalar tree_4_3_u02_r20_network.node[22].core_layer 	data[22] 	10134
scalar tree_4_3_u02_r20_network.node[22].content_store 	p_hit[22] 	0.24927772427587
scalar tree_4_3_u02_r20_network.node[22].content_store 	hits[22] 	3365
scalar tree_4_3_u02_r20_network.node[22].content_store 	misses[22] 	10134
scalar tree_4_3_u02_r20_network.node[22].content_store 	decision_yes[22] 	10134
scalar tree_4_3_u02_r20_network.node[22].content_store 	decision_no[22] 	0
scalar tree_4_3_u02_r20_network.node[22].content_store 	decision_ratio[22] 	1
scalar tree_4_3_u02_r20_network.node[23].core_layer 	interests[23] 	13740
scalar tree_4_3_u02_r20_network.node[23].core_layer 	data[23] 	10081
scalar tree_4_3_u02_r20_network.node[23].content_store 	p_hit[23] 	0.26622998544396
scalar tree_4_3_u02_r20_network.node[23].content_store 	hits[23] 	3658
scalar tree_4_3_u02_r20_network.node[23].content_store 	misses[23] 	10082
scalar tree_4_3_u02_r20_network.node[23].content_store 	decision_yes[23] 	10081
scalar tree_4_3_u02_r20_network.node[23].content_store 	decision_no[23] 	0
scalar tree_4_3_u02_r20_network.node[23].content_store 	decision_ratio[23] 	1
scalar tree_4_3_u02_r20_network.node[24].core_layer 	interests[24] 	14590
scalar tree_4_3_u02_r20_network.node[24].core_layer 	data[24] 	9864
scalar tree_4_3_u02_r20_network.node[24].content_store 	p_hit[24] 	0.32392049348869
scalar tree_4_3_u02_r20_network.node[24].content_store 	hits[24] 	4726
scalar tree_4_3_u02_r20_network.node[24].content_store 	misses[24] 	9864
scalar tree_4_3_u02_r20_network.node[24].content_store 	decision_yes[24] 	9864
scalar tree_4_3_u02_r20_network.node[24].content_store 	decision_no[24] 	0
scalar tree_4_3_u02_r20_network.node[24].content_store 	decision_ratio[24] 	1
scalar tree_4_3_u02_r20_network.node[25].core_layer 	interests[25] 	14003
scalar tree_4_3_u02_r20_network.node[25].core_layer 	data[25] 	10284
scalar tree_4_3_u02_r20_network.node[25].content_store 	p_hit[25] 	0.26551453260016
scalar tree_4_3_u02_r20_network.node[25].content_store 	hits[25] 	3718
scalar tree_4_3_u02_r20_network.node[25].content_store 	misses[25] 	10285
scalar tree_4_3_u02_r20_network.node[25].content_store 	decision_yes[25] 	10284
scalar tree_4_3_u02_r20_network.node[25].content_store 	decision_no[25] 	0
scalar tree_4_3_u02_r20_network.node[25].content_store 	decision_ratio[25] 	1
scalar tree_4_3_u02_r20_network.node[26].core_layer 	interests[26] 	13716
scalar tree_4_3_u02_r20_network.node[26].core_layer 	data[26] 	9985
scalar tree_4_3_u02_r20_network.node[26].content_store 	p_hit[26] 	0.27187226596675
scalar tree_4_3_u02_r20_network.node[26].content_store 	hits[26] 	3729
scalar tree_4_3_u02_r20_network.node[26].content_store 	misses[26] 	9987
scalar tree_4_3_u02_r20_network.node[26].content_store 	decision_yes[26] 	9985
scalar tree_4_3_u02_r20_network.node[26].content_store 	decision_no[26] 	0
scalar tree_4_3_u02_r20_network.node[26].content_store 	decision_ratio[26] 	1
scalar tree_4_3_u02_r20_network.node[27].core_layer 	interests[27] 	13662
scalar tree_4_3_u02_r20_network.node[27].core_layer 	data[27] 	9964
scalar tree_4_3_u02_r20_network.node[27].content_store 	p_hit[27] 	0.27053140096618
scalar tree_4_3_u02_r20_network.node[27].content_store 	hits[27] 	3696
scalar tree_4_3_u02_r20_network.node[27].content_store 	misses[27] 	9966
scalar tree_4_3_u02_r20_network.node[27].content_store 	decision_yes[27] 	9964
scalar tree_4_3_u02_r20_network.node[27].content_store 	decision_no[27] 	0
scalar tree_4_3_u02_r20_network.node[27].content_store 	decision_ratio[27] 	1
scalar tree_4_3_u02_r20_network.node[28].core_layer 	interests[28] 	13929
scalar tree_4_3_u02_r20_network.node[28].core_layer 	data[28] 	10300
scalar tree_4_3_u02_r20_network.node[28].content_store 	p_hit[28] 	0.26053557326441
scalar tree_4_3_u02_r20_network.node[28].content_store 	hits[28] 	3629
scalar tree_4_3_u02_r20_network.node[28].content_store 	misses[28] 	10300
scalar tree_4_3_u02_r20_network.node[28].content_store 	decision_yes[28] 	10300
scalar tree_4_3_u02_r20_network.node[28].content_store 	decision_no[28] 	0
scalar tree_4_3_u02_r20_network.node[28].content_store 	decision_ratio[28] 	1
scalar tree_4_3_u02_r20_network.node[29].core_layer 	interests[29] 	13616
scalar tree_4_3_u02_r20_network.node[29].core_layer 	data[29] 	9843
scalar tree_4_3_u02_r20_network.node[29].content_store 	p_hit[29] 	0.27710047003525
scalar tree_4_3_u02_r20_network.node[29].content_store 	hits[29] 	3773
scalar tree_4_3_u02_r20_network.node[29].content_store 	misses[29] 	9843
scalar tree_4_3_u02_r20_network.node[29].content_store 	decision_yes[29] 	9843
scalar tree_4_3_u02_r20_network.node[29].content_store 	decision_no[29] 	0
scalar tree_4_3_u02_r20_network.node[29].content_store 	decision_ratio[29] 	1
scalar tree_4_3_u02_r20_network.node[30].core_layer 	interests[30] 	13696
scalar tree_4_3_u02_r20_network.node[30].core_layer 	data[30] 	9875
scalar tree_4_3_u02_r20_network.node[30].content_store 	p_hit[30] 	0.27898656542056
scalar tree_4_3_u02_r20_network.node[30].content_store 	hits[30] 	3821
scalar tree_4_3_u02_r20_network.node[30].content_store 	misses[30] 	9875
scalar tree_4_3_u02_r20_network.node[30].content_store 	decision_yes[30] 	9875
scalar tree_4_3_u02_r20_network.node[30].content_store 	decision_no[30] 	0
scalar tree_4_3_u02_r20_network.node[30].content_store 	decision_ratio[30] 	1
scalar tree_4_3_u02_r20_network.node[31].core_layer 	interests[31] 	13899
scalar tree_4_3_u02_r20_network.node[31].core_layer 	data[31] 	10047
scalar tree_4_3_u02_r20_network.node[31].content_store 	p_hit[31] 	0.27714224044895
scalar tree_4_3_u02_r20_network.node[31].content_store 	hits[31] 	3852
scalar tree_4_3_u02_r20_network.node[31].content_store 	misses[31] 	10047
scalar tree_4_3_u02_r20_network.node[31].content_store 	decision_yes[31] 	10047
scalar tree_4_3_u02_r20_network.node[31].content_store 	decision_no[31] 	0
scalar tree_4_3_u02_r20_network.node[31].content_store 	decision_ratio[31] 	1
scalar tree_4_3_u02_r20_network.node[32].core_layer 	interests[32] 	13808
scalar tree_4_3_u02_r20_network.node[32].core_layer 	data[32] 	10060
scalar tree_4_3_u02_r20_network.node[32].content_store 	p_hit[32] 	0.27143684820394
scalar tree_4_3_u02_r20_network.node[32].content_store 	hits[32] 	3748
scalar tree_4_3_u02_r20_network.node[32].content_store 	misses[32] 	10060
scalar tree_4_3_u02_r20_network.node[32].content_store 	decision_yes[32] 	10060
scalar tree_4_3_u02_r20_network.node[32].content_store 	decision_no[32] 	0
scalar tree_4_3_u02_r20_network.node[32].content_store 	decision_ratio[32] 	1
scalar tree_4_3_u02_r20_network.node[33].core_layer 	interests[33] 	13829
scalar tree_4_3_u02_r20_network.node[33].core_layer 	data[33] 	9931
scalar tree_4_3_u02_r20_network.node[33].content_store 	p_hit[33] 	0.2816544941789
scalar tree_4_3_u02_r20_network.node[33].content_store 	hits[33] 	3895
scalar tree_4_3_u02_r20_network.node[33].content_store 	misses[33] 	9934
scalar tree_4_3_u02_r20_network.node[33].content_store 	decision_yes[33] 	9931
scalar tree_4_3_u02_r20_network.node[33].content_store 	decision_no[33] 	0
scalar tree_4_3_u02_r20_network.node[33].content_store 	decision_ratio[33] 	1
scalar tree_4_3_u02_r20_network.node[34].core_layer 	interests[34] 	13746
scalar tree_4_3_u02_r20_network.node[34].core_layer 	data[34] 	10039
scalar tree_4_3_u02_r20_network.node[34].content_store 	p_hit[34] 	0.26967845191328
scalar tree_4_3_u02_r20_network.node[34].content_store 	hits[34] 	3707
scalar tree_4_3_u02_r20_network.node[34].content_store 	misses[34] 	10039
scalar tree_4_3_u02_r20_network.node[34].content_store 	decision_yes[34] 	10039
scalar tree_4_3_u02_r20_network.node[34].content_store 	decision_no[34] 	0
scalar tree_4_3_u02_r20_network.node[34].content_store 	decision_ratio[34] 	1
scalar tree_4_3_u02_r20_network.node[35].core_layer 	interests[35] 	13574
scalar tree_4_3_u02_r20_network.node[35].core_layer 	data[35] 	9855
scalar tree_4_3_u02_r20_network.node[35].content_store 	p_hit[35] 	0.27390599675851
scalar tree_4_3_u02_r20_network.node[35].content_store 	hits[35] 	3718
scalar tree_4_3_u02_r20_network.node[35].content_store 	misses[35] 	9856
scalar tree_4_3_u02_r20_network.node[35].content_store 	decision_yes[35] 	9855
scalar tree_4_3_u02_r20_network.node[35].content_store 	decision_no[35] 	0
scalar tree_4_3_u02_r20_network.node[35].content_store 	decision_ratio[35] 	1
scalar tree_4_3_u02_r20_network.node[36].core_layer 	interests[36] 	14772
scalar tree_4_3_u02_r20_network.node[36].core_layer 	data[36] 	10057
scalar tree_4_3_u02_r20_network.node[36].content_store 	p_hit[36] 	0.31918494448957
scalar tree_4_3_u02_r20_network.node[36].content_store 	hits[36] 	4715
scalar tree_4_3_u02_r20_network.node[36].content_store 	misses[36] 	10057
scalar tree_4_3_u02_r20_network.node[36].content_store 	decision_yes[36] 	10057
scalar tree_4_3_u02_r20_network.node[36].content_store 	decision_no[36] 	0
scalar tree_4_3_u02_r20_network.node[36].content_store 	decision_ratio[36] 	1
scalar tree_4_3_u02_r20_network.node[37].core_layer 	interests[37] 	14777
scalar tree_4_3_u02_r20_network.node[37].core_layer 	data[37] 	9858
scalar tree_4_3_u02_r20_network.node[37].content_store 	p_hit[37] 	0.33288218176897
scalar tree_4_3_u02_r20_network.node[37].content_store 	hits[37] 	4919
scalar tree_4_3_u02_r20_network.node[37].content_store 	misses[37] 	9858
scalar tree_4_3_u02_r20_network.node[37].content_store 	decision_yes[37] 	9858
scalar tree_4_3_u02_r20_network.node[37].content_store 	decision_no[37] 	0
scalar tree_4_3_u02_r20_network.node[37].content_store 	decision_ratio[37] 	1
scalar tree_4_3_u02_r20_network.node[38].core_layer 	interests[38] 	13972
scalar tree_4_3_u02_r20_network.node[38].core_layer 	data[38] 	10258
scalar tree_4_3_u02_r20_network.node[38].content_store 	p_hit[38] 	0.26581734898368
scalar tree_4_3_u02_r20_network.node[38].content_store 	hits[38] 	3714
scalar tree_4_3_u02_r20_network.node[38].content_store 	misses[38] 	10258
scalar tree_4_3_u02_r20_network.node[38].content_store 	decision_yes[38] 	10258
scalar tree_4_3_u02_r20_network.node[38].content_store 	decision_no[38] 	0
scalar tree_4_3_u02_r20_network.node[38].content_store 	decision_ratio[38] 	1
scalar tree_4_3_u02_r20_network.node[39].core_layer 	interests[39] 	13798
scalar tree_4_3_u02_r20_network.node[39].core_layer 	data[39] 	10203
scalar tree_4_3_u02_r20_network.node[39].content_store 	p_hit[39] 	0.26032758370778
scalar tree_4_3_u02_r20_network.node[39].content_store 	hits[39] 	3592
scalar tree_4_3_u02_r20_network.node[39].content_store 	misses[39] 	10206
scalar tree_4_3_u02_r20_network.node[39].content_store 	decision_yes[39] 	10203
scalar tree_4_3_u02_r20_network.node[39].content_store 	decision_no[39] 	0
scalar tree_4_3_u02_r20_network.node[39].content_store 	decision_ratio[39] 	1
scalar tree_4_3_u02_r20_network.client[13] 	hdistance[13] 	3.1501861812164
scalar tree_4_3_u02_r20_network.client[13] 	downloads[13] 	12085
scalar tree_4_3_u02_r20_network.client[13] 	avg_time[13] 	0.004938535946
scalar tree_4_3_u02_r20_network.client[14] 	hdistance[14] 	3.1519476158496
scalar tree_4_3_u02_r20_network.client[14] 	downloads[14] 	11912
scalar tree_4_3_u02_r20_network.client[14] 	avg_time[14] 	0.004942243002
scalar tree_4_3_u02_r20_network.client[15] 	hdistance[15] 	3.1599901291437
scalar tree_4_3_u02_r20_network.client[15] 	downloads[15] 	12157
scalar tree_4_3_u02_r20_network.client[15] 	avg_time[15] 	0.004951053951
scalar tree_4_3_u02_r20_network.client[16] 	hdistance[16] 	3.1227775914123
scalar tree_4_3_u02_r20_network.client[16] 	downloads[16] 	11924
scalar tree_4_3_u02_r20_network.client[16] 	avg_time[16] 	0.00486334562
scalar tree_4_3_u02_r20_network.client[17] 	hdistance[17] 	3.194874355134
scalar tree_4_3_u02_r20_network.client[17] 	downloads[17] 	12018
scalar tree_4_3_u02_r20_network.client[17] 	avg_time[17] 	0.005022615216
scalar tree_4_3_u02_r20_network.client[18] 	hdistance[18] 	3.2092945781627
scalar tree_4_3_u02_r20_network.client[18] 	downloads[18] 	12007
scalar tree_4_3_u02_r20_network.client[18] 	avg_time[18] 	0.005047314133
scalar tree_4_3_u02_r20_network.client[19] 	hdistance[19] 	3.204293971924
scalar tree_4_3_u02_r20_network.client[19] 	downloads[19] 	12110
scalar tree_4_3_u02_r20_network.client[19] 	avg_time[19] 	0.005132777278
scalar tree_4_3_u02_r20_network.client[20] 	hdistance[20] 	3.2122589879599
scalar tree_4_3_u02_r20_network.client[20] 	downloads[20] 	11877
scalar tree_4_3_u02_r20_network.client[20] 	avg_time[20] 	0.005159071753
scalar tree_4_3_u02_r20_network.client[21] 	hdistance[21] 	3.1873701703365
scalar tree_4_3_u02_r20_network.client[21] 	downloads[21] 	12035
scalar tree_4_3_u02_r20_network.client[21] 	avg_time[21] 	0.005132397161
scalar tree_4_3_u02_r20_network.client[22] 	hdistance[22] 	3.2131882733992
scalar tree_4_3_u02_r20_network.client[22] 	downloads[22] 	12041
scalar tree_4_3_u02_r20_network.client[22] 	avg_time[22] 	0.005049743696
scalar tree_4_3_u02_r20_network.client[23] 	hdistance[23] 	3.1802359152025
scalar tree_4_3_u02_r20_network.client[23] 	downloads[23] 	12123
scalar tree_4_3_u02_r20_network.client[23] 	avg_time[23] 	0.004999706943
scalar tree_4_3_u02_r20_network.client[24] 	hdistance[24] 	3.0717807303418
scalar tree_4_3_u02_r20_network.client[24] 	downloads[24] 	11967
scalar tree_4_3_u02_r20_network.client[24] 	avg_time[24] 	0.004774502054
scalar tree_4_3_u02_r20_network.client[25] 	hdistance[25] 	3.2023431779351
scalar tree_4_3_u02_r20_network.client[25] 	downloads[25] 	12291
scalar tree_4_3_u02_r20_network.client[25] 	avg_time[25] 	0.005024608654
scalar tree_4_3_u02_r20_network.client[26] 	hdistance[26] 	3.1720019903798
scalar tree_4_3_u02_r20_network.client[26] 	downloads[26] 	12058
scalar tree_4_3_u02_r20_network.client[26] 	avg_time[26] 	0.004980883657
scalar tree_4_3_u02_r20_network.client[27] 	hdistance[27] 	3.1901932892645
scalar tree_4_3_u02_r20_network.client[27] 	downloads[27] 	11951
scalar tree_4_3_u02_r20_network.client[27] 	avg_time[27] 	0.005012226179
scalar tree_4_3_u02_r20_network.client[28] 	hdistance[28] 	3.1826797385621
scalar tree_4_3_u02_r20_network.client[28] 	downloads[28] 	12240
scalar tree_4_3_u02_r20_network.client[28] 	avg_time[28] 	0.004977074768
scalar tree_4_3_u02_r20_network.client[29] 	hdistance[29] 	3.1426397226685
scalar tree_4_3_u02_r20_network.client[29] 	downloads[29] 	11827
scalar tree_4_3_u02_r20_network.client[29] 	avg_time[29] 	0.004921388071
scalar tree_4_3_u02_r20_network.client[30] 	hdistance[30] 	3.1310414390182
scalar tree_4_3_u02_r20_network.client[30] 	downloads[30] 	11897
scalar tree_4_3_u02_r20_network.client[30] 	avg_time[30] 	0.004898535331
scalar tree_4_3_u02_r20_network.client[31] 	hdistance[31] 	3.1454923140839
scalar tree_4_3_u02_r20_network.client[31] 	downloads[31] 	12035
scalar tree_4_3_u02_r20_network.client[31] 	avg_time[31] 	0.004979805845
scalar tree_4_3_u02_r20_network.client[32] 	hdistance[32] 	3.1693157102225
scalar tree_4_3_u02_r20_network.client[32] 	downloads[32] 	11954
scalar tree_4_3_u02_r20_network.client[32] 	avg_time[32] 	0.005010925916
scalar tree_4_3_u02_r20_network.client[33] 	hdistance[33] 	3.1393888656341
scalar tree_4_3_u02_r20_network.client[33] 	downloads[33] 	11945
scalar tree_4_3_u02_r20_network.client[33] 	avg_time[33] 	0.00496303649
scalar tree_4_3_u02_r20_network.client[34] 	hdistance[34] 	3.192381269234
scalar tree_4_3_u02_r20_network.client[34] 	downloads[34] 	12023
scalar tree_4_3_u02_r20_network.client[34] 	avg_time[34] 	0.005058848807
scalar tree_4_3_u02_r20_network.client[35] 	hdistance[35] 	3.160823875578
scalar tree_4_3_u02_r20_network.client[35] 	downloads[35] 	11895
scalar tree_4_3_u02_r20_network.client[35] 	avg_time[35] 	0.005016226446
scalar tree_4_3_u02_r20_network.client[36] 	hdistance[36] 	3.1032252715364
scalar tree_4_3_u02_r20_network.client[36] 	downloads[36] 	12061
scalar tree_4_3_u02_r20_network.client[36] 	avg_time[36] 	0.004876707064
scalar tree_4_3_u02_r20_network.client[37] 	hdistance[37] 	3.0867688140185
scalar tree_4_3_u02_r20_network.client[37] 	downloads[37] 	11813
scalar tree_4_3_u02_r20_network.client[37] 	avg_time[37] 	0.004835855824
scalar tree_4_3_u02_r20_network.client[38] 	hdistance[38] 	3.1907114624506
scalar tree_4_3_u02_r20_network.client[38] 	downloads[38] 	12144
scalar tree_4_3_u02_r20_network.client[38] 	avg_time[38] 	0.005040094805
scalar tree_4_3_u02_r20_network.client[39] 	hdistance[39] 	3.1837411862298
scalar tree_4_3_u02_r20_network.client[39] 	downloads[39] 	12055
scalar tree_4_3_u02_r20_network.client[39] 	avg_time[39] 	0.005036204323
