version 2
run General-54-20160818-18:55:43-19481
attr a 0.9
attr cd lce
attr configname General
attr cr lru
attr datetime 20160818-18:55:43
attr experiment General
attr fsize 1
attr inifile hw5115/scenario_A/EdgeCoop.ini
attr iterationvars "$name=tree_4_3, $un=02, $rep=15, $scenario=Edge, $cd=lce, $cr=lru, $fsize=1, $a=0.9, $sl=nrr, $ttl=1000, $variance=0.05"
attr iterationvars2 "$name=tree_4_3, $un=02, $rep=15, $scenario=Edge, $cd=lce, $cr=lru, $fsize=1, $a=0.9, $sl=nrr, $ttl=1000, $variance=0.05, $repetition=0"
attr measurement "$name=tree_4_3, $un=02, $rep=15, $scenario=Edge, $cd=lce, $cr=lru, $fsize=1, $a=0.9, $sl=nrr, $ttl=1000, $variance=0.05"
attr name tree_4_3
attr network networks.${name}_u${un}_r${rep}_network
attr processid 19481
attr rep 15
attr repetition 0
attr replication #0
attr resultdir results
attr runnumber 54
attr scenario Edge
attr seedset 15
attr sl nrr
attr ttl 1000
attr un 02
attr variance 0.05

scalar . 	a 	0.9
scalar . 	fsize 	1
scalar . 	rep 	15
scalar . 	ttl 	1000
scalar . 	un 	02
scalar . 	variance 	0.05
scalar tree_4_3_u02_r15_network.content_distribution 	repo-0 	0
scalar tree_4_3_u02_r15_network.content_distribution 	client-0 	13
scalar tree_4_3_u02_r15_network.content_distribution 	client-1 	14
scalar tree_4_3_u02_r15_network.content_distribution 	client-2 	15
scalar tree_4_3_u02_r15_network.content_distribution 	client-3 	16
scalar tree_4_3_u02_r15_network.content_distribution 	client-4 	17
scalar tree_4_3_u02_r15_network.content_distribution 	client-5 	18
scalar tree_4_3_u02_r15_network.content_distribution 	client-6 	19
scalar tree_4_3_u02_r15_network.content_distribution 	client-7 	20
scalar tree_4_3_u02_r15_network.content_distribution 	client-8 	21
scalar tree_4_3_u02_r15_network.content_distribution 	client-9 	22
scalar tree_4_3_u02_r15_network.content_distribution 	client-10 	23
scalar tree_4_3_u02_r15_network.content_distribution 	client-11 	24
scalar tree_4_3_u02_r15_network.content_distribution 	client-12 	25
scalar tree_4_3_u02_r15_network.content_distribution 	client-13 	26
scalar tree_4_3_u02_r15_network.content_distribution 	client-14 	27
scalar tree_4_3_u02_r15_network.content_distribution 	client-15 	28
scalar tree_4_3_u02_r15_network.content_distribution 	client-16 	29
scalar tree_4_3_u02_r15_network.content_distribution 	client-17 	30
scalar tree_4_3_u02_r15_network.content_distribution 	client-18 	31
scalar tree_4_3_u02_r15_network.content_distribution 	client-19 	32
scalar tree_4_3_u02_r15_network.content_distribution 	client-20 	33
scalar tree_4_3_u02_r15_network.content_distribution 	client-21 	34
scalar tree_4_3_u02_r15_network.content_distribution 	client-22 	35
scalar tree_4_3_u02_r15_network.content_distribution 	client-23 	36
scalar tree_4_3_u02_r15_network.content_distribution 	client-24 	37
scalar tree_4_3_u02_r15_network.content_distribution 	client-25 	38
scalar tree_4_3_u02_r15_network.content_distribution 	client-26 	39
scalar tree_4_3_u02_r15_network.content_distribution 	repo-0_card 	100000
scalar tree_4_3_u02_r15_network.content_distribution 	repo-0_price 	0
scalar tree_4_3_u02_r15_network.statistics 	stabilization_time 	337.3
scalar tree_4_3_u02_r15_network.statistics 	p_hit 	0.18943439197629
scalar tree_4_3_u02_r15_network.statistics 	interests 	28307.05
scalar tree_4_3_u02_r15_network.statistics 	data 	20203.475
scalar tree_4_3_u02_r15_network.statistics 	hdistance 	3.1651418798165
scalar tree_4_3_u02_r15_network.statistics 	avg_time 	0.004986529466
scalar tree_4_3_u02_r15_network.statistics 	downloads 	324122
scalar tree_4_3_u02_r15_network.statistics 	total_cost 	0
scalar tree_4_3_u02_r15_network.statistics 	total_replicas 	100000
scalar tree_4_3_u02_r15_network.statistics 	inner_hit 	0.3282190039553
scalar tree_4_3_u02_r15_network.node[0].core_layer 	interests[0] 	217739
scalar tree_4_3_u02_r15_network.node[0].core_layer 	repo_load[0] 	217739
scalar tree_4_3_u02_r15_network.node[0].core_layer 	data[0] 	0
scalar tree_4_3_u02_r15_network.node[0].core_layer 	repo_int[0] 	217739
scalar tree_4_3_u02_r15_network.node[0].content_store 	p_hit[0] 	0
scalar tree_4_3_u02_r15_network.node[0].content_store 	hits[0] 	0
scalar tree_4_3_u02_r15_network.node[0].content_store 	misses[0] 	217739
scalar tree_4_3_u02_r15_network.node[0].content_store 	decision_yes[0] 	0
scalar tree_4_3_u02_r15_network.node[0].content_store 	decision_no[0] 	217739
scalar tree_4_3_u02_r15_network.node[0].content_store 	decision_ratio[0] 	0
scalar tree_4_3_u02_r15_network.node[1].core_layer 	interests[1] 	106787
scalar tree_4_3_u02_r15_network.node[1].core_layer 	data[1] 	106778
scalar tree_4_3_u02_r15_network.node[1].content_store 	p_hit[1] 	0
scalar tree_4_3_u02_r15_network.node[1].content_store 	hits[1] 	0
scalar tree_4_3_u02_r15_network.node[1].content_store 	misses[1] 	106787
scalar tree_4_3_u02_r15_network.node[1].content_store 	decision_yes[1] 	0
scalar tree_4_3_u02_r15_network.node[1].content_store 	decision_no[1] 	106774
scalar tree_4_3_u02_r15_network.node[1].content_store 	decision_ratio[1] 	0
scalar tree_4_3_u02_r15_network.node[2].core_layer 	interests[2] 	54600
scalar tree_4_3_u02_r15_network.node[2].core_layer 	data[2] 	54600
scalar tree_4_3_u02_r15_network.node[2].content_store 	p_hit[2] 	0
scalar tree_4_3_u02_r15_network.node[2].content_store 	hits[2] 	0
scalar tree_4_3_u02_r15_network.node[2].content_store 	misses[2] 	54600
scalar tree_4_3_u02_r15_network.node[2].content_store 	decision_yes[2] 	0
scalar tree_4_3_u02_r15_network.node[2].content_store 	decision_no[2] 	54596
scalar tree_4_3_u02_r15_network.node[2].content_store 	decision_ratio[2] 	0
scalar tree_4_3_u02_r15_network.node[3].core_layer 	interests[3] 	80614
scalar tree_4_3_u02_r15_network.node[3].core_layer 	data[3] 	80612
scalar tree_4_3_u02_r15_network.node[3].content_store 	p_hit[3] 	0
scalar tree_4_3_u02_r15_network.node[3].content_store 	hits[3] 	0
scalar tree_4_3_u02_r15_network.node[3].content_store 	misses[3] 	80614
scalar tree_4_3_u02_r15_network.node[3].content_store 	decision_yes[3] 	0
scalar tree_4_3_u02_r15_network.node[3].content_store 	decision_no[3] 	80609
scalar tree_4_3_u02_r15_network.node[3].content_store 	decision_ratio[3] 	0
scalar tree_4_3_u02_r15_network.node[4].core_layer 	interests[4] 	33152
scalar tree_4_3_u02_r15_network.node[4].core_layer 	data[4] 	33149
scalar tree_4_3_u02_r15_network.node[4].content_store 	p_hit[4] 	0
scalar tree_4_3_u02_r15_network.node[4].content_store 	hits[4] 	0
scalar tree_4_3_u02_r15_network.node[4].content_store 	misses[4] 	33152
scalar tree_4_3_u02_r15_network.node[4].content_store 	decision_yes[4] 	0
scalar tree_4_3_u02_r15_network.node[4].content_store 	decision_no[4] 	33148
scalar tree_4_3_u02_r15_network.node[4].content_store 	decision_ratio[4] 	0
scalar tree_4_3_u02_r15_network.node[5].core_layer 	interests[5] 	31977
scalar tree_4_3_u02_r15_network.node[5].core_layer 	data[5] 	31975
scalar tree_4_3_u02_r15_network.node[5].content_store 	p_hit[5] 	0
scalar tree_4_3_u02_r15_network.node[5].content_store 	hits[5] 	0
scalar tree_4_3_u02_r15_network.node[5].content_store 	misses[5] 	31977
scalar tree_4_3_u02_r15_network.node[5].content_store 	decision_yes[5] 	0
scalar tree_4_3_u02_r15_network.node[5].content_store 	decision_no[5] 	31974
scalar tree_4_3_u02_r15_network.node[5].content_store 	decision_ratio[5] 	0
scalar tree_4_3_u02_r15_network.node[6].core_layer 	interests[6] 	34061
scalar tree_4_3_u02_r15_network.node[6].core_layer 	data[6] 	34060
scalar tree_4_3_u02_r15_network.node[6].content_store 	p_hit[6] 	0
scalar tree_4_3_u02_r15_network.node[6].content_store 	hits[6] 	0
scalar tree_4_3_u02_r15_network.node[6].content_store 	misses[6] 	34061
scalar tree_4_3_u02_r15_network.node[6].content_store 	decision_yes[6] 	0
scalar tree_4_3_u02_r15_network.node[6].content_store 	decision_no[6] 	34058
scalar tree_4_3_u02_r15_network.node[6].content_store 	decision_ratio[6] 	0
scalar tree_4_3_u02_r15_network.node[7].core_layer 	interests[7] 	35071
scalar tree_4_3_u02_r15_network.node[7].core_layer 	data[7] 	35071
scalar tree_4_3_u02_r15_network.node[7].content_store 	p_hit[7] 	0
scalar tree_4_3_u02_r15_network.node[7].content_store 	hits[7] 	0
scalar tree_4_3_u02_r15_network.node[7].content_store 	misses[7] 	35071
scalar tree_4_3_u02_r15_network.node[7].content_store 	decision_yes[7] 	0
scalar tree_4_3_u02_r15_network.node[7].content_store 	decision_no[7] 	35066
scalar tree_4_3_u02_r15_network.node[7].content_store 	decision_ratio[7] 	0
scalar tree_4_3_u02_r15_network.node[8].core_layer 	interests[8] 	31860
scalar tree_4_3_u02_r15_network.node[8].core_layer 	data[8] 	31858
scalar tree_4_3_u02_r15_network.node[8].content_store 	p_hit[8] 	0
scalar tree_4_3_u02_r15_network.node[8].content_store 	hits[8] 	0
scalar tree_4_3_u02_r15_network.node[8].content_store 	misses[8] 	31860
scalar tree_4_3_u02_r15_network.node[8].content_store 	decision_yes[8] 	0
scalar tree_4_3_u02_r15_network.node[8].content_store 	decision_no[8] 	31857
scalar tree_4_3_u02_r15_network.node[8].content_store 	decision_ratio[8] 	0
scalar tree_4_3_u02_r15_network.node[9].core_layer 	interests[9] 	32494
scalar tree_4_3_u02_r15_network.node[9].core_layer 	data[9] 	32492
scalar tree_4_3_u02_r15_network.node[9].content_store 	p_hit[9] 	0
scalar tree_4_3_u02_r15_network.node[9].content_store 	hits[9] 	0
scalar tree_4_3_u02_r15_network.node[9].content_store 	misses[9] 	32494
scalar tree_4_3_u02_r15_network.node[9].content_store 	decision_yes[9] 	0
scalar tree_4_3_u02_r15_network.node[9].content_store 	decision_no[9] 	32488
scalar tree_4_3_u02_r15_network.node[9].content_store 	decision_ratio[9] 	0
scalar tree_4_3_u02_r15_network.node[10].core_layer 	interests[10] 	41995
scalar tree_4_3_u02_r15_network.node[10].core_layer 	data[10] 	41994
scalar tree_4_3_u02_r15_network.node[10].content_store 	p_hit[10] 	0
scalar tree_4_3_u02_r15_network.node[10].content_store 	hits[10] 	0
scalar tree_4_3_u02_r15_network.node[10].content_store 	misses[10] 	41995
scalar tree_4_3_u02_r15_network.node[10].content_store 	decision_yes[10] 	0
scalar tree_4_3_u02_r15_network.node[10].content_store 	decision_no[10] 	41990
scalar tree_4_3_u02_r15_network.node[10].content_store 	decision_ratio[10] 	0
scalar tree_4_3_u02_r15_network.node[11].core_layer 	interests[11] 	32397
scalar tree_4_3_u02_r15_network.node[11].core_layer 	data[11] 	32394
scalar tree_4_3_u02_r15_network.node[11].content_store 	p_hit[11] 	0
scalar tree_4_3_u02_r15_network.node[11].content_store 	hits[11] 	0
scalar tree_4_3_u02_r15_network.node[11].content_store 	misses[11] 	32397
scalar tree_4_3_u02_r15_network.node[11].content_store 	decision_yes[11] 	0
scalar tree_4_3_u02_r15_network.node[11].content_store 	decision_no[11] 	32393
scalar tree_4_3_u02_r15_network.node[11].content_store 	decision_ratio[11] 	0
scalar tree_4_3_u02_r15_network.node[12].core_layer 	interests[12] 	22201
scalar tree_4_3_u02_r15_network.node[12].core_layer 	data[12] 	22200
scalar tree_4_3_u02_r15_network.node[12].content_store 	p_hit[12] 	0
scalar tree_4_3_u02_r15_network.node[12].content_store 	hits[12] 	0
scalar tree_4_3_u02_r15_network.node[12].content_store 	misses[12] 	22201
scalar tree_4_3_u02_r15_network.node[12].content_store 	decision_yes[12] 	0
scalar tree_4_3_u02_r15_network.node[12].content_store 	decision_no[12] 	22199
scalar tree_4_3_u02_r15_network.node[12].content_store 	decision_ratio[12] 	0
scalar tree_4_3_u02_r15_network.node[13].core_layer 	interests[13] 	13974
scalar tree_4_3_u02_r15_network.node[13].core_layer 	data[13] 	10132
scalar tree_4_3_u02_r15_network.node[13].content_store 	p_hit[13] 	0.27493917274939
scalar tree_4_3_u02_r15_network.node[13].content_store 	hits[13] 	3842
scalar tree_4_3_u02_r15_network.node[13].content_store 	misses[13] 	10132
scalar tree_4_3_u02_r15_network.node[13].content_store 	decision_yes[13] 	10132
scalar tree_4_3_u02_r15_network.node[13].content_store 	decision_no[13] 	0
scalar tree_4_3_u02_r15_network.node[13].content_store 	decision_ratio[13] 	1
scalar tree_4_3_u02_r15_network.node[14].core_layer 	interests[14] 	13825
scalar tree_4_3_u02_r15_network.node[14].core_layer 	data[14] 	9998
scalar tree_4_3_u02_r15_network.node[14].content_store 	p_hit[14] 	0.27681735985533
scalar tree_4_3_u02_r15_network.node[14].content_store 	hits[14] 	3827
scalar tree_4_3_u02_r15_network.node[14].content_store 	misses[14] 	9998
scalar tree_4_3_u02_r15_network.node[14].content_store 	decision_yes[14] 	9998
scalar tree_4_3_u02_r15_network.node[14].content_store 	decision_no[14] 	0
scalar tree_4_3_u02_r15_network.node[14].content_store 	decision_ratio[14] 	1
scalar tree_4_3_u02_r15_network.node[15].core_layer 	interests[15] 	13856
scalar tree_4_3_u02_r15_network.node[15].core_layer 	data[15] 	10114
scalar tree_4_3_u02_r15_network.node[15].content_store 	p_hit[15] 	0.26999133949192
scalar tree_4_3_u02_r15_network.node[15].content_store 	hits[15] 	3741
scalar tree_4_3_u02_r15_network.node[15].content_store 	misses[15] 	10115
scalar tree_4_3_u02_r15_network.node[15].content_store 	decision_yes[15] 	10114
scalar tree_4_3_u02_r15_network.node[15].content_store 	decision_no[15] 	0
scalar tree_4_3_u02_r15_network.node[15].content_store 	decision_ratio[15] 	1
scalar tree_4_3_u02_r15_network.node[16].core_layer 	interests[16] 	13804
scalar tree_4_3_u02_r15_network.node[16].core_layer 	data[16] 	10065
scalar tree_4_3_u02_r15_network.node[16].content_store 	p_hit[16] 	0.27079107505071
scalar tree_4_3_u02_r15_network.node[16].content_store 	hits[16] 	3738
scalar tree_4_3_u02_r15_network.node[16].content_store 	misses[16] 	10066
scalar tree_4_3_u02_r15_network.node[16].content_store 	decision_yes[16] 	10065
scalar tree_4_3_u02_r15_network.node[16].content_store 	decision_no[16] 	0
scalar tree_4_3_u02_r15_network.node[16].content_store 	decision_ratio[16] 	1
scalar tree_4_3_u02_r15_network.node[17].core_layer 	interests[17] 	13713
scalar tree_4_3_u02_r15_network.node[17].core_layer 	data[17] 	10113
scalar tree_4_3_u02_r15_network.node[17].content_store 	p_hit[17] 	0.26237876467586
scalar tree_4_3_u02_r15_network.node[17].content_store 	hits[17] 	3598
scalar tree_4_3_u02_r15_network.node[17].content_store 	misses[17] 	10115
scalar tree_4_3_u02_r15_network.node[17].content_store 	decision_yes[17] 	10113
scalar tree_4_3_u02_r15_network.node[17].content_store 	decision_no[17] 	0
scalar tree_4_3_u02_r15_network.node[17].content_store 	decision_ratio[17] 	1
scalar tree_4_3_u02_r15_network.node[18].core_layer 	interests[18] 	14948
scalar tree_4_3_u02_r15_network.node[18].core_layer 	data[18] 	9858
scalar tree_4_3_u02_r15_network.node[18].content_store 	p_hit[18] 	0.34044688252609
scalar tree_4_3_u02_r15_network.node[18].content_store 	hits[18] 	5089
scalar tree_4_3_u02_r15_network.node[18].content_store 	misses[18] 	9859
scalar tree_4_3_u02_r15_network.node[18].content_store 	decision_yes[18] 	9858
scalar tree_4_3_u02_r15_network.node[18].content_store 	decision_no[18] 	0
scalar tree_4_3_u02_r15_network.node[18].content_store 	decision_ratio[18] 	1
scalar tree_4_3_u02_r15_network.node[19].core_layer 	interests[19] 	14011
scalar tree_4_3_u02_r15_network.node[19].core_layer 	data[19] 	10168
scalar tree_4_3_u02_r15_network.node[19].content_store 	p_hit[19] 	0.27421311826422
scalar tree_4_3_u02_r15_network.node[19].content_store 	hits[19] 	3842
scalar tree_4_3_u02_r15_network.node[19].content_store 	misses[19] 	10169
scalar tree_4_3_u02_r15_network.node[19].content_store 	decision_yes[19] 	10168
scalar tree_4_3_u02_r15_network.node[19].content_store 	decision_no[19] 	0
scalar tree_4_3_u02_r15_network.node[19].content_store 	decision_ratio[19] 	1
scalar tree_4_3_u02_r15_network.node[20].core_layer 	interests[20] 	13945
scalar tree_4_3_u02_r15_network.node[20].core_layer 	data[20] 	10122
scalar tree_4_3_u02_r15_network.node[20].content_store 	p_hit[20] 	0.27414844030118
scalar tree_4_3_u02_r15_network.node[20].content_store 	hits[20] 	3823
scalar tree_4_3_u02_r15_network.node[20].content_store 	misses[20] 	10122
scalar tree_4_3_u02_r15_network.node[20].content_store 	decision_yes[20] 	10122
scalar tree_4_3_u02_r15_network.node[20].content_store 	decision_no[20] 	0
scalar tree_4_3_u02_r15_network.node[20].content_store 	decision_ratio[20] 	1
scalar tree_4_3_u02_r15_network.node[21].core_layer 	interests[21] 	14240
scalar tree_4_3_u02_r15_network.node[21].core_layer 	data[21] 	10083
scalar tree_4_3_u02_r15_network.node[21].content_store 	p_hit[21] 	0.29185393258427
scalar tree_4_3_u02_r15_network.node[21].content_store 	hits[21] 	4156
scalar tree_4_3_u02_r15_network.node[21].content_store 	misses[21] 	10084
scalar tree_4_3_u02_r15_network.node[21].content_store 	decision_yes[21] 	10083
scalar tree_4_3_u02_r15_network.node[21].content_store 	decision_no[21] 	0
scalar tree_4_3_u02_r15_network.node[21].content_store 	decision_ratio[21] 	1
scalar tree_4_3_u02_r15_network.node[22].core_layer 	interests[22] 	14793
scalar tree_4_3_u02_r15_network.node[22].core_layer 	data[22] 	10070
scalar tree_4_3_u02_r15_network.node[22].content_store 	p_hit[22] 	0.31913742986548
scalar tree_4_3_u02_r15_network.node[22].content_store 	hits[22] 	4721
scalar tree_4_3_u02_r15_network.node[22].content_store 	misses[22] 	10072
scalar tree_4_3_u02_r15_network.node[22].content_store 	decision_yes[22] 	10070
scalar tree_4_3_u02_r15_network.node[22].content_store 	decision_no[22] 	0
scalar tree_4_3_u02_r15_network.node[22].content_store 	decision_ratio[22] 	1
scalar tree_4_3_u02_r15_network.node[23].core_layer 	interests[23] 	15953
scalar tree_4_3_u02_r15_network.node[23].core_layer 	data[23] 	10121
scalar tree_4_3_u02_r15_network.node[23].content_store 	p_hit[23] 	0.36557387325268
scalar tree_4_3_u02_r15_network.node[23].content_store 	hits[23] 	5832
scalar tree_4_3_u02_r15_network.node[23].content_store 	misses[23] 	10121
scalar tree_4_3_u02_r15_network.node[23].content_store 	decision_yes[23] 	10121
scalar tree_4_3_u02_r15_network.node[23].content_store 	decision_no[23] 	0
scalar tree_4_3_u02_r15_network.node[23].content_store 	decision_ratio[23] 	1
scalar tree_4_3_u02_r15_network.node[24].core_layer 	interests[24] 	14580
scalar tree_4_3_u02_r15_network.node[24].core_layer 	data[24] 	9947
scalar tree_4_3_u02_r15_network.node[24].content_store 	p_hit[24] 	0.3176268861454
scalar tree_4_3_u02_r15_network.node[24].content_store 	hits[24] 	4631
scalar tree_4_3_u02_r15_network.node[24].content_store 	misses[24] 	9949
scalar tree_4_3_u02_r15_network.node[24].content_store 	decision_yes[24] 	9947
scalar tree_4_3_u02_r15_network.node[24].content_store 	decision_no[24] 	0
scalar tree_4_3_u02_r15_network.node[24].content_store 	decision_ratio[24] 	1
scalar tree_4_3_u02_r15_network.node[25].core_layer 	interests[25] 	13571
scalar tree_4_3_u02_r15_network.node[25].core_layer 	data[25] 	10059
scalar tree_4_3_u02_r15_network.node[25].content_store 	p_hit[25] 	0.25886080613072
scalar tree_4_3_u02_r15_network.node[25].content_store 	hits[25] 	3513
scalar tree_4_3_u02_r15_network.node[25].content_store 	misses[25] 	10058
scalar tree_4_3_u02_r15_network.node[25].content_store 	decision_yes[25] 	10059
scalar tree_4_3_u02_r15_network.node[25].content_store 	decision_no[25] 	0
scalar tree_4_3_u02_r15_network.node[25].content_store 	decision_ratio[25] 	1
scalar tree_4_3_u02_r15_network.node[26].core_layer 	interests[26] 	13594
scalar tree_4_3_u02_r15_network.node[26].core_layer 	data[26] 	10273
scalar tree_4_3_u02_r15_network.node[26].content_store 	p_hit[26] 	0.24422539355598
scalar tree_4_3_u02_r15_network.node[26].content_store 	hits[26] 	3320
scalar tree_4_3_u02_r15_network.node[26].content_store 	misses[26] 	10274
scalar tree_4_3_u02_r15_network.node[26].content_store 	decision_yes[26] 	10273
scalar tree_4_3_u02_r15_network.node[26].content_store 	decision_no[26] 	0
scalar tree_4_3_u02_r15_network.node[26].content_store 	decision_ratio[26] 	1
scalar tree_4_3_u02_r15_network.node[27].core_layer 	interests[27] 	14652
scalar tree_4_3_u02_r15_network.node[27].core_layer 	data[27] 	10004
scalar tree_4_3_u02_r15_network.node[27].content_store 	p_hit[27] 	0.31722631722632
scalar tree_4_3_u02_r15_network.node[27].content_store 	hits[27] 	4648
scalar tree_4_3_u02_r15_network.node[27].content_store 	misses[27] 	10004
scalar tree_4_3_u02_r15_network.node[27].content_store 	decision_yes[27] 	10004
scalar tree_4_3_u02_r15_network.node[27].content_store 	decision_no[27] 	0
scalar tree_4_3_u02_r15_network.node[27].content_store 	decision_ratio[27] 	1
scalar tree_4_3_u02_r15_network.node[28].core_layer 	interests[28] 	13369
scalar tree_4_3_u02_r15_network.node[28].core_layer 	data[28] 	9970
scalar tree_4_3_u02_r15_network.node[28].content_store 	p_hit[28] 	0.25417009499589
scalar tree_4_3_u02_r15_network.node[28].content_store 	hits[28] 	3398
scalar tree_4_3_u02_r15_network.node[28].content_store 	misses[28] 	9971
scalar tree_4_3_u02_r15_network.node[28].content_store 	decision_yes[28] 	9970
scalar tree_4_3_u02_r15_network.node[28].content_store 	decision_no[28] 	0
scalar tree_4_3_u02_r15_network.node[28].content_store 	decision_ratio[28] 	1
scalar tree_4_3_u02_r15_network.node[29].core_layer 	interests[29] 	13703
scalar tree_4_3_u02_r15_network.node[29].core_layer 	data[29] 	10175
scalar tree_4_3_u02_r15_network.node[29].content_store 	p_hit[29] 	0.25731591622272
scalar tree_4_3_u02_r15_network.node[29].content_store 	hits[29] 	3526
scalar tree_4_3_u02_r15_network.node[29].content_store 	misses[29] 	10177
scalar tree_4_3_u02_r15_network.node[29].content_store 	decision_yes[29] 	10175
scalar tree_4_3_u02_r15_network.node[29].content_store 	decision_no[29] 	0
scalar tree_4_3_u02_r15_network.node[29].content_store 	decision_ratio[29] 	1
scalar tree_4_3_u02_r15_network.node[30].core_layer 	interests[30] 	13457
scalar tree_4_3_u02_r15_network.node[30].core_layer 	data[30] 	10005
scalar tree_4_3_u02_r15_network.node[30].content_store 	p_hit[30] 	0.25652076985955
scalar tree_4_3_u02_r15_network.node[30].content_store 	hits[30] 	3452
scalar tree_4_3_u02_r15_network.node[30].content_store 	misses[30] 	10005
scalar tree_4_3_u02_r15_network.node[30].content_store 	decision_yes[30] 	10005
scalar tree_4_3_u02_r15_network.node[30].content_store 	decision_no[30] 	0
scalar tree_4_3_u02_r15_network.node[30].content_store 	decision_ratio[30] 	1
scalar tree_4_3_u02_r15_network.node[31].core_layer 	interests[31] 	13635
scalar tree_4_3_u02_r15_network.node[31].core_layer 	data[31] 	9945
scalar tree_4_3_u02_r15_network.node[31].content_store 	p_hit[31] 	0.27062706270627
scalar tree_4_3_u02_r15_network.node[31].content_store 	hits[31] 	3690
scalar tree_4_3_u02_r15_network.node[31].content_store 	misses[31] 	9945
scalar tree_4_3_u02_r15_network.node[31].content_store 	decision_yes[31] 	9945
scalar tree_4_3_u02_r15_network.node[31].content_store 	decision_no[31] 	0
scalar tree_4_3_u02_r15_network.node[31].content_store 	decision_ratio[31] 	1
scalar tree_4_3_u02_r15_network.node[32].core_layer 	interests[32] 	13652
scalar tree_4_3_u02_r15_network.node[32].core_layer 	data[32] 	9966
scalar tree_4_3_u02_r15_network.node[32].content_store 	p_hit[32] 	0.26999707002637
scalar tree_4_3_u02_r15_network.node[32].content_store 	hits[32] 	3686
scalar tree_4_3_u02_r15_network.node[32].content_store 	misses[32] 	9966
scalar tree_4_3_u02_r15_network.node[32].content_store 	decision_yes[32] 	9966
scalar tree_4_3_u02_r15_network.node[32].content_store 	decision_no[32] 	0
scalar tree_4_3_u02_r15_network.node[32].content_store 	decision_ratio[32] 	1
scalar tree_4_3_u02_r15_network.node[33].core_layer 	interests[33] 	13604
scalar tree_4_3_u02_r15_network.node[33].core_layer 	data[33] 	9958
scalar tree_4_3_u02_r15_network.node[33].content_store 	p_hit[33] 	0.26800940899735
scalar tree_4_3_u02_r15_network.node[33].content_store 	hits[33] 	3646
scalar tree_4_3_u02_r15_network.node[33].content_store 	misses[33] 	9958
scalar tree_4_3_u02_r15_network.node[33].content_store 	decision_yes[33] 	9958
scalar tree_4_3_u02_r15_network.node[33].content_store 	decision_no[33] 	0
scalar tree_4_3_u02_r15_network.node[33].content_store 	decision_ratio[33] 	1
scalar tree_4_3_u02_r15_network.node[34].core_layer 	interests[34] 	13756
scalar tree_4_3_u02_r15_network.node[34].core_layer 	data[34] 	10136
scalar tree_4_3_u02_r15_network.node[34].content_store 	p_hit[34] 	0.26301250363478
scalar tree_4_3_u02_r15_network.node[34].content_store 	hits[34] 	3618
scalar tree_4_3_u02_r15_network.node[34].content_store 	misses[34] 	10138
scalar tree_4_3_u02_r15_network.node[34].content_store 	decision_yes[34] 	10136
scalar tree_4_3_u02_r15_network.node[34].content_store 	decision_no[34] 	0
scalar tree_4_3_u02_r15_network.node[34].content_store 	decision_ratio[34] 	1
scalar tree_4_3_u02_r15_network.node[35].core_layer 	interests[35] 	13418
scalar tree_4_3_u02_r15_network.node[35].core_layer 	data[35] 	9813
scalar tree_4_3_u02_r15_network.node[35].content_store 	p_hit[35] 	0.26851989864361
scalar tree_4_3_u02_r15_network.node[35].content_store 	hits[35] 	3603
scalar tree_4_3_u02_r15_network.node[35].content_store 	misses[35] 	9815
scalar tree_4_3_u02_r15_network.node[35].content_store 	decision_yes[35] 	9813
scalar tree_4_3_u02_r15_network.node[35].content_store 	decision_no[35] 	0
scalar tree_4_3_u02_r15_network.node[35].content_store 	decision_ratio[35] 	1
scalar tree_4_3_u02_r15_network.node[36].core_layer 	interests[36] 	13618
scalar tree_4_3_u02_r15_network.node[36].core_layer 	data[36] 	10045
scalar tree_4_3_u02_r15_network.node[36].content_store 	p_hit[36] 	0.26229989719489
scalar tree_4_3_u02_r15_network.node[36].content_store 	hits[36] 	3572
scalar tree_4_3_u02_r15_network.node[36].content_store 	misses[36] 	10046
scalar tree_4_3_u02_r15_network.node[36].content_store 	decision_yes[36] 	10045
scalar tree_4_3_u02_r15_network.node[36].content_store 	decision_no[36] 	0
scalar tree_4_3_u02_r15_network.node[36].content_store 	decision_ratio[36] 	1
scalar tree_4_3_u02_r15_network.node[37].core_layer 	interests[37] 	14748
scalar tree_4_3_u02_r15_network.node[37].core_layer 	data[37] 	9880
scalar tree_4_3_u02_r15_network.node[37].content_store 	p_hit[37] 	0.33007865473285
scalar tree_4_3_u02_r15_network.node[37].content_store 	hits[37] 	4868
scalar tree_4_3_u02_r15_network.node[37].content_store 	misses[37] 	9880
scalar tree_4_3_u02_r15_network.node[37].content_store 	decision_yes[37] 	9880
scalar tree_4_3_u02_r15_network.node[37].content_store 	decision_no[37] 	0
scalar tree_4_3_u02_r15_network.node[37].content_store 	decision_ratio[37] 	1
scalar tree_4_3_u02_r15_network.node[38].core_layer 	interests[38] 	13445
scalar tree_4_3_u02_r15_network.node[38].core_layer 	data[38] 	9974
scalar tree_4_3_u02_r15_network.node[38].content_store 	p_hit[38] 	0.25823726292302
scalar tree_4_3_u02_r15_network.node[38].content_store 	hits[38] 	3472
scalar tree_4_3_u02_r15_network.node[38].content_store 	misses[38] 	9973
scalar tree_4_3_u02_r15_network.node[38].content_store 	decision_yes[38] 	9974
scalar tree_4_3_u02_r15_network.node[38].content_store 	decision_no[38] 	0
scalar tree_4_3_u02_r15_network.node[38].content_store 	decision_ratio[38] 	1
scalar tree_4_3_u02_r15_network.node[39].core_layer 	interests[39] 	13470
scalar tree_4_3_u02_r15_network.node[39].core_layer 	data[39] 	9962
scalar tree_4_3_u02_r15_network.node[39].content_store 	p_hit[39] 	0.26035634743875
scalar tree_4_3_u02_r15_network.node[39].content_store 	hits[39] 	3507
scalar tree_4_3_u02_r15_network.node[39].content_store 	misses[39] 	9963
scalar tree_4_3_u02_r15_network.node[39].content_store 	decision_yes[39] 	9962
scalar tree_4_3_u02_r15_network.node[39].content_store 	decision_no[39] 	0
scalar tree_4_3_u02_r15_network.node[39].content_store 	decision_ratio[39] 	1
scalar tree_4_3_u02_r15_network.client[13] 	hdistance[13] 	3.2074472486554
scalar tree_4_3_u02_r15_network.client[13] 	downloads[13] 	12085
scalar tree_4_3_u02_r15_network.client[13] 	avg_time[13] 	0.00509108538
scalar tree_4_3_u02_r15_network.client[14] 	hdistance[14] 	3.189883982973
scalar tree_4_3_u02_r15_network.client[14] 	downloads[14] 	11981
scalar tree_4_3_u02_r15_network.client[14] 	avg_time[14] 	0.005063021373
scalar tree_4_3_u02_r15_network.client[15] 	hdistance[15] 	3.2172755263377
scalar tree_4_3_u02_r15_network.client[15] 	downloads[15] 	12017
scalar tree_4_3_u02_r15_network.client[15] 	avg_time[15] 	0.005112658767
scalar tree_4_3_u02_r15_network.client[16] 	hdistance[16] 	3.182375351996
scalar tree_4_3_u02_r15_network.client[16] 	downloads[16] 	12074
scalar tree_4_3_u02_r15_network.client[16] 	avg_time[16] 	0.005045195443
scalar tree_4_3_u02_r15_network.client[17] 	hdistance[17] 	3.2104038557421
scalar tree_4_3_u02_r15_network.client[17] 	downloads[17] 	12034
scalar tree_4_3_u02_r15_network.client[17] 	avg_time[17] 	0.005083526861
scalar tree_4_3_u02_r15_network.client[18] 	hdistance[18] 	3.0772719637158
scalar tree_4_3_u02_r15_network.client[18] 	downloads[18] 	11906
scalar tree_4_3_u02_r15_network.client[18] 	avg_time[18] 	0.004838813536
scalar tree_4_3_u02_r15_network.client[19] 	hdistance[19] 	3.1563582384958
scalar tree_4_3_u02_r15_network.client[19] 	downloads[19] 	12126
scalar tree_4_3_u02_r15_network.client[19] 	avg_time[19] 	0.004983702145
scalar tree_4_3_u02_r15_network.client[20] 	hdistance[20] 	3.1565886342956
scalar tree_4_3_u02_r15_network.client[20] 	downloads[20] 	12089
scalar tree_4_3_u02_r15_network.client[20] 	avg_time[20] 	0.004989297333
scalar tree_4_3_u02_r15_network.client[21] 	hdistance[21] 	3.1459432717678
scalar tree_4_3_u02_r15_network.client[21] 	downloads[21] 	12128
scalar tree_4_3_u02_r15_network.client[21] 	avg_time[21] 	0.004966546999
scalar tree_4_3_u02_r15_network.client[22] 	hdistance[22] 	3.191255922201
scalar tree_4_3_u02_r15_network.client[22] 	downloads[22] 	12031
scalar tree_4_3_u02_r15_network.client[22] 	avg_time[22] 	0.005108172824
scalar tree_4_3_u02_r15_network.client[23] 	hdistance[23] 	3.0974367400592
scalar tree_4_3_u02_r15_network.client[23] 	downloads[23] 	12172
scalar tree_4_3_u02_r15_network.client[23] 	avg_time[23] 	0.00492884324
scalar tree_4_3_u02_r15_network.client[24] 	hdistance[24] 	3.2152048763969
scalar tree_4_3_u02_r15_network.client[24] 	downloads[24] 	11812
scalar tree_4_3_u02_r15_network.client[24] 	avg_time[24] 	0.005158810456
scalar tree_4_3_u02_r15_network.client[25] 	hdistance[25] 	3.1496389741887
scalar tree_4_3_u02_r15_network.client[25] 	downloads[25] 	12049
scalar tree_4_3_u02_r15_network.client[25] 	avg_time[25] 	0.004934016445
scalar tree_4_3_u02_r15_network.client[26] 	hdistance[26] 	3.1801467557094
scalar tree_4_3_u02_r15_network.client[26] 	downloads[26] 	12129
scalar tree_4_3_u02_r15_network.client[26] 	avg_time[26] 	0.004990295767
scalar tree_4_3_u02_r15_network.client[27] 	hdistance[27] 	3.0589112602535
scalar tree_4_3_u02_r15_network.client[27] 	downloads[27] 	12069
scalar tree_4_3_u02_r15_network.client[27] 	avg_time[27] 	0.004752842448
scalar tree_4_3_u02_r15_network.client[28] 	hdistance[28] 	3.1594617325483
scalar tree_4_3_u02_r15_network.client[28] 	downloads[28] 	11890
scalar tree_4_3_u02_r15_network.client[28] 	avg_time[28] 	0.004952999228
scalar tree_4_3_u02_r15_network.client[29] 	hdistance[29] 	3.1491486574984
scalar tree_4_3_u02_r15_network.client[29] 	downloads[29] 	12216
scalar tree_4_3_u02_r15_network.client[29] 	avg_time[29] 	0.004937891615
scalar tree_4_3_u02_r15_network.client[30] 	hdistance[30] 	3.1649786557295
scalar tree_4_3_u02_r15_network.client[30] 	downloads[30] 	11947
scalar tree_4_3_u02_r15_network.client[30] 	avg_time[30] 	0.004956722566
scalar tree_4_3_u02_r15_network.client[31] 	hdistance[31] 	3.1510416666667
scalar tree_4_3_u02_r15_network.client[31] 	downloads[31] 	11904
scalar tree_4_3_u02_r15_network.client[31] 	avg_time[31] 	0.004931120042
scalar tree_4_3_u02_r15_network.client[32] 	hdistance[32] 	3.1783391061924
scalar tree_4_3_u02_r15_network.client[32] 	downloads[32] 	11837
scalar tree_4_3_u02_r15_network.client[32] 	avg_time[32] 	0.004970175295
scalar tree_4_3_u02_r15_network.client[33] 	hdistance[33] 	3.1521209575808
scalar tree_4_3_u02_r15_network.client[33] 	downloads[33] 	11905
scalar tree_4_3_u02_r15_network.client[33] 	avg_time[33] 	0.004933554392
scalar tree_4_3_u02_r15_network.client[34] 	hdistance[34] 	3.2098295548569
scalar tree_4_3_u02_r15_network.client[34] 	downloads[34] 	12086
scalar tree_4_3_u02_r15_network.client[34] 	avg_time[34] 	0.005045559092
scalar tree_4_3_u02_r15_network.client[35] 	hdistance[35] 	3.1995921488657
scalar tree_4_3_u02_r15_network.client[35] 	downloads[35] 	11769
scalar tree_4_3_u02_r15_network.client[35] 	avg_time[35] 	0.005030785475
scalar tree_4_3_u02_r15_network.client[36] 	hdistance[36] 	3.2048975512244
scalar tree_4_3_u02_r15_network.client[36] 	downloads[36] 	12006
scalar tree_4_3_u02_r15_network.client[36] 	avg_time[36] 	0.005041299352
scalar tree_4_3_u02_r15_network.client[37] 	hdistance[37] 	3.0679757051335
scalar tree_4_3_u02_r15_network.client[37] 	downloads[37] 	12019
scalar tree_4_3_u02_r15_network.client[37] 	avg_time[37] 	0.004766128429
scalar tree_4_3_u02_r15_network.client[38] 	hdistance[38] 	3.1952017448201
scalar tree_4_3_u02_r15_network.client[38] 	downloads[38] 	11921
scalar tree_4_3_u02_r15_network.client[38] 	avg_time[38] 	0.005014844788
scalar tree_4_3_u02_r15_network.client[39] 	hdistance[39] 	3.1901006711409
scalar tree_4_3_u02_r15_network.client[39] 	downloads[39] 	11920
scalar tree_4_3_u02_r15_network.client[39] 	avg_time[39] 	0.005008386305
