version 2
run General-45-20160818-18:48:56-19481
attr a 0.9
attr cd lce
attr configname General
attr cr lru
attr datetime 20160818-18:48:56
attr experiment General
attr fsize 1
attr inifile hw5115/scenario_A/EdgeCoop.ini
attr iterationvars "$name=tree_4_3, $un=02, $rep=6, $scenario=Edge, $cd=lce, $cr=lru, $fsize=1, $a=0.9, $sl=nrr, $ttl=1000, $variance=0.05"
attr iterationvars2 "$name=tree_4_3, $un=02, $rep=6, $scenario=Edge, $cd=lce, $cr=lru, $fsize=1, $a=0.9, $sl=nrr, $ttl=1000, $variance=0.05, $repetition=0"
attr measurement "$name=tree_4_3, $un=02, $rep=6, $scenario=Edge, $cd=lce, $cr=lru, $fsize=1, $a=0.9, $sl=nrr, $ttl=1000, $variance=0.05"
attr name tree_4_3
attr network networks.${name}_u${un}_r${rep}_network
attr processid 19481
attr rep 6
attr repetition 0
attr replication #0
attr resultdir results
attr runnumber 45
attr scenario Edge
attr seedset 6
attr sl nrr
attr ttl 1000
attr un 02
attr variance 0.05

scalar . 	a 	0.9
scalar . 	fsize 	1
scalar . 	rep 	6
scalar . 	ttl 	1000
scalar . 	un 	02
scalar . 	variance 	0.05
scalar tree_4_3_u02_r6_network.content_distribution 	repo-0 	0
scalar tree_4_3_u02_r6_network.content_distribution 	client-0 	13
scalar tree_4_3_u02_r6_network.content_distribution 	client-1 	14
scalar tree_4_3_u02_r6_network.content_distribution 	client-2 	15
scalar tree_4_3_u02_r6_network.content_distribution 	client-3 	16
scalar tree_4_3_u02_r6_network.content_distribution 	client-4 	17
scalar tree_4_3_u02_r6_network.content_distribution 	client-5 	18
scalar tree_4_3_u02_r6_network.content_distribution 	client-6 	19
scalar tree_4_3_u02_r6_network.content_distribution 	client-7 	20
scalar tree_4_3_u02_r6_network.content_distribution 	client-8 	21
scalar tree_4_3_u02_r6_network.content_distribution 	client-9 	22
scalar tree_4_3_u02_r6_network.content_distribution 	client-10 	23
scalar tree_4_3_u02_r6_network.content_distribution 	client-11 	24
scalar tree_4_3_u02_r6_network.content_distribution 	client-12 	25
scalar tree_4_3_u02_r6_network.content_distribution 	client-13 	26
scalar tree_4_3_u02_r6_network.content_distribution 	client-14 	27
scalar tree_4_3_u02_r6_network.content_distribution 	client-15 	28
scalar tree_4_3_u02_r6_network.content_distribution 	client-16 	29
scalar tree_4_3_u02_r6_network.content_distribution 	client-17 	30
scalar tree_4_3_u02_r6_network.content_distribution 	client-18 	31
scalar tree_4_3_u02_r6_network.content_distribution 	client-19 	32
scalar tree_4_3_u02_r6_network.content_distribution 	client-20 	33
scalar tree_4_3_u02_r6_network.content_distribution 	client-21 	34
scalar tree_4_3_u02_r6_network.content_distribution 	client-22 	35
scalar tree_4_3_u02_r6_network.content_distribution 	client-23 	36
scalar tree_4_3_u02_r6_network.content_distribution 	client-24 	37
scalar tree_4_3_u02_r6_network.content_distribution 	client-25 	38
scalar tree_4_3_u02_r6_network.content_distribution 	client-26 	39
scalar tree_4_3_u02_r6_network.content_distribution 	repo-0_card 	100000
scalar tree_4_3_u02_r6_network.content_distribution 	repo-0_price 	0
scalar tree_4_3_u02_r6_network.statistics 	stabilization_time 	338.2
scalar tree_4_3_u02_r6_network.statistics 	p_hit 	0.18987558925722
scalar tree_4_3_u02_r6_network.statistics 	interests 	28255.15
scalar tree_4_3_u02_r6_network.statistics 	data 	20169.15
scalar tree_4_3_u02_r6_network.statistics 	hdistance 	3.1656252845479
scalar tree_4_3_u02_r6_network.statistics 	avg_time 	0.004988877895
scalar tree_4_3_u02_r6_network.statistics 	downloads 	323417
scalar tree_4_3_u02_r6_network.statistics 	total_cost 	0
scalar tree_4_3_u02_r6_network.statistics 	total_replicas 	100000
scalar tree_4_3_u02_r6_network.statistics 	inner_hit 	0.3288726319272
scalar tree_4_3_u02_r6_network.node[0].core_layer 	interests[0] 	217054
scalar tree_4_3_u02_r6_network.node[0].core_layer 	repo_load[0] 	217054
scalar tree_4_3_u02_r6_network.node[0].core_layer 	data[0] 	0
scalar tree_4_3_u02_r6_network.node[0].core_layer 	repo_int[0] 	217054
scalar tree_4_3_u02_r6_network.node[0].content_store 	p_hit[0] 	0
scalar tree_4_3_u02_r6_network.node[0].content_store 	hits[0] 	0
scalar tree_4_3_u02_r6_network.node[0].content_store 	misses[0] 	217054
scalar tree_4_3_u02_r6_network.node[0].content_store 	decision_yes[0] 	0
scalar tree_4_3_u02_r6_network.node[0].content_store 	decision_no[0] 	217054
scalar tree_4_3_u02_r6_network.node[0].content_store 	decision_ratio[0] 	0
scalar tree_4_3_u02_r6_network.node[1].core_layer 	interests[1] 	79282
scalar tree_4_3_u02_r6_network.node[1].core_layer 	data[1] 	79282
scalar tree_4_3_u02_r6_network.node[1].content_store 	p_hit[1] 	0
scalar tree_4_3_u02_r6_network.node[1].content_store 	hits[1] 	0
scalar tree_4_3_u02_r6_network.node[1].content_store 	misses[1] 	79282
scalar tree_4_3_u02_r6_network.node[1].content_store 	decision_yes[1] 	0
scalar tree_4_3_u02_r6_network.node[1].content_store 	decision_no[1] 	79274
scalar tree_4_3_u02_r6_network.node[1].content_store 	decision_ratio[1] 	0
scalar tree_4_3_u02_r6_network.node[2].core_layer 	interests[2] 	80784
scalar tree_4_3_u02_r6_network.node[2].core_layer 	data[2] 	80780
scalar tree_4_3_u02_r6_network.node[2].content_store 	p_hit[2] 	0
scalar tree_4_3_u02_r6_network.node[2].content_store 	hits[2] 	0
scalar tree_4_3_u02_r6_network.node[2].content_store 	misses[2] 	80784
scalar tree_4_3_u02_r6_network.node[2].content_store 	decision_yes[2] 	0
scalar tree_4_3_u02_r6_network.node[2].content_store 	decision_no[2] 	80773
scalar tree_4_3_u02_r6_network.node[2].content_store 	decision_ratio[2] 	0
scalar tree_4_3_u02_r6_network.node[3].core_layer 	interests[3] 	81624
scalar tree_4_3_u02_r6_network.node[3].core_layer 	data[3] 	81623
scalar tree_4_3_u02_r6_network.node[3].content_store 	p_hit[3] 	0
scalar tree_4_3_u02_r6_network.node[3].content_store 	hits[3] 	0
scalar tree_4_3_u02_r6_network.node[3].content_store 	misses[3] 	81624
scalar tree_4_3_u02_r6_network.node[3].content_store 	decision_yes[3] 	0
scalar tree_4_3_u02_r6_network.node[3].content_store 	decision_no[3] 	81622
scalar tree_4_3_u02_r6_network.node[3].content_store 	decision_ratio[3] 	0
scalar tree_4_3_u02_r6_network.node[4].core_layer 	interests[4] 	32174
scalar tree_4_3_u02_r6_network.node[4].core_layer 	data[4] 	32173
scalar tree_4_3_u02_r6_network.node[4].content_store 	p_hit[4] 	0
scalar tree_4_3_u02_r6_network.node[4].content_store 	hits[4] 	0
scalar tree_4_3_u02_r6_network.node[4].content_store 	misses[4] 	32174
scalar tree_4_3_u02_r6_network.node[4].content_store 	decision_yes[4] 	0
scalar tree_4_3_u02_r6_network.node[4].content_store 	decision_no[4] 	32170
scalar tree_4_3_u02_r6_network.node[4].content_store 	decision_ratio[4] 	0
scalar tree_4_3_u02_r6_network.node[5].core_layer 	interests[5] 	32090
scalar tree_4_3_u02_r6_network.node[5].core_layer 	data[5] 	32089
scalar tree_4_3_u02_r6_network.node[5].content_store 	p_hit[5] 	0
scalar tree_4_3_u02_r6_network.node[5].content_store 	hits[5] 	0
scalar tree_4_3_u02_r6_network.node[5].content_store 	misses[5] 	32090
scalar tree_4_3_u02_r6_network.node[5].content_store 	decision_yes[5] 	0
scalar tree_4_3_u02_r6_network.node[5].content_store 	decision_no[5] 	32083
scalar tree_4_3_u02_r6_network.node[5].content_store 	decision_ratio[5] 	0
scalar tree_4_3_u02_r6_network.node[6].core_layer 	interests[6] 	36615
scalar tree_4_3_u02_r6_network.node[6].core_layer 	data[6] 	36611
scalar tree_4_3_u02_r6_network.node[6].content_store 	p_hit[6] 	0
scalar tree_4_3_u02_r6_network.node[6].content_store 	hits[6] 	0
scalar tree_4_3_u02_r6_network.node[6].content_store 	misses[6] 	36615
scalar tree_4_3_u02_r6_network.node[6].content_store 	decision_yes[6] 	0
scalar tree_4_3_u02_r6_network.node[6].content_store 	decision_no[6] 	36605
scalar tree_4_3_u02_r6_network.node[6].content_store 	decision_ratio[6] 	0
scalar tree_4_3_u02_r6_network.node[7].core_layer 	interests[7] 	32297
scalar tree_4_3_u02_r6_network.node[7].core_layer 	data[7] 	32296
scalar tree_4_3_u02_r6_network.node[7].content_store 	p_hit[7] 	0
scalar tree_4_3_u02_r6_network.node[7].content_store 	hits[7] 	0
scalar tree_4_3_u02_r6_network.node[7].content_store 	misses[7] 	32297
scalar tree_4_3_u02_r6_network.node[7].content_store 	decision_yes[7] 	0
scalar tree_4_3_u02_r6_network.node[7].content_store 	decision_no[7] 	32293
scalar tree_4_3_u02_r6_network.node[7].content_store 	decision_ratio[7] 	0
scalar tree_4_3_u02_r6_network.node[8].core_layer 	interests[8] 	31117
scalar tree_4_3_u02_r6_network.node[8].core_layer 	data[8] 	31115
scalar tree_4_3_u02_r6_network.node[8].content_store 	p_hit[8] 	0
scalar tree_4_3_u02_r6_network.node[8].content_store 	hits[8] 	0
scalar tree_4_3_u02_r6_network.node[8].content_store 	misses[8] 	31117
scalar tree_4_3_u02_r6_network.node[8].content_store 	decision_yes[8] 	0
scalar tree_4_3_u02_r6_network.node[8].content_store 	decision_no[8] 	31114
scalar tree_4_3_u02_r6_network.node[8].content_store 	decision_ratio[8] 	0
scalar tree_4_3_u02_r6_network.node[9].core_layer 	interests[9] 	33502
scalar tree_4_3_u02_r6_network.node[9].core_layer 	data[9] 	33497
scalar tree_4_3_u02_r6_network.node[9].content_store 	p_hit[9] 	0
scalar tree_4_3_u02_r6_network.node[9].content_store 	hits[9] 	0
scalar tree_4_3_u02_r6_network.node[9].content_store 	misses[9] 	33502
scalar tree_4_3_u02_r6_network.node[9].content_store 	decision_yes[9] 	0
scalar tree_4_3_u02_r6_network.node[9].content_store 	decision_no[9] 	33491
scalar tree_4_3_u02_r6_network.node[9].content_store 	decision_ratio[9] 	0
scalar tree_4_3_u02_r6_network.node[10].core_layer 	interests[10] 	41439
scalar tree_4_3_u02_r6_network.node[10].core_layer 	data[10] 	41434
scalar tree_4_3_u02_r6_network.node[10].content_store 	p_hit[10] 	0
scalar tree_4_3_u02_r6_network.node[10].content_store 	hits[10] 	0
scalar tree_4_3_u02_r6_network.node[10].content_store 	misses[10] 	41439
scalar tree_4_3_u02_r6_network.node[10].content_store 	decision_yes[10] 	0
scalar tree_4_3_u02_r6_network.node[10].content_store 	decision_no[10] 	41433
scalar tree_4_3_u02_r6_network.node[10].content_store 	decision_ratio[10] 	0
scalar tree_4_3_u02_r6_network.node[11].core_layer 	interests[11] 	31436
scalar tree_4_3_u02_r6_network.node[11].core_layer 	data[11] 	31435
scalar tree_4_3_u02_r6_network.node[11].content_store 	p_hit[11] 	0
scalar tree_4_3_u02_r6_network.node[11].content_store 	hits[11] 	0
scalar tree_4_3_u02_r6_network.node[11].content_store 	misses[11] 	31436
scalar tree_4_3_u02_r6_network.node[11].content_store 	decision_yes[11] 	0
scalar tree_4_3_u02_r6_network.node[11].content_store 	decision_no[11] 	31433
scalar tree_4_3_u02_r6_network.node[11].content_store 	decision_ratio[11] 	0
scalar tree_4_3_u02_r6_network.node[12].core_layer 	interests[12] 	24197
scalar tree_4_3_u02_r6_network.node[12].core_layer 	data[12] 	24195
scalar tree_4_3_u02_r6_network.node[12].content_store 	p_hit[12] 	0
scalar tree_4_3_u02_r6_network.node[12].content_store 	hits[12] 	0
scalar tree_4_3_u02_r6_network.node[12].content_store 	misses[12] 	24197
scalar tree_4_3_u02_r6_network.node[12].content_store 	decision_yes[12] 	0
scalar tree_4_3_u02_r6_network.node[12].content_store 	decision_no[12] 	24192
scalar tree_4_3_u02_r6_network.node[12].content_store 	decision_ratio[12] 	0
scalar tree_4_3_u02_r6_network.node[13].core_layer 	interests[13] 	13688
scalar tree_4_3_u02_r6_network.node[13].core_layer 	data[13] 	10053
scalar tree_4_3_u02_r6_network.node[13].content_store 	p_hit[13] 	0.26534190531853
scalar tree_4_3_u02_r6_network.node[13].content_store 	hits[13] 	3632
scalar tree_4_3_u02_r6_network.node[13].content_store 	misses[13] 	10056
scalar tree_4_3_u02_r6_network.node[13].content_store 	decision_yes[13] 	10053
scalar tree_4_3_u02_r6_network.node[13].content_store 	decision_no[13] 	0
scalar tree_4_3_u02_r6_network.node[13].content_store 	decision_ratio[13] 	1
scalar tree_4_3_u02_r6_network.node[14].core_layer 	interests[14] 	13415
scalar tree_4_3_u02_r6_network.node[14].core_layer 	data[14] 	9775
scalar tree_4_3_u02_r6_network.node[14].content_store 	p_hit[14] 	0.2713380544167
scalar tree_4_3_u02_r6_network.node[14].content_store 	hits[14] 	3640
scalar tree_4_3_u02_r6_network.node[14].content_store 	misses[14] 	9775
scalar tree_4_3_u02_r6_network.node[14].content_store 	decision_yes[14] 	9775
scalar tree_4_3_u02_r6_network.node[14].content_store 	decision_no[14] 	0
scalar tree_4_3_u02_r6_network.node[14].content_store 	decision_ratio[14] 	1
scalar tree_4_3_u02_r6_network.node[15].core_layer 	interests[15] 	13652
scalar tree_4_3_u02_r6_network.node[15].core_layer 	data[15] 	10082
scalar tree_4_3_u02_r6_network.node[15].content_store 	p_hit[15] 	0.26142689715793
scalar tree_4_3_u02_r6_network.node[15].content_store 	hits[15] 	3569
scalar tree_4_3_u02_r6_network.node[15].content_store 	misses[15] 	10083
scalar tree_4_3_u02_r6_network.node[15].content_store 	decision_yes[15] 	10082
scalar tree_4_3_u02_r6_network.node[15].content_store 	decision_no[15] 	0
scalar tree_4_3_u02_r6_network.node[15].content_store 	decision_ratio[15] 	1
scalar tree_4_3_u02_r6_network.node[16].core_layer 	interests[16] 	13467
scalar tree_4_3_u02_r6_network.node[16].core_layer 	data[16] 	9889
scalar tree_4_3_u02_r6_network.node[16].content_store 	p_hit[16] 	0.26583500408406
scalar tree_4_3_u02_r6_network.node[16].content_store 	hits[16] 	3580
scalar tree_4_3_u02_r6_network.node[16].content_store 	misses[16] 	9887
scalar tree_4_3_u02_r6_network.node[16].content_store 	decision_yes[16] 	9889
scalar tree_4_3_u02_r6_network.node[16].content_store 	decision_no[16] 	0
scalar tree_4_3_u02_r6_network.node[16].content_store 	decision_ratio[16] 	1
scalar tree_4_3_u02_r6_network.node[17].core_layer 	interests[17] 	13475
scalar tree_4_3_u02_r6_network.node[17].core_layer 	data[17] 	9930
scalar tree_4_3_u02_r6_network.node[17].content_store 	p_hit[17] 	0.26300556586271
scalar tree_4_3_u02_r6_network.node[17].content_store 	hits[17] 	3544
scalar tree_4_3_u02_r6_network.node[17].content_store 	misses[17] 	9931
scalar tree_4_3_u02_r6_network.node[17].content_store 	decision_yes[17] 	9930
scalar tree_4_3_u02_r6_network.node[17].content_store 	decision_no[17] 	0
scalar tree_4_3_u02_r6_network.node[17].content_store 	decision_ratio[17] 	1
scalar tree_4_3_u02_r6_network.node[18].core_layer 	interests[18] 	13559
scalar tree_4_3_u02_r6_network.node[18].core_layer 	data[18] 	9910
scalar tree_4_3_u02_r6_network.node[18].content_store 	p_hit[18] 	0.26912014160336
scalar tree_4_3_u02_r6_network.node[18].content_store 	hits[18] 	3649
scalar tree_4_3_u02_r6_network.node[18].content_store 	misses[18] 	9910
scalar tree_4_3_u02_r6_network.node[18].content_store 	decision_yes[18] 	9910
scalar tree_4_3_u02_r6_network.node[18].content_store 	decision_no[18] 	0
scalar tree_4_3_u02_r6_network.node[18].content_store 	decision_ratio[18] 	1
scalar tree_4_3_u02_r6_network.node[19].core_layer 	interests[19] 	15064
scalar tree_4_3_u02_r6_network.node[19].core_layer 	data[19] 	10095
scalar tree_4_3_u02_r6_network.node[19].content_store 	p_hit[19] 	0.32979288369623
scalar tree_4_3_u02_r6_network.node[19].content_store 	hits[19] 	4968
scalar tree_4_3_u02_r6_network.node[19].content_store 	misses[19] 	10096
scalar tree_4_3_u02_r6_network.node[19].content_store 	decision_yes[19] 	10095
scalar tree_4_3_u02_r6_network.node[19].content_store 	decision_no[19] 	0
scalar tree_4_3_u02_r6_network.node[19].content_store 	decision_ratio[19] 	1
scalar tree_4_3_u02_r6_network.node[20].core_layer 	interests[20] 	15243
scalar tree_4_3_u02_r6_network.node[20].core_layer 	data[20] 	10152
scalar tree_4_3_u02_r6_network.node[20].content_store 	p_hit[20] 	0.33392376828708
scalar tree_4_3_u02_r6_network.node[20].content_store 	hits[20] 	5090
scalar tree_4_3_u02_r6_network.node[20].content_store 	misses[20] 	10153
scalar tree_4_3_u02_r6_network.node[20].content_store 	decision_yes[20] 	10152
scalar tree_4_3_u02_r6_network.node[20].content_store 	decision_no[20] 	0
scalar tree_4_3_u02_r6_network.node[20].content_store 	decision_ratio[20] 	1
scalar tree_4_3_u02_r6_network.node[21].core_layer 	interests[21] 	15012
scalar tree_4_3_u02_r6_network.node[21].core_layer 	data[21] 	9983
scalar tree_4_3_u02_r6_network.node[21].content_store 	p_hit[21] 	0.33493205435651
scalar tree_4_3_u02_r6_network.node[21].content_store 	hits[21] 	5028
scalar tree_4_3_u02_r6_network.node[21].content_store 	misses[21] 	9984
scalar tree_4_3_u02_r6_network.node[21].content_store 	decision_yes[21] 	9983
scalar tree_4_3_u02_r6_network.node[21].content_store 	decision_no[21] 	0
scalar tree_4_3_u02_r6_network.node[21].content_store 	decision_ratio[21] 	1
scalar tree_4_3_u02_r6_network.node[22].core_layer 	interests[22] 	13355
scalar tree_4_3_u02_r6_network.node[22].core_layer 	data[22] 	9830
scalar tree_4_3_u02_r6_network.node[22].content_store 	p_hit[22] 	0.26394608760764
scalar tree_4_3_u02_r6_network.node[22].content_store 	hits[22] 	3525
scalar tree_4_3_u02_r6_network.node[22].content_store 	misses[22] 	9830
scalar tree_4_3_u02_r6_network.node[22].content_store 	decision_yes[22] 	9830
scalar tree_4_3_u02_r6_network.node[22].content_store 	decision_no[22] 	0
scalar tree_4_3_u02_r6_network.node[22].content_store 	decision_ratio[22] 	1
scalar tree_4_3_u02_r6_network.node[23].core_layer 	interests[23] 	13712
scalar tree_4_3_u02_r6_network.node[23].core_layer 	data[23] 	10036
scalar tree_4_3_u02_r6_network.node[23].content_store 	p_hit[23] 	0.26801341890315
scalar tree_4_3_u02_r6_network.node[23].content_store 	hits[23] 	3675
scalar tree_4_3_u02_r6_network.node[23].content_store 	misses[23] 	10037
scalar tree_4_3_u02_r6_network.node[23].content_store 	decision_yes[23] 	10036
scalar tree_4_3_u02_r6_network.node[23].content_store 	decision_no[23] 	0
scalar tree_4_3_u02_r6_network.node[23].content_store 	decision_ratio[23] 	1
scalar tree_4_3_u02_r6_network.node[24].core_layer 	interests[24] 	13717
scalar tree_4_3_u02_r6_network.node[24].core_layer 	data[24] 	10031
scalar tree_4_3_u02_r6_network.node[24].content_store 	p_hit[24] 	0.26864474739374
scalar tree_4_3_u02_r6_network.node[24].content_store 	hits[24] 	3685
scalar tree_4_3_u02_r6_network.node[24].content_store 	misses[24] 	10032
scalar tree_4_3_u02_r6_network.node[24].content_store 	decision_yes[24] 	10031
scalar tree_4_3_u02_r6_network.node[24].content_store 	decision_no[24] 	0
scalar tree_4_3_u02_r6_network.node[24].content_store 	decision_ratio[24] 	1
scalar tree_4_3_u02_r6_network.node[25].core_layer 	interests[25] 	13426
scalar tree_4_3_u02_r6_network.node[25].core_layer 	data[25] 	9873
scalar tree_4_3_u02_r6_network.node[25].content_store 	p_hit[25] 	0.26456129897214
scalar tree_4_3_u02_r6_network.node[25].content_store 	hits[25] 	3552
scalar tree_4_3_u02_r6_network.node[25].content_store 	misses[25] 	9874
scalar tree_4_3_u02_r6_network.node[25].content_store 	decision_yes[25] 	9873
scalar tree_4_3_u02_r6_network.node[25].content_store 	decision_no[25] 	0
scalar tree_4_3_u02_r6_network.node[25].content_store 	decision_ratio[25] 	1
scalar tree_4_3_u02_r6_network.node[26].core_layer 	interests[26] 	13348
scalar tree_4_3_u02_r6_network.node[26].core_layer 	data[26] 	9920
scalar tree_4_3_u02_r6_network.node[26].content_store 	p_hit[26] 	0.25681750074918
scalar tree_4_3_u02_r6_network.node[26].content_store 	hits[26] 	3428
scalar tree_4_3_u02_r6_network.node[26].content_store 	misses[26] 	9920
scalar tree_4_3_u02_r6_network.node[26].content_store 	decision_yes[26] 	9920
scalar tree_4_3_u02_r6_network.node[26].content_store 	decision_no[26] 	0
scalar tree_4_3_u02_r6_network.node[26].content_store 	decision_ratio[26] 	1
scalar tree_4_3_u02_r6_network.node[27].core_layer 	interests[27] 	14664
scalar tree_4_3_u02_r6_network.node[27].core_layer 	data[27] 	10001
scalar tree_4_3_u02_r6_network.node[27].content_store 	p_hit[27] 	0.317989634479
scalar tree_4_3_u02_r6_network.node[27].content_store 	hits[27] 	4663
scalar tree_4_3_u02_r6_network.node[27].content_store 	misses[27] 	10001
scalar tree_4_3_u02_r6_network.node[27].content_store 	decision_yes[27] 	10001
scalar tree_4_3_u02_r6_network.node[27].content_store 	decision_no[27] 	0
scalar tree_4_3_u02_r6_network.node[27].content_store 	decision_ratio[27] 	1
scalar tree_4_3_u02_r6_network.node[28].core_layer 	interests[28] 	13952
scalar tree_4_3_u02_r6_network.node[28].core_layer 	data[28] 	10134
scalar tree_4_3_u02_r6_network.node[28].content_store 	p_hit[28] 	0.27358084862385
scalar tree_4_3_u02_r6_network.node[28].content_store 	hits[28] 	3817
scalar tree_4_3_u02_r6_network.node[28].content_store 	misses[28] 	10135
scalar tree_4_3_u02_r6_network.node[28].content_store 	decision_yes[28] 	10134
scalar tree_4_3_u02_r6_network.node[28].content_store 	decision_no[28] 	0
scalar tree_4_3_u02_r6_network.node[28].content_store 	decision_ratio[28] 	1
scalar tree_4_3_u02_r6_network.node[29].core_layer 	interests[29] 	13814
scalar tree_4_3_u02_r6_network.node[29].core_layer 	data[29] 	10007
scalar tree_4_3_u02_r6_network.node[29].content_store 	p_hit[29] 	0.27551759084986
scalar tree_4_3_u02_r6_network.node[29].content_store 	hits[29] 	3806
scalar tree_4_3_u02_r6_network.node[29].content_store 	misses[29] 	10008
scalar tree_4_3_u02_r6_network.node[29].content_store 	decision_yes[29] 	10007
scalar tree_4_3_u02_r6_network.node[29].content_store 	decision_no[29] 	0
scalar tree_4_3_u02_r6_network.node[29].content_store 	decision_ratio[29] 	1
scalar tree_4_3_u02_r6_network.node[30].core_layer 	interests[30] 	13932
scalar tree_4_3_u02_r6_network.node[30].core_layer 	data[30] 	10218
scalar tree_4_3_u02_r6_network.node[30].content_store 	p_hit[30] 	0.26650875681883
scalar tree_4_3_u02_r6_network.node[30].content_store 	hits[30] 	3713
scalar tree_4_3_u02_r6_network.node[30].content_store 	misses[30] 	10219
scalar tree_4_3_u02_r6_network.node[30].content_store 	decision_yes[30] 	10218
scalar tree_4_3_u02_r6_network.node[30].content_store 	decision_no[30] 	0
scalar tree_4_3_u02_r6_network.node[30].content_store 	decision_ratio[30] 	1
scalar tree_4_3_u02_r6_network.node[31].core_layer 	interests[31] 	13571
scalar tree_4_3_u02_r6_network.node[31].core_layer 	data[31] 	10017
scalar tree_4_3_u02_r6_network.node[31].content_store 	p_hit[31] 	0.2618082676295
scalar tree_4_3_u02_r6_network.node[31].content_store 	hits[31] 	3553
scalar tree_4_3_u02_r6_network.node[31].content_store 	misses[31] 	10018
scalar tree_4_3_u02_r6_network.node[31].content_store 	decision_yes[31] 	10017
scalar tree_4_3_u02_r6_network.node[31].content_store 	decision_no[31] 	0
scalar tree_4_3_u02_r6_network.node[31].content_store 	decision_ratio[31] 	1
scalar tree_4_3_u02_r6_network.node[32].core_layer 	interests[32] 	13703
scalar tree_4_3_u02_r6_network.node[32].core_layer 	data[32] 	10079
scalar tree_4_3_u02_r6_network.node[32].content_store 	p_hit[32] 	0.26432168138364
scalar tree_4_3_u02_r6_network.node[32].content_store 	hits[32] 	3622
scalar tree_4_3_u02_r6_network.node[32].content_store 	misses[32] 	10081
scalar tree_4_3_u02_r6_network.node[32].content_store 	decision_yes[32] 	10079
scalar tree_4_3_u02_r6_network.node[32].content_store 	decision_no[32] 	0
scalar tree_4_3_u02_r6_network.node[32].content_store 	decision_ratio[32] 	1
scalar tree_4_3_u02_r6_network.node[33].core_layer 	interests[33] 	14618
scalar tree_4_3_u02_r6_network.node[33].core_layer 	data[33] 	10008
scalar tree_4_3_u02_r6_network.node[33].content_store 	p_hit[33] 	0.31522780134081
scalar tree_4_3_u02_r6_network.node[33].content_store 	hits[33] 	4608
scalar tree_4_3_u02_r6_network.node[33].content_store 	misses[33] 	10010
scalar tree_4_3_u02_r6_network.node[33].content_store 	decision_yes[33] 	10008
scalar tree_4_3_u02_r6_network.node[33].content_store 	decision_no[33] 	0
scalar tree_4_3_u02_r6_network.node[33].content_store 	decision_ratio[33] 	1
scalar tree_4_3_u02_r6_network.node[34].core_layer 	interests[34] 	13549
scalar tree_4_3_u02_r6_network.node[34].core_layer 	data[34] 	10172
scalar tree_4_3_u02_r6_network.node[34].content_store 	p_hit[34] 	0.24916968041922
scalar tree_4_3_u02_r6_network.node[34].content_store 	hits[34] 	3376
scalar tree_4_3_u02_r6_network.node[34].content_store 	misses[34] 	10173
scalar tree_4_3_u02_r6_network.node[34].content_store 	decision_yes[34] 	10172
scalar tree_4_3_u02_r6_network.node[34].content_store 	decision_no[34] 	0
scalar tree_4_3_u02_r6_network.node[34].content_store 	decision_ratio[34] 	1
scalar tree_4_3_u02_r6_network.node[35].core_layer 	interests[35] 	13579
scalar tree_4_3_u02_r6_network.node[35].core_layer 	data[35] 	9999
scalar tree_4_3_u02_r6_network.node[35].content_store 	p_hit[35] 	0.26364238898299
scalar tree_4_3_u02_r6_network.node[35].content_store 	hits[35] 	3580
scalar tree_4_3_u02_r6_network.node[35].content_store 	misses[35] 	9999
scalar tree_4_3_u02_r6_network.node[35].content_store 	decision_yes[35] 	9999
scalar tree_4_3_u02_r6_network.node[35].content_store 	decision_no[35] 	0
scalar tree_4_3_u02_r6_network.node[35].content_store 	decision_ratio[35] 	1
scalar tree_4_3_u02_r6_network.node[36].core_layer 	interests[36] 	14773
scalar tree_4_3_u02_r6_network.node[36].core_layer 	data[36] 	9970
scalar tree_4_3_u02_r6_network.node[36].content_store 	p_hit[36] 	0.32505246056996
scalar tree_4_3_u02_r6_network.node[36].content_store 	hits[36] 	4802
scalar tree_4_3_u02_r6_network.node[36].content_store 	misses[36] 	9971
scalar tree_4_3_u02_r6_network.node[36].content_store 	decision_yes[36] 	9970
scalar tree_4_3_u02_r6_network.node[36].content_store 	decision_no[36] 	0
scalar tree_4_3_u02_r6_network.node[36].content_store 	decision_ratio[36] 	1
scalar tree_4_3_u02_r6_network.node[37].core_layer 	interests[37] 	14684
scalar tree_4_3_u02_r6_network.node[37].core_layer 	data[37] 	10024
scalar tree_4_3_u02_r6_network.node[37].content_store 	p_hit[37] 	0.31721601743394
scalar tree_4_3_u02_r6_network.node[37].content_store 	hits[37] 	4658
scalar tree_4_3_u02_r6_network.node[37].content_store 	misses[37] 	10026
scalar tree_4_3_u02_r6_network.node[37].content_store 	decision_yes[37] 	10024
scalar tree_4_3_u02_r6_network.node[37].content_store 	decision_no[37] 	0
scalar tree_4_3_u02_r6_network.node[37].content_store 	decision_ratio[37] 	1
scalar tree_4_3_u02_r6_network.node[38].core_layer 	interests[38] 	13759
scalar tree_4_3_u02_r6_network.node[38].core_layer 	data[38] 	10027
scalar tree_4_3_u02_r6_network.node[38].content_store 	p_hit[38] 	0.27124064248855
scalar tree_4_3_u02_r6_network.node[38].content_store 	hits[38] 	3732
scalar tree_4_3_u02_r6_network.node[38].content_store 	misses[38] 	10027
scalar tree_4_3_u02_r6_network.node[38].content_store 	decision_yes[38] 	10027
scalar tree_4_3_u02_r6_network.node[38].content_store 	decision_no[38] 	0
scalar tree_4_3_u02_r6_network.node[38].content_store 	decision_ratio[38] 	1
scalar tree_4_3_u02_r6_network.node[39].core_layer 	interests[39] 	13864
scalar tree_4_3_u02_r6_network.node[39].core_layer 	data[39] 	10021
scalar tree_4_3_u02_r6_network.node[39].content_store 	p_hit[39] 	0.27704847085978
scalar tree_4_3_u02_r6_network.node[39].content_store 	hits[39] 	3841
scalar tree_4_3_u02_r6_network.node[39].content_store 	misses[39] 	10023
scalar tree_4_3_u02_r6_network.node[39].content_store 	decision_yes[39] 	10021
scalar tree_4_3_u02_r6_network.node[39].content_store 	decision_no[39] 	0
scalar tree_4_3_u02_r6_network.node[39].content_store 	decision_ratio[39] 	1
scalar tree_4_3_u02_r6_network.client[13] 	hdistance[13] 	3.187856729258
scalar tree_4_3_u02_r6_network.client[13] 	downloads[13] 	12089
scalar tree_4_3_u02_r6_network.client[13] 	avg_time[13] 	0.005018146767
scalar tree_4_3_u02_r6_network.client[14] 	hdistance[14] 	3.1826146125712
scalar tree_4_3_u02_r6_network.client[14] 	downloads[14] 	11757
scalar tree_4_3_u02_r6_network.client[14] 	avg_time[14] 	0.005003271704
scalar tree_4_3_u02_r6_network.client[15] 	hdistance[15] 	3.1911265623707
scalar tree_4_3_u02_r6_network.client[15] 	downloads[15] 	12081
scalar tree_4_3_u02_r6_network.client[15] 	avg_time[15] 	0.005027167213
scalar tree_4_3_u02_r6_network.client[16] 	hdistance[16] 	3.1974704890388
scalar tree_4_3_u02_r6_network.client[16] 	downloads[16] 	11860
scalar tree_4_3_u02_r6_network.client[16] 	avg_time[16] 	0.005020813297
scalar tree_4_3_u02_r6_network.client[17] 	hdistance[17] 	3.1871065222866
scalar tree_4_3_u02_r6_network.client[17] 	downloads[17] 	11913
scalar tree_4_3_u02_r6_network.client[17] 	avg_time[17] 	0.005019048703
scalar tree_4_3_u02_r6_network.client[18] 	hdistance[18] 	3.2023257773658
scalar tree_4_3_u02_r6_network.client[18] 	downloads[18] 	11867
scalar tree_4_3_u02_r6_network.client[18] 	avg_time[18] 	0.005031198161
scalar tree_4_3_u02_r6_network.client[19] 	hdistance[19] 	3.1917467683129
scalar tree_4_3_u02_r6_network.client[19] 	downloads[19] 	12068
scalar tree_4_3_u02_r6_network.client[19] 	avg_time[19] 	0.005127126352
scalar tree_4_3_u02_r6_network.client[20] 	hdistance[20] 	3.1822207643103
scalar tree_4_3_u02_r6_network.client[20] 	downloads[20] 	12194
scalar tree_4_3_u02_r6_network.client[20] 	avg_time[20] 	0.005104114914
scalar tree_4_3_u02_r6_network.client[21] 	hdistance[21] 	3.1887375720612
scalar tree_4_3_u02_r6_network.client[21] 	downloads[21] 	11969
scalar tree_4_3_u02_r6_network.client[21] 	avg_time[21] 	0.005122546375
scalar tree_4_3_u02_r6_network.client[22] 	hdistance[22] 	3.2018419033001
scalar tree_4_3_u02_r6_network.client[22] 	downloads[22] 	11727
scalar tree_4_3_u02_r6_network.client[22] 	avg_time[22] 	0.005029664552
scalar tree_4_3_u02_r6_network.client[23] 	hdistance[23] 	3.2001668056714
scalar tree_4_3_u02_r6_network.client[23] 	downloads[23] 	11990
scalar tree_4_3_u02_r6_network.client[23] 	avg_time[23] 	0.005030707564
scalar tree_4_3_u02_r6_network.client[24] 	hdistance[24] 	3.1884538818845
scalar tree_4_3_u02_r6_network.client[24] 	downloads[24] 	12056
scalar tree_4_3_u02_r6_network.client[24] 	avg_time[24] 	0.005011340733
scalar tree_4_3_u02_r6_network.client[25] 	hdistance[25] 	3.1818642350557
scalar tree_4_3_u02_r6_network.client[25] 	downloads[25] 	11844
scalar tree_4_3_u02_r6_network.client[25] 	avg_time[25] 	0.004991976434
scalar tree_4_3_u02_r6_network.client[26] 	hdistance[26] 	3.211479850999
scalar tree_4_3_u02_r6_network.client[26] 	downloads[26] 	11812
scalar tree_4_3_u02_r6_network.client[26] 	avg_time[26] 	0.005043525419
scalar tree_4_3_u02_r6_network.client[27] 	hdistance[27] 	3.0849825378347
scalar tree_4_3_u02_r6_network.client[27] 	downloads[27] 	12026
scalar tree_4_3_u02_r6_network.client[27] 	avg_time[27] 	0.004804919666
scalar tree_4_3_u02_r6_network.client[28] 	hdistance[28] 	3.1496542640764
scalar tree_4_3_u02_r6_network.client[28] 	downloads[28] 	12148
scalar tree_4_3_u02_r6_network.client[28] 	avg_time[28] 	0.004930542154
scalar tree_4_3_u02_r6_network.client[29] 	hdistance[29] 	3.1463577262877
scalar tree_4_3_u02_r6_network.client[29] 	downloads[29] 	11998
scalar tree_4_3_u02_r6_network.client[29] 	avg_time[29] 	0.004926203693
scalar tree_4_3_u02_r6_network.client[30] 	hdistance[30] 	3.1630425863625
scalar tree_4_3_u02_r6_network.client[30] 	downloads[30] 	12187
scalar tree_4_3_u02_r6_network.client[30] 	avg_time[30] 	0.004943961592
scalar tree_4_3_u02_r6_network.client[31] 	hdistance[31] 	3.1819789473684
scalar tree_4_3_u02_r6_network.client[31] 	downloads[31] 	11875
scalar tree_4_3_u02_r6_network.client[31] 	avg_time[31] 	0.005021497406
scalar tree_4_3_u02_r6_network.client[32] 	hdistance[32] 	3.1691127418279
scalar tree_4_3_u02_r6_network.client[32] 	downloads[32] 	11992
scalar tree_4_3_u02_r6_network.client[32] 	avg_time[32] 	0.005009133408
scalar tree_4_3_u02_r6_network.client[33] 	hdistance[33] 	3.059634551495
scalar tree_4_3_u02_r6_network.client[33] 	downloads[33] 	12040
scalar tree_4_3_u02_r6_network.client[33] 	avg_time[33] 	0.004803232982
scalar tree_4_3_u02_r6_network.client[34] 	hdistance[34] 	3.2400367616342
scalar tree_4_3_u02_r6_network.client[34] 	downloads[34] 	11969
scalar tree_4_3_u02_r6_network.client[34] 	avg_time[34] 	0.005150126547
scalar tree_4_3_u02_r6_network.client[35] 	hdistance[35] 	3.190583521162
scalar tree_4_3_u02_r6_network.client[35] 	downloads[35] 	11979
scalar tree_4_3_u02_r6_network.client[35] 	avg_time[35] 	0.005065766028
scalar tree_4_3_u02_r6_network.client[36] 	hdistance[36] 	3.0679660169915
scalar tree_4_3_u02_r6_network.client[36] 	downloads[36] 	12006
scalar tree_4_3_u02_r6_network.client[36] 	avg_time[36] 	0.004807759781
scalar tree_4_3_u02_r6_network.client[37] 	hdistance[37] 	3.0729521122085
scalar tree_4_3_u02_r6_network.client[37] 	downloads[37] 	12049
scalar tree_4_3_u02_r6_network.client[37] 	avg_time[37] 	0.004811666612
scalar tree_4_3_u02_r6_network.client[38] 	hdistance[38] 	3.1183605186115
scalar tree_4_3_u02_r6_network.client[38] 	downloads[38] 	11955
scalar tree_4_3_u02_r6_network.client[38] 	avg_time[38] 	0.004916600954
scalar tree_4_3_u02_r6_network.client[39] 	hdistance[39] 	3.1322079224469
scalar tree_4_3_u02_r6_network.client[39] 	downloads[39] 	11966
scalar tree_4_3_u02_r6_network.client[39] 	avg_time[39] 	0.004927644166
