version 2
run General-44-20160818-18:48:10-19481
attr a 0.9
attr cd lce
attr configname General
attr cr lru
attr datetime 20160818-18:48:10
attr experiment General
attr fsize 1
attr inifile hw5115/scenario_A/EdgeCoop.ini
attr iterationvars "$name=tree_4_3, $un=02, $rep=5, $scenario=Edge, $cd=lce, $cr=lru, $fsize=1, $a=0.9, $sl=nrr, $ttl=1000, $variance=0.05"
attr iterationvars2 "$name=tree_4_3, $un=02, $rep=5, $scenario=Edge, $cd=lce, $cr=lru, $fsize=1, $a=0.9, $sl=nrr, $ttl=1000, $variance=0.05, $repetition=0"
attr measurement "$name=tree_4_3, $un=02, $rep=5, $scenario=Edge, $cd=lce, $cr=lru, $fsize=1, $a=0.9, $sl=nrr, $ttl=1000, $variance=0.05"
attr name tree_4_3
attr network networks.${name}_u${un}_r${rep}_network
attr processid 19481
attr rep 5
attr repetition 0
attr replication #0
attr resultdir results
attr runnumber 44
attr scenario Edge
attr seedset 5
attr sl nrr
attr ttl 1000
attr un 02
attr variance 0.05

scalar . 	a 	0.9
scalar . 	fsize 	1
scalar . 	rep 	5
scalar . 	ttl 	1000
scalar . 	un 	02
scalar . 	variance 	0.05
scalar tree_4_3_u02_r5_network.content_distribution 	repo-0 	0
scalar tree_4_3_u02_r5_network.content_distribution 	client-0 	13
scalar tree_4_3_u02_r5_network.content_distribution 	client-1 	14
scalar tree_4_3_u02_r5_network.content_distribution 	client-2 	15
scalar tree_4_3_u02_r5_network.content_distribution 	client-3 	16
scalar tree_4_3_u02_r5_network.content_distribution 	client-4 	17
scalar tree_4_3_u02_r5_network.content_distribution 	client-5 	18
scalar tree_4_3_u02_r5_network.content_distribution 	client-6 	19
scalar tree_4_3_u02_r5_network.content_distribution 	client-7 	20
scalar tree_4_3_u02_r5_network.content_distribution 	client-8 	21
scalar tree_4_3_u02_r5_network.content_distribution 	client-9 	22
scalar tree_4_3_u02_r5_network.content_distribution 	client-10 	23
scalar tree_4_3_u02_r5_network.content_distribution 	client-11 	24
scalar tree_4_3_u02_r5_network.content_distribution 	client-12 	25
scalar tree_4_3_u02_r5_network.content_distribution 	client-13 	26
scalar tree_4_3_u02_r5_network.content_distribution 	client-14 	27
scalar tree_4_3_u02_r5_network.content_distribution 	client-15 	28
scalar tree_4_3_u02_r5_network.content_distribution 	client-16 	29
scalar tree_4_3_u02_r5_network.content_distribution 	client-17 	30
scalar tree_4_3_u02_r5_network.content_distribution 	client-18 	31
scalar tree_4_3_u02_r5_network.content_distribution 	client-19 	32
scalar tree_4_3_u02_r5_network.content_distribution 	client-20 	33
scalar tree_4_3_u02_r5_network.content_distribution 	client-21 	34
scalar tree_4_3_u02_r5_network.content_distribution 	client-22 	35
scalar tree_4_3_u02_r5_network.content_distribution 	client-23 	36
scalar tree_4_3_u02_r5_network.content_distribution 	client-24 	37
scalar tree_4_3_u02_r5_network.content_distribution 	client-25 	38
scalar tree_4_3_u02_r5_network.content_distribution 	client-26 	39
scalar tree_4_3_u02_r5_network.content_distribution 	repo-0_card 	100000
scalar tree_4_3_u02_r5_network.content_distribution 	repo-0_price 	0
scalar tree_4_3_u02_r5_network.statistics 	stabilization_time 	335.9
scalar tree_4_3_u02_r5_network.statistics 	p_hit 	0.19082460145089
scalar tree_4_3_u02_r5_network.statistics 	interests 	28304.35
scalar tree_4_3_u02_r5_network.statistics 	data 	20210.5
scalar tree_4_3_u02_r5_network.statistics 	hdistance 	3.1645618162129
scalar tree_4_3_u02_r5_network.statistics 	avg_time 	0.004993822183
scalar tree_4_3_u02_r5_network.statistics 	downloads 	323741
scalar tree_4_3_u02_r5_network.statistics 	total_cost 	0
scalar tree_4_3_u02_r5_network.statistics 	total_replicas 	100000
scalar tree_4_3_u02_r5_network.statistics 	inner_hit 	0.33230576294013
scalar tree_4_3_u02_r5_network.node[0].core_layer 	interests[0] 	216160
scalar tree_4_3_u02_r5_network.node[0].core_layer 	repo_load[0] 	216160
scalar tree_4_3_u02_r5_network.node[0].core_layer 	data[0] 	0
scalar tree_4_3_u02_r5_network.node[0].core_layer 	repo_int[0] 	216160
scalar tree_4_3_u02_r5_network.node[0].content_store 	p_hit[0] 	0
scalar tree_4_3_u02_r5_network.node[0].content_store 	hits[0] 	0
scalar tree_4_3_u02_r5_network.node[0].content_store 	misses[0] 	216160
scalar tree_4_3_u02_r5_network.node[0].content_store 	decision_yes[0] 	0
scalar tree_4_3_u02_r5_network.node[0].content_store 	decision_no[0] 	216160
scalar tree_4_3_u02_r5_network.node[0].content_store 	decision_ratio[0] 	0
scalar tree_4_3_u02_r5_network.node[1].core_layer 	interests[1] 	78326
scalar tree_4_3_u02_r5_network.node[1].core_layer 	data[1] 	78323
scalar tree_4_3_u02_r5_network.node[1].content_store 	p_hit[1] 	0
scalar tree_4_3_u02_r5_network.node[1].content_store 	hits[1] 	0
scalar tree_4_3_u02_r5_network.node[1].content_store 	misses[1] 	78326
scalar tree_4_3_u02_r5_network.node[1].content_store 	decision_yes[1] 	0
scalar tree_4_3_u02_r5_network.node[1].content_store 	decision_no[1] 	78317
scalar tree_4_3_u02_r5_network.node[1].content_store 	decision_ratio[1] 	0
scalar tree_4_3_u02_r5_network.node[2].core_layer 	interests[2] 	116018
scalar tree_4_3_u02_r5_network.node[2].core_layer 	data[2] 	116013
scalar tree_4_3_u02_r5_network.node[2].content_store 	p_hit[2] 	0
scalar tree_4_3_u02_r5_network.node[2].content_store 	hits[2] 	0
scalar tree_4_3_u02_r5_network.node[2].content_store 	misses[2] 	116018
scalar tree_4_3_u02_r5_network.node[2].content_store 	decision_yes[2] 	0
scalar tree_4_3_u02_r5_network.node[2].content_store 	decision_no[2] 	115992
scalar tree_4_3_u02_r5_network.node[2].content_store 	decision_ratio[2] 	0
scalar tree_4_3_u02_r5_network.node[3].core_layer 	interests[3] 	47272
scalar tree_4_3_u02_r5_network.node[3].core_layer 	data[3] 	47271
scalar tree_4_3_u02_r5_network.node[3].content_store 	p_hit[3] 	0
scalar tree_4_3_u02_r5_network.node[3].content_store 	hits[3] 	0
scalar tree_4_3_u02_r5_network.node[3].content_store 	misses[3] 	47272
scalar tree_4_3_u02_r5_network.node[3].content_store 	decision_yes[3] 	0
scalar tree_4_3_u02_r5_network.node[3].content_store 	decision_no[3] 	47265
scalar tree_4_3_u02_r5_network.node[3].content_store 	decision_ratio[3] 	0
scalar tree_4_3_u02_r5_network.node[4].core_layer 	interests[4] 	50643
scalar tree_4_3_u02_r5_network.node[4].core_layer 	data[4] 	50643
scalar tree_4_3_u02_r5_network.node[4].content_store 	p_hit[4] 	0
scalar tree_4_3_u02_r5_network.node[4].content_store 	hits[4] 	0
scalar tree_4_3_u02_r5_network.node[4].content_store 	misses[4] 	50643
scalar tree_4_3_u02_r5_network.node[4].content_store 	decision_yes[4] 	0
scalar tree_4_3_u02_r5_network.node[4].content_store 	decision_no[4] 	50641
scalar tree_4_3_u02_r5_network.node[4].content_store 	decision_ratio[4] 	0
scalar tree_4_3_u02_r5_network.node[5].core_layer 	interests[5] 	31672
scalar tree_4_3_u02_r5_network.node[5].core_layer 	data[5] 	31672
scalar tree_4_3_u02_r5_network.node[5].content_store 	p_hit[5] 	0
scalar tree_4_3_u02_r5_network.node[5].content_store 	hits[5] 	0
scalar tree_4_3_u02_r5_network.node[5].content_store 	misses[5] 	31672
scalar tree_4_3_u02_r5_network.node[5].content_store 	decision_yes[5] 	0
scalar tree_4_3_u02_r5_network.node[5].content_store 	decision_no[5] 	31669
scalar tree_4_3_u02_r5_network.node[5].content_store 	decision_ratio[5] 	0
scalar tree_4_3_u02_r5_network.node[6].core_layer 	interests[6] 	11913
scalar tree_4_3_u02_r5_network.node[6].core_layer 	data[6] 	11912
scalar tree_4_3_u02_r5_network.node[6].content_store 	p_hit[6] 	0
scalar tree_4_3_u02_r5_network.node[6].content_store 	hits[6] 	0
scalar tree_4_3_u02_r5_network.node[6].content_store 	misses[6] 	11913
scalar tree_4_3_u02_r5_network.node[6].content_store 	decision_yes[6] 	0
scalar tree_4_3_u02_r5_network.node[6].content_store 	decision_no[6] 	11910
scalar tree_4_3_u02_r5_network.node[6].content_store 	decision_ratio[6] 	0
scalar tree_4_3_u02_r5_network.node[7].core_layer 	interests[7] 	33237
scalar tree_4_3_u02_r5_network.node[7].core_layer 	data[7] 	33234
scalar tree_4_3_u02_r5_network.node[7].content_store 	p_hit[7] 	0
scalar tree_4_3_u02_r5_network.node[7].content_store 	hits[7] 	0
scalar tree_4_3_u02_r5_network.node[7].content_store 	misses[7] 	33237
scalar tree_4_3_u02_r5_network.node[7].content_store 	decision_yes[7] 	0
scalar tree_4_3_u02_r5_network.node[7].content_store 	decision_no[7] 	33228
scalar tree_4_3_u02_r5_network.node[7].content_store 	decision_ratio[7] 	0
scalar tree_4_3_u02_r5_network.node[8].core_layer 	interests[8] 	33454
scalar tree_4_3_u02_r5_network.node[8].core_layer 	data[8] 	33452
scalar tree_4_3_u02_r5_network.node[8].content_store 	p_hit[8] 	0
scalar tree_4_3_u02_r5_network.node[8].content_store 	hits[8] 	0
scalar tree_4_3_u02_r5_network.node[8].content_store 	misses[8] 	33454
scalar tree_4_3_u02_r5_network.node[8].content_store 	decision_yes[8] 	0
scalar tree_4_3_u02_r5_network.node[8].content_store 	decision_no[8] 	33449
scalar tree_4_3_u02_r5_network.node[8].content_store 	decision_ratio[8] 	0
scalar tree_4_3_u02_r5_network.node[9].core_layer 	interests[9] 	33335
scalar tree_4_3_u02_r5_network.node[9].core_layer 	data[9] 	33333
scalar tree_4_3_u02_r5_network.node[9].content_store 	p_hit[9] 	0
scalar tree_4_3_u02_r5_network.node[9].content_store 	hits[9] 	0
scalar tree_4_3_u02_r5_network.node[9].content_store 	misses[9] 	33335
scalar tree_4_3_u02_r5_network.node[9].content_store 	decision_yes[9] 	0
scalar tree_4_3_u02_r5_network.node[9].content_store 	decision_no[9] 	33324
scalar tree_4_3_u02_r5_network.node[9].content_store 	decision_ratio[9] 	0
scalar tree_4_3_u02_r5_network.node[10].core_layer 	interests[10] 	22807
scalar tree_4_3_u02_r5_network.node[10].core_layer 	data[10] 	22806
scalar tree_4_3_u02_r5_network.node[10].content_store 	p_hit[10] 	0
scalar tree_4_3_u02_r5_network.node[10].content_store 	hits[10] 	0
scalar tree_4_3_u02_r5_network.node[10].content_store 	misses[10] 	22807
scalar tree_4_3_u02_r5_network.node[10].content_store 	decision_yes[10] 	0
scalar tree_4_3_u02_r5_network.node[10].content_store 	decision_no[10] 	22800
scalar tree_4_3_u02_r5_network.node[10].content_store 	decision_ratio[10] 	0
scalar tree_4_3_u02_r5_network.node[11].core_layer 	interests[11] 	47079
scalar tree_4_3_u02_r5_network.node[11].core_layer 	data[11] 	47072
scalar tree_4_3_u02_r5_network.node[11].content_store 	p_hit[11] 	0
scalar tree_4_3_u02_r5_network.node[11].content_store 	hits[11] 	0
scalar tree_4_3_u02_r5_network.node[11].content_store 	misses[11] 	47079
scalar tree_4_3_u02_r5_network.node[11].content_store 	decision_yes[11] 	0
scalar tree_4_3_u02_r5_network.node[11].content_store 	decision_no[11] 	47062
scalar tree_4_3_u02_r5_network.node[11].content_store 	decision_ratio[11] 	0
scalar tree_4_3_u02_r5_network.node[12].core_layer 	interests[12] 	31999
scalar tree_4_3_u02_r5_network.node[12].core_layer 	data[12] 	31997
scalar tree_4_3_u02_r5_network.node[12].content_store 	p_hit[12] 	0
scalar tree_4_3_u02_r5_network.node[12].content_store 	hits[12] 	0
scalar tree_4_3_u02_r5_network.node[12].content_store 	misses[12] 	31999
scalar tree_4_3_u02_r5_network.node[12].content_store 	decision_yes[12] 	0
scalar tree_4_3_u02_r5_network.node[12].content_store 	decision_no[12] 	31996
scalar tree_4_3_u02_r5_network.node[12].content_store 	decision_ratio[12] 	0
scalar tree_4_3_u02_r5_network.node[13].core_layer 	interests[13] 	13601
scalar tree_4_3_u02_r5_network.node[13].core_layer 	data[13] 	10012
scalar tree_4_3_u02_r5_network.node[13].content_store 	p_hit[13] 	0.26380413204911
scalar tree_4_3_u02_r5_network.node[13].content_store 	hits[13] 	3588
scalar tree_4_3_u02_r5_network.node[13].content_store 	misses[13] 	10013
scalar tree_4_3_u02_r5_network.node[13].content_store 	decision_yes[13] 	10012
scalar tree_4_3_u02_r5_network.node[13].content_store 	decision_no[13] 	0
scalar tree_4_3_u02_r5_network.node[13].content_store 	decision_ratio[13] 	1
scalar tree_4_3_u02_r5_network.node[14].core_layer 	interests[14] 	13560
scalar tree_4_3_u02_r5_network.node[14].core_layer 	data[14] 	9981
scalar tree_4_3_u02_r5_network.node[14].content_store 	p_hit[14] 	0.26386430678466
scalar tree_4_3_u02_r5_network.node[14].content_store 	hits[14] 	3578
scalar tree_4_3_u02_r5_network.node[14].content_store 	misses[14] 	9982
scalar tree_4_3_u02_r5_network.node[14].content_store 	decision_yes[14] 	9981
scalar tree_4_3_u02_r5_network.node[14].content_store 	decision_no[14] 	0
scalar tree_4_3_u02_r5_network.node[14].content_store 	decision_ratio[14] 	1
scalar tree_4_3_u02_r5_network.node[15].core_layer 	interests[15] 	13665
scalar tree_4_3_u02_r5_network.node[15].core_layer 	data[15] 	10148
scalar tree_4_3_u02_r5_network.node[15].content_store 	p_hit[15] 	0.25729967069155
scalar tree_4_3_u02_r5_network.node[15].content_store 	hits[15] 	3516
scalar tree_4_3_u02_r5_network.node[15].content_store 	misses[15] 	10149
scalar tree_4_3_u02_r5_network.node[15].content_store 	decision_yes[15] 	10148
scalar tree_4_3_u02_r5_network.node[15].content_store 	decision_no[15] 	0
scalar tree_4_3_u02_r5_network.node[15].content_store 	decision_ratio[15] 	1
scalar tree_4_3_u02_r5_network.node[16].core_layer 	interests[16] 	14644
scalar tree_4_3_u02_r5_network.node[16].core_layer 	data[16] 	9914
scalar tree_4_3_u02_r5_network.node[16].content_store 	p_hit[16] 	0.32293089319858
scalar tree_4_3_u02_r5_network.node[16].content_store 	hits[16] 	4729
scalar tree_4_3_u02_r5_network.node[16].content_store 	misses[16] 	9915
scalar tree_4_3_u02_r5_network.node[16].content_store 	decision_yes[16] 	9914
scalar tree_4_3_u02_r5_network.node[16].content_store 	decision_no[16] 	0
scalar tree_4_3_u02_r5_network.node[16].content_store 	decision_ratio[16] 	1
scalar tree_4_3_u02_r5_network.node[17].core_layer 	interests[17] 	13530
scalar tree_4_3_u02_r5_network.node[17].core_layer 	data[17] 	10117
scalar tree_4_3_u02_r5_network.node[17].content_store 	p_hit[17] 	0.25225424981523
scalar tree_4_3_u02_r5_network.node[17].content_store 	hits[17] 	3413
scalar tree_4_3_u02_r5_network.node[17].content_store 	misses[17] 	10117
scalar tree_4_3_u02_r5_network.node[17].content_store 	decision_yes[17] 	10117
scalar tree_4_3_u02_r5_network.node[17].content_store 	decision_no[17] 	0
scalar tree_4_3_u02_r5_network.node[17].content_store 	decision_ratio[17] 	1
scalar tree_4_3_u02_r5_network.node[18].core_layer 	interests[18] 	13239
scalar tree_4_3_u02_r5_network.node[18].core_layer 	data[18] 	9872
scalar tree_4_3_u02_r5_network.node[18].content_store 	p_hit[18] 	0.25424881033311
scalar tree_4_3_u02_r5_network.node[18].content_store 	hits[18] 	3366
scalar tree_4_3_u02_r5_network.node[18].content_store 	misses[18] 	9873
scalar tree_4_3_u02_r5_network.node[18].content_store 	decision_yes[18] 	9872
scalar tree_4_3_u02_r5_network.node[18].content_store 	decision_no[18] 	0
scalar tree_4_3_u02_r5_network.node[18].content_store 	decision_ratio[18] 	1
scalar tree_4_3_u02_r5_network.node[19].core_layer 	interests[19] 	14192
scalar tree_4_3_u02_r5_network.node[19].core_layer 	data[19] 	9921
scalar tree_4_3_u02_r5_network.node[19].content_store 	p_hit[19] 	0.30080326944758
scalar tree_4_3_u02_r5_network.node[19].content_store 	hits[19] 	4269
scalar tree_4_3_u02_r5_network.node[19].content_store 	misses[19] 	9923
scalar tree_4_3_u02_r5_network.node[19].content_store 	decision_yes[19] 	9921
scalar tree_4_3_u02_r5_network.node[19].content_store 	decision_no[19] 	0
scalar tree_4_3_u02_r5_network.node[19].content_store 	decision_ratio[19] 	1
scalar tree_4_3_u02_r5_network.node[20].core_layer 	interests[20] 	14108
scalar tree_4_3_u02_r5_network.node[20].core_layer 	data[20] 	9991
scalar tree_4_3_u02_r5_network.node[20].content_store 	p_hit[20] 	0.29174936206408
scalar tree_4_3_u02_r5_network.node[20].content_store 	hits[20] 	4116
scalar tree_4_3_u02_r5_network.node[20].content_store 	misses[20] 	9992
scalar tree_4_3_u02_r5_network.node[20].content_store 	decision_yes[20] 	9991
scalar tree_4_3_u02_r5_network.node[20].content_store 	decision_no[20] 	0
scalar tree_4_3_u02_r5_network.node[20].content_store 	decision_ratio[20] 	1
scalar tree_4_3_u02_r5_network.node[21].core_layer 	interests[21] 	13203
scalar tree_4_3_u02_r5_network.node[21].core_layer 	data[21] 	10158
scalar tree_4_3_u02_r5_network.node[21].content_store 	p_hit[21] 	0.23070514277058
scalar tree_4_3_u02_r5_network.node[21].content_store 	hits[21] 	3046
scalar tree_4_3_u02_r5_network.node[21].content_store 	misses[21] 	10157
scalar tree_4_3_u02_r5_network.node[21].content_store 	decision_yes[21] 	10158
scalar tree_4_3_u02_r5_network.node[21].content_store 	decision_no[21] 	0
scalar tree_4_3_u02_r5_network.node[21].content_store 	decision_ratio[21] 	1
scalar tree_4_3_u02_r5_network.node[22].core_layer 	interests[22] 	13968
scalar tree_4_3_u02_r5_network.node[22].core_layer 	data[22] 	10089
scalar tree_4_3_u02_r5_network.node[22].content_store 	p_hit[22] 	0.27770618556701
scalar tree_4_3_u02_r5_network.node[22].content_store 	hits[22] 	3879
scalar tree_4_3_u02_r5_network.node[22].content_store 	misses[22] 	10089
scalar tree_4_3_u02_r5_network.node[22].content_store 	decision_yes[22] 	10089
scalar tree_4_3_u02_r5_network.node[22].content_store 	decision_no[22] 	0
scalar tree_4_3_u02_r5_network.node[22].content_store 	decision_ratio[22] 	1
scalar tree_4_3_u02_r5_network.node[23].core_layer 	interests[23] 	13725
scalar tree_4_3_u02_r5_network.node[23].core_layer 	data[23] 	9890
scalar tree_4_3_u02_r5_network.node[23].content_store 	p_hit[23] 	0.27934426229508
scalar tree_4_3_u02_r5_network.node[23].content_store 	hits[23] 	3834
scalar tree_4_3_u02_r5_network.node[23].content_store 	misses[23] 	9891
scalar tree_4_3_u02_r5_network.node[23].content_store 	decision_yes[23] 	9890
scalar tree_4_3_u02_r5_network.node[23].content_store 	decision_no[23] 	0
scalar tree_4_3_u02_r5_network.node[23].content_store 	decision_ratio[23] 	1
scalar tree_4_3_u02_r5_network.node[24].core_layer 	interests[24] 	14019
scalar tree_4_3_u02_r5_network.node[24].core_layer 	data[24] 	10006
scalar tree_4_3_u02_r5_network.node[24].content_store 	p_hit[24] 	0.28625436907055
scalar tree_4_3_u02_r5_network.node[24].content_store 	hits[24] 	4013
scalar tree_4_3_u02_r5_network.node[24].content_store 	misses[24] 	10006
scalar tree_4_3_u02_r5_network.node[24].content_store 	decision_yes[24] 	10006
scalar tree_4_3_u02_r5_network.node[24].content_store 	decision_no[24] 	0
scalar tree_4_3_u02_r5_network.node[24].content_store 	decision_ratio[24] 	1
scalar tree_4_3_u02_r5_network.node[25].core_layer 	interests[25] 	14077
scalar tree_4_3_u02_r5_network.node[25].core_layer 	data[25] 	10181
scalar tree_4_3_u02_r5_network.node[25].content_store 	p_hit[25] 	0.27676351495347
scalar tree_4_3_u02_r5_network.node[25].content_store 	hits[25] 	3896
scalar tree_4_3_u02_r5_network.node[25].content_store 	misses[25] 	10181
scalar tree_4_3_u02_r5_network.node[25].content_store 	decision_yes[25] 	10181
scalar tree_4_3_u02_r5_network.node[25].content_store 	decision_no[25] 	0
scalar tree_4_3_u02_r5_network.node[25].content_store 	decision_ratio[25] 	1
scalar tree_4_3_u02_r5_network.node[26].core_layer 	interests[26] 	13978
scalar tree_4_3_u02_r5_network.node[26].core_layer 	data[26] 	9997
scalar tree_4_3_u02_r5_network.node[26].content_store 	p_hit[26] 	0.28466161110316
scalar tree_4_3_u02_r5_network.node[26].content_store 	hits[26] 	3979
scalar tree_4_3_u02_r5_network.node[26].content_store 	misses[26] 	9999
scalar tree_4_3_u02_r5_network.node[26].content_store 	decision_yes[26] 	9997
scalar tree_4_3_u02_r5_network.node[26].content_store 	decision_no[26] 	0
scalar tree_4_3_u02_r5_network.node[26].content_store 	decision_ratio[26] 	1
scalar tree_4_3_u02_r5_network.node[27].core_layer 	interests[27] 	13963
scalar tree_4_3_u02_r5_network.node[27].core_layer 	data[27] 	9962
scalar tree_4_3_u02_r5_network.node[27].content_store 	p_hit[27] 	0.28661462436439
scalar tree_4_3_u02_r5_network.node[27].content_store 	hits[27] 	4002
scalar tree_4_3_u02_r5_network.node[27].content_store 	misses[27] 	9961
scalar tree_4_3_u02_r5_network.node[27].content_store 	decision_yes[27] 	9962
scalar tree_4_3_u02_r5_network.node[27].content_store 	decision_no[27] 	0
scalar tree_4_3_u02_r5_network.node[27].content_store 	decision_ratio[27] 	1
scalar tree_4_3_u02_r5_network.node[28].core_layer 	interests[28] 	13716
scalar tree_4_3_u02_r5_network.node[28].core_layer 	data[28] 	9840
scalar tree_4_3_u02_r5_network.node[28].content_store 	p_hit[28] 	0.28251676873724
scalar tree_4_3_u02_r5_network.node[28].content_store 	hits[28] 	3875
scalar tree_4_3_u02_r5_network.node[28].content_store 	misses[28] 	9841
scalar tree_4_3_u02_r5_network.node[28].content_store 	decision_yes[28] 	9840
scalar tree_4_3_u02_r5_network.node[28].content_store 	decision_no[28] 	0
scalar tree_4_3_u02_r5_network.node[28].content_store 	decision_ratio[28] 	1
scalar tree_4_3_u02_r5_network.node[29].core_layer 	interests[29] 	13917
scalar tree_4_3_u02_r5_network.node[29].core_layer 	data[29] 	10011
scalar tree_4_3_u02_r5_network.node[29].content_store 	p_hit[29] 	0.28066393619315
scalar tree_4_3_u02_r5_network.node[29].content_store 	hits[29] 	3906
scalar tree_4_3_u02_r5_network.node[29].content_store 	misses[29] 	10011
scalar tree_4_3_u02_r5_network.node[29].content_store 	decision_yes[29] 	10011
scalar tree_4_3_u02_r5_network.node[29].content_store 	decision_no[29] 	0
scalar tree_4_3_u02_r5_network.node[29].content_store 	decision_ratio[29] 	1
scalar tree_4_3_u02_r5_network.node[30].core_layer 	interests[30] 	13994
scalar tree_4_3_u02_r5_network.node[30].core_layer 	data[30] 	10122
scalar tree_4_3_u02_r5_network.node[30].content_store 	p_hit[30] 	0.27661855080749
scalar tree_4_3_u02_r5_network.node[30].content_store 	hits[30] 	3871
scalar tree_4_3_u02_r5_network.node[30].content_store 	misses[30] 	10123
scalar tree_4_3_u02_r5_network.node[30].content_store 	decision_yes[30] 	10122
scalar tree_4_3_u02_r5_network.node[30].content_store 	decision_no[30] 	0
scalar tree_4_3_u02_r5_network.node[30].content_store 	decision_ratio[30] 	1
scalar tree_4_3_u02_r5_network.node[31].core_layer 	interests[31] 	13362
scalar tree_4_3_u02_r5_network.node[31].core_layer 	data[31] 	9968
scalar tree_4_3_u02_r5_network.node[31].content_store 	p_hit[31] 	0.25392905253705
scalar tree_4_3_u02_r5_network.node[31].content_store 	hits[31] 	3393
scalar tree_4_3_u02_r5_network.node[31].content_store 	misses[31] 	9969
scalar tree_4_3_u02_r5_network.node[31].content_store 	decision_yes[31] 	9968
scalar tree_4_3_u02_r5_network.node[31].content_store 	decision_no[31] 	0
scalar tree_4_3_u02_r5_network.node[31].content_store 	decision_ratio[31] 	1
scalar tree_4_3_u02_r5_network.node[32].core_layer 	interests[32] 	16051
scalar tree_4_3_u02_r5_network.node[32].core_layer 	data[32] 	9929
scalar tree_4_3_u02_r5_network.node[32].content_store 	p_hit[32] 	0.38140925799016
scalar tree_4_3_u02_r5_network.node[32].content_store 	hits[32] 	6122
scalar tree_4_3_u02_r5_network.node[32].content_store 	misses[32] 	9929
scalar tree_4_3_u02_r5_network.node[32].content_store 	decision_yes[32] 	9929
scalar tree_4_3_u02_r5_network.node[32].content_store 	decision_no[32] 	0
scalar tree_4_3_u02_r5_network.node[32].content_store 	decision_ratio[32] 	1
scalar tree_4_3_u02_r5_network.node[33].core_layer 	interests[33] 	13427
scalar tree_4_3_u02_r5_network.node[33].core_layer 	data[33] 	10067
scalar tree_4_3_u02_r5_network.node[33].content_store 	p_hit[33] 	0.25024204960155
scalar tree_4_3_u02_r5_network.node[33].content_store 	hits[33] 	3360
scalar tree_4_3_u02_r5_network.node[33].content_store 	misses[33] 	10067
scalar tree_4_3_u02_r5_network.node[33].content_store 	decision_yes[33] 	10067
scalar tree_4_3_u02_r5_network.node[33].content_store 	decision_no[33] 	0
scalar tree_4_3_u02_r5_network.node[33].content_store 	decision_ratio[33] 	1
scalar tree_4_3_u02_r5_network.node[34].core_layer 	interests[34] 	15228
scalar tree_4_3_u02_r5_network.node[34].core_layer 	data[34] 	10065
scalar tree_4_3_u02_r5_network.node[34].content_store 	p_hit[34] 	0.33904649330181
scalar tree_4_3_u02_r5_network.node[34].content_store 	hits[34] 	5163
scalar tree_4_3_u02_r5_network.node[34].content_store 	misses[34] 	10065
scalar tree_4_3_u02_r5_network.node[34].content_store 	decision_yes[34] 	10065
scalar tree_4_3_u02_r5_network.node[34].content_store 	decision_no[34] 	0
scalar tree_4_3_u02_r5_network.node[34].content_store 	decision_ratio[34] 	1
scalar tree_4_3_u02_r5_network.node[35].core_layer 	interests[35] 	15340
scalar tree_4_3_u02_r5_network.node[35].core_layer 	data[35] 	10216
scalar tree_4_3_u02_r5_network.node[35].content_store 	p_hit[35] 	0.33402868318123
scalar tree_4_3_u02_r5_network.node[35].content_store 	hits[35] 	5124
scalar tree_4_3_u02_r5_network.node[35].content_store 	misses[35] 	10216
scalar tree_4_3_u02_r5_network.node[35].content_store 	decision_yes[35] 	10216
scalar tree_4_3_u02_r5_network.node[35].content_store 	decision_no[35] 	0
scalar tree_4_3_u02_r5_network.node[35].content_store 	decision_ratio[35] 	1
scalar tree_4_3_u02_r5_network.node[36].core_layer 	interests[36] 	15314
scalar tree_4_3_u02_r5_network.node[36].core_layer 	data[36] 	10184
scalar tree_4_3_u02_r5_network.node[36].content_store 	p_hit[36] 	0.33505289277785
scalar tree_4_3_u02_r5_network.node[36].content_store 	hits[36] 	5131
scalar tree_4_3_u02_r5_network.node[36].content_store 	misses[36] 	10183
scalar tree_4_3_u02_r5_network.node[36].content_store 	decision_yes[36] 	10184
scalar tree_4_3_u02_r5_network.node[36].content_store 	decision_no[36] 	0
scalar tree_4_3_u02_r5_network.node[36].content_store 	decision_ratio[36] 	1
scalar tree_4_3_u02_r5_network.node[37].core_layer 	interests[37] 	13645
scalar tree_4_3_u02_r5_network.node[37].core_layer 	data[37] 	10139
scalar tree_4_3_u02_r5_network.node[37].content_store 	p_hit[37] 	0.25679736167094
scalar tree_4_3_u02_r5_network.node[37].content_store 	hits[37] 	3504
scalar tree_4_3_u02_r5_network.node[37].content_store 	misses[37] 	10141
scalar tree_4_3_u02_r5_network.node[37].content_store 	decision_yes[37] 	10139
scalar tree_4_3_u02_r5_network.node[37].content_store 	decision_no[37] 	0
scalar tree_4_3_u02_r5_network.node[37].content_store 	decision_ratio[37] 	1
scalar tree_4_3_u02_r5_network.node[38].core_layer 	interests[38] 	13447
scalar tree_4_3_u02_r5_network.node[38].core_layer 	data[38] 	9919
scalar tree_4_3_u02_r5_network.node[38].content_store 	p_hit[38] 	0.26236335242061
scalar tree_4_3_u02_r5_network.node[38].content_store 	hits[38] 	3528
scalar tree_4_3_u02_r5_network.node[38].content_store 	misses[38] 	9919
scalar tree_4_3_u02_r5_network.node[38].content_store 	decision_yes[38] 	9919
scalar tree_4_3_u02_r5_network.node[38].content_store 	decision_no[38] 	0
scalar tree_4_3_u02_r5_network.node[38].content_store 	decision_ratio[38] 	1
scalar tree_4_3_u02_r5_network.node[39].core_layer 	interests[39] 	13346
scalar tree_4_3_u02_r5_network.node[39].core_layer 	data[39] 	9993
scalar tree_4_3_u02_r5_network.node[39].content_store 	p_hit[39] 	0.25131125430841
scalar tree_4_3_u02_r5_network.node[39].content_store 	hits[39] 	3354
scalar tree_4_3_u02_r5_network.node[39].content_store 	misses[39] 	9992
scalar tree_4_3_u02_r5_network.node[39].content_store 	decision_yes[39] 	9993
scalar tree_4_3_u02_r5_network.node[39].content_store 	decision_no[39] 	0
scalar tree_4_3_u02_r5_network.node[39].content_store 	decision_ratio[39] 	1
scalar tree_4_3_u02_r5_network.client[13] 	hdistance[13] 	3.1180879413724
scalar tree_4_3_u02_r5_network.client[13] 	downloads[13] 	12008
scalar tree_4_3_u02_r5_network.client[13] 	avg_time[13] 	0.004859451658
scalar tree_4_3_u02_r5_network.client[14] 	hdistance[14] 	3.125513540706
scalar tree_4_3_u02_r5_network.client[14] 	downloads[14] 	11927
scalar tree_4_3_u02_r5_network.client[14] 	avg_time[14] 	0.004884149851
scalar tree_4_3_u02_r5_network.client[15] 	hdistance[15] 	3.1333939043529
scalar tree_4_3_u02_r5_network.client[15] 	downloads[15] 	12107
scalar tree_4_3_u02_r5_network.client[15] 	avg_time[15] 	0.004890081723
scalar tree_4_3_u02_r5_network.client[16] 	hdistance[16] 	3.0397461589846
scalar tree_4_3_u02_r5_network.client[16] 	downloads[16] 	11976
scalar tree_4_3_u02_r5_network.client[16] 	avg_time[16] 	0.004709954291
scalar tree_4_3_u02_r5_network.client[17] 	hdistance[17] 	3.1619379459101
scalar tree_4_3_u02_r5_network.client[17] 	downloads[17] 	12054
scalar tree_4_3_u02_r5_network.client[17] 	avg_time[17] 	0.004942890026
scalar tree_4_3_u02_r5_network.client[18] 	hdistance[18] 	3.1532264902909
scalar tree_4_3_u02_r5_network.client[18] 	downloads[18] 	11793
scalar tree_4_3_u02_r5_network.client[18] 	avg_time[18] 	0.004930609687
scalar tree_4_3_u02_r5_network.client[19] 	hdistance[19] 	3.0655504395144
scalar tree_4_3_u02_r5_network.client[19] 	downloads[19] 	11945
scalar tree_4_3_u02_r5_network.client[19] 	avg_time[19] 	0.004755776439
scalar tree_4_3_u02_r5_network.client[20] 	hdistance[20] 	3.0916215089621
scalar tree_4_3_u02_r5_network.client[20] 	downloads[20] 	11995
scalar tree_4_3_u02_r5_network.client[20] 	avg_time[20] 	0.004807245769
scalar tree_4_3_u02_r5_network.client[21] 	hdistance[21] 	3.2247714048213
scalar tree_4_3_u02_r5_network.client[21] 	downloads[21] 	12030
scalar tree_4_3_u02_r5_network.client[21] 	avg_time[21] 	0.005060340958
scalar tree_4_3_u02_r5_network.client[22] 	hdistance[22] 	3.2041459369818
scalar tree_4_3_u02_r5_network.client[22] 	downloads[22] 	12060
scalar tree_4_3_u02_r5_network.client[22] 	avg_time[22] 	0.00509833863
scalar tree_4_3_u02_r5_network.client[23] 	hdistance[23] 	3.1993566409887
scalar tree_4_3_u02_r5_network.client[23] 	downloads[23] 	11813
scalar tree_4_3_u02_r5_network.client[23] 	avg_time[23] 	0.005094165583
scalar tree_4_3_u02_r5_network.client[24] 	hdistance[24] 	3.1927630481908
scalar tree_4_3_u02_r5_network.client[24] 	downloads[24] 	11994
scalar tree_4_3_u02_r5_network.client[24] 	avg_time[24] 	0.005078429684
scalar tree_4_3_u02_r5_network.client[25] 	hdistance[25] 	3.1994089155242
scalar tree_4_3_u02_r5_network.client[25] 	downloads[25] 	12181
scalar tree_4_3_u02_r5_network.client[25] 	avg_time[25] 	0.005083078069
scalar tree_4_3_u02_r5_network.client[26] 	hdistance[26] 	3.1925486592599
scalar tree_4_3_u02_r5_network.client[26] 	downloads[26] 	11971
scalar tree_4_3_u02_r5_network.client[26] 	avg_time[26] 	0.0050784751
scalar tree_4_3_u02_r5_network.client[27] 	hdistance[27] 	3.1942699170646
scalar tree_4_3_u02_r5_network.client[27] 	downloads[27] 	11937
scalar tree_4_3_u02_r5_network.client[27] 	avg_time[27] 	0.005073105661
scalar tree_4_3_u02_r5_network.client[28] 	hdistance[28] 	3.2051150895141
scalar tree_4_3_u02_r5_network.client[28] 	downloads[28] 	11730
scalar tree_4_3_u02_r5_network.client[28] 	avg_time[28] 	0.005104835182
scalar tree_4_3_u02_r5_network.client[29] 	hdistance[29] 	3.2160255333445
scalar tree_4_3_u02_r5_network.client[29] 	downloads[29] 	11906
scalar tree_4_3_u02_r5_network.client[29] 	avg_time[29] 	0.005115397619
scalar tree_4_3_u02_r5_network.client[30] 	hdistance[30] 	3.2281638441645
scalar tree_4_3_u02_r5_network.client[30] 	downloads[30] 	11987
scalar tree_4_3_u02_r5_network.client[30] 	avg_time[30] 	0.005134065149
scalar tree_4_3_u02_r5_network.client[31] 	hdistance[31] 	3.1885273398188
scalar tree_4_3_u02_r5_network.client[31] 	downloads[31] 	11924
scalar tree_4_3_u02_r5_network.client[31] 	avg_time[31] 	0.005010193224
scalar tree_4_3_u02_r5_network.client[32] 	hdistance[32] 	3.095561708197
scalar tree_4_3_u02_r5_network.client[32] 	downloads[32] 	11919
scalar tree_4_3_u02_r5_network.client[32] 	avg_time[32] 	0.004921215223
scalar tree_4_3_u02_r5_network.client[33] 	hdistance[33] 	3.1860967902877
scalar tree_4_3_u02_r5_network.client[33] 	downloads[33] 	12026
scalar tree_4_3_u02_r5_network.client[33] 	avg_time[33] 	0.005021595254
scalar tree_4_3_u02_r5_network.client[34] 	hdistance[34] 	3.1264538480574
scalar tree_4_3_u02_r5_network.client[34] 	downloads[34] 	12123
scalar tree_4_3_u02_r5_network.client[34] 	avg_time[34] 	0.004996930984
scalar tree_4_3_u02_r5_network.client[35] 	hdistance[35] 	3.1519868906186
scalar tree_4_3_u02_r5_network.client[35] 	downloads[35] 	12205
scalar tree_4_3_u02_r5_network.client[35] 	avg_time[35] 	0.005040519913
scalar tree_4_3_u02_r5_network.client[36] 	hdistance[36] 	3.1417549043749
scalar tree_4_3_u02_r5_network.client[36] 	downloads[36] 	12183
scalar tree_4_3_u02_r5_network.client[36] 	avg_time[36] 	0.005027122112
scalar tree_4_3_u02_r5_network.client[37] 	hdistance[37] 	3.2031675327889
scalar tree_4_3_u02_r5_network.client[37] 	downloads[37] 	12123
scalar tree_4_3_u02_r5_network.client[37] 	avg_time[37] 	0.0050418183
scalar tree_4_3_u02_r5_network.client[38] 	hdistance[38] 	3.1892254762105
scalar tree_4_3_u02_r5_network.client[38] 	downloads[38] 	11917
scalar tree_4_3_u02_r5_network.client[38] 	avg_time[38] 	0.005016054629
scalar tree_4_3_u02_r5_network.client[39] 	hdistance[39] 	3.214747627446
scalar tree_4_3_u02_r5_network.client[39] 	downloads[39] 	11907
scalar tree_4_3_u02_r5_network.client[39] 	avg_time[39] 	0.005057358245
