version 2
run General-105-20160819-16:33:51-23511
attr a 0.9
attr cd lce
attr configname General
attr cr lru
attr datetime 20160819-16:33:51
attr experiment General
attr fsize 1
attr inifile hw5115/scenario_A/NRR-LCE.ini
attr iterationvars "$name=tree_4_3, $un=05, $rep=6, $cd=lce, $cr=lru, $fsize=1, $a=0.9, $sl=nrr, $ttl=1000, $variance=0.05"
attr iterationvars2 "$name=tree_4_3, $un=05, $rep=6, $cd=lce, $cr=lru, $fsize=1, $a=0.9, $sl=nrr, $ttl=1000, $variance=0.05, $repetition=0"
attr measurement "$name=tree_4_3, $un=05, $rep=6, $cd=lce, $cr=lru, $fsize=1, $a=0.9, $sl=nrr, $ttl=1000, $variance=0.05"
attr name tree_4_3
attr network networks.${name}_u${un}_r${rep}_network
attr processid 23511
attr rep 6
attr repetition 0
attr replication #0
attr resultdir results
attr runnumber 105
attr seedset 6
attr sl nrr
attr ttl 1000
attr un 05
attr variance 0.05

scalar . 	a 	0.9
scalar . 	fsize 	1
scalar . 	rep 	6
scalar . 	ttl 	1000
scalar . 	un 	05
scalar . 	variance 	0.05
scalar tree_4_3_u05_r6_network.content_distribution 	repo-0 	0
scalar tree_4_3_u05_r6_network.content_distribution 	client-0 	13
scalar tree_4_3_u05_r6_network.content_distribution 	client-1 	14
scalar tree_4_3_u05_r6_network.content_distribution 	client-2 	15
scalar tree_4_3_u05_r6_network.content_distribution 	client-3 	16
scalar tree_4_3_u05_r6_network.content_distribution 	client-4 	17
scalar tree_4_3_u05_r6_network.content_distribution 	client-5 	18
scalar tree_4_3_u05_r6_network.content_distribution 	client-6 	19
scalar tree_4_3_u05_r6_network.content_distribution 	client-7 	20
scalar tree_4_3_u05_r6_network.content_distribution 	client-8 	21
scalar tree_4_3_u05_r6_network.content_distribution 	client-9 	22
scalar tree_4_3_u05_r6_network.content_distribution 	client-10 	23
scalar tree_4_3_u05_r6_network.content_distribution 	client-11 	24
scalar tree_4_3_u05_r6_network.content_distribution 	client-12 	25
scalar tree_4_3_u05_r6_network.content_distribution 	client-13 	26
scalar tree_4_3_u05_r6_network.content_distribution 	client-14 	27
scalar tree_4_3_u05_r6_network.content_distribution 	client-15 	28
scalar tree_4_3_u05_r6_network.content_distribution 	client-16 	29
scalar tree_4_3_u05_r6_network.content_distribution 	client-17 	30
scalar tree_4_3_u05_r6_network.content_distribution 	client-18 	31
scalar tree_4_3_u05_r6_network.content_distribution 	client-19 	32
scalar tree_4_3_u05_r6_network.content_distribution 	client-20 	33
scalar tree_4_3_u05_r6_network.content_distribution 	client-21 	34
scalar tree_4_3_u05_r6_network.content_distribution 	client-22 	35
scalar tree_4_3_u05_r6_network.content_distribution 	client-23 	36
scalar tree_4_3_u05_r6_network.content_distribution 	client-24 	37
scalar tree_4_3_u05_r6_network.content_distribution 	client-25 	38
scalar tree_4_3_u05_r6_network.content_distribution 	client-26 	39
scalar tree_4_3_u05_r6_network.content_distribution 	repo-0_card 	100000
scalar tree_4_3_u05_r6_network.content_distribution 	repo-0_price 	0
scalar tree_4_3_u05_r6_network.statistics 	stabilization_time 	486.5
scalar tree_4_3_u05_r6_network.statistics 	p_hit 	0.19102734405812
scalar tree_4_3_u05_r6_network.statistics 	interests 	27673.25
scalar tree_4_3_u05_r6_network.statistics 	data 	19570
scalar tree_4_3_u05_r6_network.statistics 	hdistance 	3.0438412448983
scalar tree_4_3_u05_r6_network.statistics 	avg_time 	0.004830198345
scalar tree_4_3_u05_r6_network.statistics 	downloads 	324108
scalar tree_4_3_u05_r6_network.statistics 	total_cost 	0
scalar tree_4_3_u05_r6_network.statistics 	total_replicas 	100000
scalar tree_4_3_u05_r6_network.statistics 	inner_hit 	0.37128364619201
scalar tree_4_3_u05_r6_network.node[0].core_layer 	interests[0] 	204608
scalar tree_4_3_u05_r6_network.node[0].core_layer 	repo_load[0] 	203772
scalar tree_4_3_u05_r6_network.node[0].core_layer 	data[0] 	0
scalar tree_4_3_u05_r6_network.node[0].core_layer 	repo_int[0] 	203772
scalar tree_4_3_u05_r6_network.node[0].content_store 	p_hit[0] 	0.0040858617453863
scalar tree_4_3_u05_r6_network.node[0].content_store 	hits[0] 	836
scalar tree_4_3_u05_r6_network.node[0].content_store 	misses[0] 	203772
scalar tree_4_3_u05_r6_network.node[0].content_store 	decision_yes[0] 	203772
scalar tree_4_3_u05_r6_network.node[0].content_store 	decision_no[0] 	0
scalar tree_4_3_u05_r6_network.node[0].content_store 	decision_ratio[0] 	1
scalar tree_4_3_u05_r6_network.node[1].core_layer 	interests[1] 	116087
scalar tree_4_3_u05_r6_network.node[1].core_layer 	data[1] 	114954
scalar tree_4_3_u05_r6_network.node[1].content_store 	p_hit[1] 	0.0096910076063642
scalar tree_4_3_u05_r6_network.node[1].content_store 	hits[1] 	1125
scalar tree_4_3_u05_r6_network.node[1].content_store 	misses[1] 	114962
scalar tree_4_3_u05_r6_network.node[1].content_store 	decision_yes[1] 	114936
scalar tree_4_3_u05_r6_network.node[1].content_store 	decision_no[1] 	0
scalar tree_4_3_u05_r6_network.node[1].content_store 	decision_ratio[1] 	1
scalar tree_4_3_u05_r6_network.node[2].core_layer 	interests[2] 	69390
scalar tree_4_3_u05_r6_network.node[2].core_layer 	data[2] 	68410
scalar tree_4_3_u05_r6_network.node[2].content_store 	p_hit[2] 	0.014094249891915
scalar tree_4_3_u05_r6_network.node[2].content_store 	hits[2] 	978
scalar tree_4_3_u05_r6_network.node[2].content_store 	misses[2] 	68412
scalar tree_4_3_u05_r6_network.node[2].content_store 	decision_yes[2] 	68403
scalar tree_4_3_u05_r6_network.node[2].content_store 	decision_no[2] 	0
scalar tree_4_3_u05_r6_network.node[2].content_store 	decision_ratio[2] 	1
scalar tree_4_3_u05_r6_network.node[3].core_layer 	interests[3] 	50907
scalar tree_4_3_u05_r6_network.node[3].core_layer 	data[3] 	49251
scalar tree_4_3_u05_r6_network.node[3].content_store 	p_hit[3] 	0.032510263814407
scalar tree_4_3_u05_r6_network.node[3].content_store 	hits[3] 	1655
scalar tree_4_3_u05_r6_network.node[3].content_store 	misses[3] 	49252
scalar tree_4_3_u05_r6_network.node[3].content_store 	decision_yes[3] 	49248
scalar tree_4_3_u05_r6_network.node[3].content_store 	decision_no[3] 	0
scalar tree_4_3_u05_r6_network.node[3].content_store 	decision_ratio[3] 	1
scalar tree_4_3_u05_r6_network.node[4].core_layer 	interests[4] 	41637
scalar tree_4_3_u05_r6_network.node[4].core_layer 	data[4] 	39787
scalar tree_4_3_u05_r6_network.node[4].content_store 	p_hit[4] 	0.044383601124
scalar tree_4_3_u05_r6_network.node[4].content_store 	hits[4] 	1848
scalar tree_4_3_u05_r6_network.node[4].content_store 	misses[4] 	39789
scalar tree_4_3_u05_r6_network.node[4].content_store 	decision_yes[4] 	39784
scalar tree_4_3_u05_r6_network.node[4].content_store 	decision_no[4] 	0
scalar tree_4_3_u05_r6_network.node[4].content_store 	decision_ratio[4] 	1
scalar tree_4_3_u05_r6_network.node[5].core_layer 	interests[5] 	20449
scalar tree_4_3_u05_r6_network.node[5].core_layer 	data[5] 	18993
scalar tree_4_3_u05_r6_network.node[5].content_store 	p_hit[5] 	0.071250427893785
scalar tree_4_3_u05_r6_network.node[5].content_store 	hits[5] 	1457
scalar tree_4_3_u05_r6_network.node[5].content_store 	misses[5] 	18992
scalar tree_4_3_u05_r6_network.node[5].content_store 	decision_yes[5] 	18992
scalar tree_4_3_u05_r6_network.node[5].content_store 	decision_no[5] 	0
scalar tree_4_3_u05_r6_network.node[5].content_store 	decision_ratio[5] 	1
scalar tree_4_3_u05_r6_network.node[6].core_layer 	interests[6] 	38141
scalar tree_4_3_u05_r6_network.node[6].core_layer 	data[6] 	34201
scalar tree_4_3_u05_r6_network.node[6].content_store 	p_hit[6] 	0.10322225426706
scalar tree_4_3_u05_r6_network.node[6].content_store 	hits[6] 	3937
scalar tree_4_3_u05_r6_network.node[6].content_store 	misses[6] 	34204
scalar tree_4_3_u05_r6_network.node[6].content_store 	decision_yes[6] 	34200
scalar tree_4_3_u05_r6_network.node[6].content_store 	decision_no[6] 	0
scalar tree_4_3_u05_r6_network.node[6].content_store 	decision_ratio[6] 	1
scalar tree_4_3_u05_r6_network.node[7].core_layer 	interests[7] 	53624
scalar tree_4_3_u05_r6_network.node[7].core_layer 	data[7] 	50722
scalar tree_4_3_u05_r6_network.node[7].content_store 	p_hit[7] 	0.054080262568999
scalar tree_4_3_u05_r6_network.node[7].content_store 	hits[7] 	2900
scalar tree_4_3_u05_r6_network.node[7].content_store 	misses[7] 	50724
scalar tree_4_3_u05_r6_network.node[7].content_store 	decision_yes[7] 	50714
scalar tree_4_3_u05_r6_network.node[7].content_store 	decision_no[7] 	0
scalar tree_4_3_u05_r6_network.node[7].content_store 	decision_ratio[7] 	1
scalar tree_4_3_u05_r6_network.node[8].core_layer 	interests[8] 	21649
scalar tree_4_3_u05_r6_network.node[8].core_layer 	data[8] 	19880
scalar tree_4_3_u05_r6_network.node[8].content_store 	p_hit[8] 	0.081712781190817
scalar tree_4_3_u05_r6_network.node[8].content_store 	hits[8] 	1769
scalar tree_4_3_u05_r6_network.node[8].content_store 	misses[8] 	19880
scalar tree_4_3_u05_r6_network.node[8].content_store 	decision_yes[8] 	19879
scalar tree_4_3_u05_r6_network.node[8].content_store 	decision_no[8] 	0
scalar tree_4_3_u05_r6_network.node[8].content_store 	decision_ratio[8] 	1
scalar tree_4_3_u05_r6_network.node[9].core_layer 	interests[9] 	24189
scalar tree_4_3_u05_r6_network.node[9].core_layer 	data[9] 	21488
scalar tree_4_3_u05_r6_network.node[9].content_store 	p_hit[9] 	0.11162098474513
scalar tree_4_3_u05_r6_network.node[9].content_store 	hits[9] 	2700
scalar tree_4_3_u05_r6_network.node[9].content_store 	misses[9] 	21489
scalar tree_4_3_u05_r6_network.node[9].content_store 	decision_yes[9] 	21487
scalar tree_4_3_u05_r6_network.node[9].content_store 	decision_no[9] 	0
scalar tree_4_3_u05_r6_network.node[9].content_store 	decision_ratio[9] 	1
scalar tree_4_3_u05_r6_network.node[10].core_layer 	interests[10] 	23409
scalar tree_4_3_u05_r6_network.node[10].core_layer 	data[10] 	21683
scalar tree_4_3_u05_r6_network.node[10].content_store 	p_hit[10] 	0.073646887949079
scalar tree_4_3_u05_r6_network.node[10].content_store 	hits[10] 	1724
scalar tree_4_3_u05_r6_network.node[10].content_store 	misses[10] 	21685
scalar tree_4_3_u05_r6_network.node[10].content_store 	decision_yes[10] 	21683
scalar tree_4_3_u05_r6_network.node[10].content_store 	decision_no[10] 	0
scalar tree_4_3_u05_r6_network.node[10].content_store 	decision_ratio[10] 	1
scalar tree_4_3_u05_r6_network.node[11].core_layer 	interests[11] 	43658
scalar tree_4_3_u05_r6_network.node[11].core_layer 	data[11] 	40907
scalar tree_4_3_u05_r6_network.node[11].content_store 	p_hit[11] 	0.06301250629896
scalar tree_4_3_u05_r6_network.node[11].content_store 	hits[11] 	2751
scalar tree_4_3_u05_r6_network.node[11].content_store 	misses[11] 	40907
scalar tree_4_3_u05_r6_network.node[11].content_store 	decision_yes[11] 	40901
scalar tree_4_3_u05_r6_network.node[11].content_store 	decision_no[11] 	0
scalar tree_4_3_u05_r6_network.node[11].content_store 	decision_ratio[11] 	1
scalar tree_4_3_u05_r6_network.node[12].core_layer 	interests[12] 	32866
scalar tree_4_3_u05_r6_network.node[12].core_layer 	data[12] 	30908
scalar tree_4_3_u05_r6_network.node[12].content_store 	p_hit[12] 	0.059544818353313
scalar tree_4_3_u05_r6_network.node[12].content_store 	hits[12] 	1957
scalar tree_4_3_u05_r6_network.node[12].content_store 	misses[12] 	30909
scalar tree_4_3_u05_r6_network.node[12].content_store 	decision_yes[12] 	30908
scalar tree_4_3_u05_r6_network.node[12].content_store 	decision_no[12] 	0
scalar tree_4_3_u05_r6_network.node[12].content_store 	decision_ratio[12] 	1
scalar tree_4_3_u05_r6_network.node[13].core_layer 	interests[13] 	13098
scalar tree_4_3_u05_r6_network.node[13].core_layer 	data[13] 	9951
scalar tree_4_3_u05_r6_network.node[13].content_store 	p_hit[13] 	0.24018934188426
scalar tree_4_3_u05_r6_network.node[13].content_store 	hits[13] 	3146
scalar tree_4_3_u05_r6_network.node[13].content_store 	misses[13] 	9952
scalar tree_4_3_u05_r6_network.node[13].content_store 	decision_yes[13] 	9951
scalar tree_4_3_u05_r6_network.node[13].content_store 	decision_no[13] 	0
scalar tree_4_3_u05_r6_network.node[13].content_store 	decision_ratio[13] 	1
scalar tree_4_3_u05_r6_network.node[14].core_layer 	interests[14] 	13157
scalar tree_4_3_u05_r6_network.node[14].core_layer 	data[14] 	10023
scalar tree_4_3_u05_r6_network.node[14].content_store 	p_hit[14] 	0.23804818727673
scalar tree_4_3_u05_r6_network.node[14].content_store 	hits[14] 	3132
scalar tree_4_3_u05_r6_network.node[14].content_store 	misses[14] 	10025
scalar tree_4_3_u05_r6_network.node[14].content_store 	decision_yes[14] 	10023
scalar tree_4_3_u05_r6_network.node[14].content_store 	decision_no[14] 	0
scalar tree_4_3_u05_r6_network.node[14].content_store 	decision_ratio[14] 	1
scalar tree_4_3_u05_r6_network.node[15].core_layer 	interests[15] 	13065
scalar tree_4_3_u05_r6_network.node[15].core_layer 	data[15] 	10040
scalar tree_4_3_u05_r6_network.node[15].content_store 	p_hit[15] 	0.23145809414466
scalar tree_4_3_u05_r6_network.node[15].content_store 	hits[15] 	3024
scalar tree_4_3_u05_r6_network.node[15].content_store 	misses[15] 	10041
scalar tree_4_3_u05_r6_network.node[15].content_store 	decision_yes[15] 	10040
scalar tree_4_3_u05_r6_network.node[15].content_store 	decision_no[15] 	0
scalar tree_4_3_u05_r6_network.node[15].content_store 	decision_ratio[15] 	1
scalar tree_4_3_u05_r6_network.node[16].core_layer 	interests[16] 	13763
scalar tree_4_3_u05_r6_network.node[16].core_layer 	data[16] 	9734
scalar tree_4_3_u05_r6_network.node[16].content_store 	p_hit[16] 	0.29274140812323
scalar tree_4_3_u05_r6_network.node[16].content_store 	hits[16] 	4029
scalar tree_4_3_u05_r6_network.node[16].content_store 	misses[16] 	9734
scalar tree_4_3_u05_r6_network.node[16].content_store 	decision_yes[16] 	9734
scalar tree_4_3_u05_r6_network.node[16].content_store 	decision_no[16] 	0
scalar tree_4_3_u05_r6_network.node[16].content_store 	decision_ratio[16] 	1
scalar tree_4_3_u05_r6_network.node[17].core_layer 	interests[17] 	12362
scalar tree_4_3_u05_r6_network.node[17].core_layer 	data[17] 	10080
scalar tree_4_3_u05_r6_network.node[17].content_store 	p_hit[17] 	0.18435528231678
scalar tree_4_3_u05_r6_network.node[17].content_store 	hits[17] 	2279
scalar tree_4_3_u05_r6_network.node[17].content_store 	misses[17] 	10083
scalar tree_4_3_u05_r6_network.node[17].content_store 	decision_yes[17] 	10080
scalar tree_4_3_u05_r6_network.node[17].content_store 	decision_no[17] 	0
scalar tree_4_3_u05_r6_network.node[17].content_store 	decision_ratio[17] 	1
scalar tree_4_3_u05_r6_network.node[18].core_layer 	interests[18] 	14608
scalar tree_4_3_u05_r6_network.node[18].core_layer 	data[18] 	9928
scalar tree_4_3_u05_r6_network.node[18].content_store 	p_hit[18] 	0.32037239868565
scalar tree_4_3_u05_r6_network.node[18].content_store 	hits[18] 	4680
scalar tree_4_3_u05_r6_network.node[18].content_store 	misses[18] 	9928
scalar tree_4_3_u05_r6_network.node[18].content_store 	decision_yes[18] 	9928
scalar tree_4_3_u05_r6_network.node[18].content_store 	decision_no[18] 	0
scalar tree_4_3_u05_r6_network.node[18].content_store 	decision_ratio[18] 	1
scalar tree_4_3_u05_r6_network.node[19].core_layer 	interests[19] 	13672
scalar tree_4_3_u05_r6_network.node[19].core_layer 	data[19] 	10000
scalar tree_4_3_u05_r6_network.node[19].content_store 	p_hit[19] 	0.26850497366881
scalar tree_4_3_u05_r6_network.node[19].content_store 	hits[19] 	3671
scalar tree_4_3_u05_r6_network.node[19].content_store 	misses[19] 	10001
scalar tree_4_3_u05_r6_network.node[19].content_store 	decision_yes[19] 	10000
scalar tree_4_3_u05_r6_network.node[19].content_store 	decision_no[19] 	0
scalar tree_4_3_u05_r6_network.node[19].content_store 	decision_ratio[19] 	1
scalar tree_4_3_u05_r6_network.node[20].core_layer 	interests[20] 	13594
scalar tree_4_3_u05_r6_network.node[20].core_layer 	data[20] 	9961
scalar tree_4_3_u05_r6_network.node[20].content_store 	p_hit[20] 	0.26695601000441
scalar tree_4_3_u05_r6_network.node[20].content_store 	hits[20] 	3629
scalar tree_4_3_u05_r6_network.node[20].content_store 	misses[20] 	9965
scalar tree_4_3_u05_r6_network.node[20].content_store 	decision_yes[20] 	9961
scalar tree_4_3_u05_r6_network.node[20].content_store 	decision_no[20] 	0
scalar tree_4_3_u05_r6_network.node[20].content_store 	decision_ratio[20] 	1
scalar tree_4_3_u05_r6_network.node[21].core_layer 	interests[21] 	13841
scalar tree_4_3_u05_r6_network.node[21].core_layer 	data[21] 	10110
scalar tree_4_3_u05_r6_network.node[21].content_store 	p_hit[21] 	0.26956144787226
scalar tree_4_3_u05_r6_network.node[21].content_store 	hits[21] 	3731
scalar tree_4_3_u05_r6_network.node[21].content_store 	misses[21] 	10110
scalar tree_4_3_u05_r6_network.node[21].content_store 	decision_yes[21] 	10110
scalar tree_4_3_u05_r6_network.node[21].content_store 	decision_no[21] 	0
scalar tree_4_3_u05_r6_network.node[21].content_store 	decision_ratio[21] 	1
scalar tree_4_3_u05_r6_network.node[22].core_layer 	interests[22] 	13539
scalar tree_4_3_u05_r6_network.node[22].core_layer 	data[22] 	9916
scalar tree_4_3_u05_r6_network.node[22].content_store 	p_hit[22] 	0.26744959007312
scalar tree_4_3_u05_r6_network.node[22].content_store 	hits[22] 	3621
scalar tree_4_3_u05_r6_network.node[22].content_store 	misses[22] 	9918
scalar tree_4_3_u05_r6_network.node[22].content_store 	decision_yes[22] 	9916
scalar tree_4_3_u05_r6_network.node[22].content_store 	decision_no[22] 	0
scalar tree_4_3_u05_r6_network.node[22].content_store 	decision_ratio[22] 	1
scalar tree_4_3_u05_r6_network.node[23].core_layer 	interests[23] 	14509
scalar tree_4_3_u05_r6_network.node[23].core_layer 	data[23] 	10206
scalar tree_4_3_u05_r6_network.node[23].content_store 	p_hit[23] 	0.2964366944655
scalar tree_4_3_u05_r6_network.node[23].content_store 	hits[23] 	4301
scalar tree_4_3_u05_r6_network.node[23].content_store 	misses[23] 	10208
scalar tree_4_3_u05_r6_network.node[23].content_store 	decision_yes[23] 	10206
scalar tree_4_3_u05_r6_network.node[23].content_store 	decision_no[23] 	0
scalar tree_4_3_u05_r6_network.node[23].content_store 	decision_ratio[23] 	1
scalar tree_4_3_u05_r6_network.node[24].core_layer 	interests[24] 	14611
scalar tree_4_3_u05_r6_network.node[24].core_layer 	data[24] 	10147
scalar tree_4_3_u05_r6_network.node[24].content_store 	p_hit[24] 	0.30545479433304
scalar tree_4_3_u05_r6_network.node[24].content_store 	hits[24] 	4463
scalar tree_4_3_u05_r6_network.node[24].content_store 	misses[24] 	10148
scalar tree_4_3_u05_r6_network.node[24].content_store 	decision_yes[24] 	10147
scalar tree_4_3_u05_r6_network.node[24].content_store 	decision_no[24] 	0
scalar tree_4_3_u05_r6_network.node[24].content_store 	decision_ratio[24] 	1
scalar tree_4_3_u05_r6_network.node[25].core_layer 	interests[25] 	14289
scalar tree_4_3_u05_r6_network.node[25].core_layer 	data[25] 	10004
scalar tree_4_3_u05_r6_network.node[25].content_store 	p_hit[25] 	0.29981104346
scalar tree_4_3_u05_r6_network.node[25].content_store 	hits[25] 	4284
scalar tree_4_3_u05_r6_network.node[25].content_store 	misses[25] 	10005
scalar tree_4_3_u05_r6_network.node[25].content_store 	decision_yes[25] 	10004
scalar tree_4_3_u05_r6_network.node[25].content_store 	decision_no[25] 	0
scalar tree_4_3_u05_r6_network.node[25].content_store 	decision_ratio[25] 	1
scalar tree_4_3_u05_r6_network.node[26].core_layer 	interests[26] 	12625
scalar tree_4_3_u05_r6_network.node[26].core_layer 	data[26] 	10231
scalar tree_4_3_u05_r6_network.node[26].content_store 	p_hit[26] 	0.18962376237624
scalar tree_4_3_u05_r6_network.node[26].content_store 	hits[26] 	2394
scalar tree_4_3_u05_r6_network.node[26].content_store 	misses[26] 	10231
scalar tree_4_3_u05_r6_network.node[26].content_store 	decision_yes[26] 	10231
scalar tree_4_3_u05_r6_network.node[26].content_store 	decision_no[26] 	0
scalar tree_4_3_u05_r6_network.node[26].content_store 	decision_ratio[26] 	1
scalar tree_4_3_u05_r6_network.node[27].core_layer 	interests[27] 	13796
scalar tree_4_3_u05_r6_network.node[27].core_layer 	data[27] 	10136
scalar tree_4_3_u05_r6_network.node[27].content_store 	p_hit[27] 	0.26529428819948
scalar tree_4_3_u05_r6_network.node[27].content_store 	hits[27] 	3660
scalar tree_4_3_u05_r6_network.node[27].content_store 	misses[27] 	10136
scalar tree_4_3_u05_r6_network.node[27].content_store 	decision_yes[27] 	10136
scalar tree_4_3_u05_r6_network.node[27].content_store 	decision_no[27] 	0
scalar tree_4_3_u05_r6_network.node[27].content_store 	decision_ratio[27] 	1
scalar tree_4_3_u05_r6_network.node[28].core_layer 	interests[28] 	14531
scalar tree_4_3_u05_r6_network.node[28].core_layer 	data[28] 	9979
scalar tree_4_3_u05_r6_network.node[28].content_store 	p_hit[28] 	0.313192485032
scalar tree_4_3_u05_r6_network.node[28].content_store 	hits[28] 	4551
scalar tree_4_3_u05_r6_network.node[28].content_store 	misses[28] 	9980
scalar tree_4_3_u05_r6_network.node[28].content_store 	decision_yes[28] 	9979
scalar tree_4_3_u05_r6_network.node[28].content_store 	decision_no[28] 	0
scalar tree_4_3_u05_r6_network.node[28].content_store 	decision_ratio[28] 	1
scalar tree_4_3_u05_r6_network.node[29].core_layer 	interests[29] 	12751
scalar tree_4_3_u05_r6_network.node[29].core_layer 	data[29] 	10170
scalar tree_4_3_u05_r6_network.node[29].content_store 	p_hit[29] 	0.20241549682378
scalar tree_4_3_u05_r6_network.node[29].content_store 	hits[29] 	2581
scalar tree_4_3_u05_r6_network.node[29].content_store 	misses[29] 	10170
scalar tree_4_3_u05_r6_network.node[29].content_store 	decision_yes[29] 	10170
scalar tree_4_3_u05_r6_network.node[29].content_store 	decision_no[29] 	0
scalar tree_4_3_u05_r6_network.node[29].content_store 	decision_ratio[29] 	1
scalar tree_4_3_u05_r6_network.node[30].core_layer 	interests[30] 	12706
scalar tree_4_3_u05_r6_network.node[30].core_layer 	data[30] 	10105
scalar tree_4_3_u05_r6_network.node[30].content_store 	p_hit[30] 	0.20470643790335
scalar tree_4_3_u05_r6_network.node[30].content_store 	hits[30] 	2601
scalar tree_4_3_u05_r6_network.node[30].content_store 	misses[30] 	10105
scalar tree_4_3_u05_r6_network.node[30].content_store 	decision_yes[30] 	10105
scalar tree_4_3_u05_r6_network.node[30].content_store 	decision_no[30] 	0
scalar tree_4_3_u05_r6_network.node[30].content_store 	decision_ratio[30] 	1
scalar tree_4_3_u05_r6_network.node[31].core_layer 	interests[31] 	12723
scalar tree_4_3_u05_r6_network.node[31].core_layer 	data[31] 	10103
scalar tree_4_3_u05_r6_network.node[31].content_store 	p_hit[31] 	0.20592627524955
scalar tree_4_3_u05_r6_network.node[31].content_store 	hits[31] 	2620
scalar tree_4_3_u05_r6_network.node[31].content_store 	misses[31] 	10103
scalar tree_4_3_u05_r6_network.node[31].content_store 	decision_yes[31] 	10103
scalar tree_4_3_u05_r6_network.node[31].content_store 	decision_no[31] 	0
scalar tree_4_3_u05_r6_network.node[31].content_store 	decision_ratio[31] 	1
scalar tree_4_3_u05_r6_network.node[32].core_layer 	interests[32] 	14663
scalar tree_4_3_u05_r6_network.node[32].core_layer 	data[32] 	10028
scalar tree_4_3_u05_r6_network.node[32].content_store 	p_hit[32] 	0.31603355384301
scalar tree_4_3_u05_r6_network.node[32].content_store 	hits[32] 	4634
scalar tree_4_3_u05_r6_network.node[32].content_store 	misses[32] 	10029
scalar tree_4_3_u05_r6_network.node[32].content_store 	decision_yes[32] 	10028
scalar tree_4_3_u05_r6_network.node[32].content_store 	decision_no[32] 	0
scalar tree_4_3_u05_r6_network.node[32].content_store 	decision_ratio[32] 	1
scalar tree_4_3_u05_r6_network.node[33].core_layer 	interests[33] 	12850
scalar tree_4_3_u05_r6_network.node[33].core_layer 	data[33] 	10243
scalar tree_4_3_u05_r6_network.node[33].content_store 	p_hit[33] 	0.20272373540856
scalar tree_4_3_u05_r6_network.node[33].content_store 	hits[33] 	2605
scalar tree_4_3_u05_r6_network.node[33].content_store 	misses[33] 	10245
scalar tree_4_3_u05_r6_network.node[33].content_store 	decision_yes[33] 	10243
scalar tree_4_3_u05_r6_network.node[33].content_store 	decision_no[33] 	0
scalar tree_4_3_u05_r6_network.node[33].content_store 	decision_ratio[33] 	1
scalar tree_4_3_u05_r6_network.node[34].core_layer 	interests[34] 	13624
scalar tree_4_3_u05_r6_network.node[34].core_layer 	data[34] 	10078
scalar tree_4_3_u05_r6_network.node[34].content_store 	p_hit[34] 	0.26034938344099
scalar tree_4_3_u05_r6_network.node[34].content_store 	hits[34] 	3547
scalar tree_4_3_u05_r6_network.node[34].content_store 	misses[34] 	10077
scalar tree_4_3_u05_r6_network.node[34].content_store 	decision_yes[34] 	10078
scalar tree_4_3_u05_r6_network.node[34].content_store 	decision_no[34] 	0
scalar tree_4_3_u05_r6_network.node[34].content_store 	decision_ratio[34] 	1
scalar tree_4_3_u05_r6_network.node[35].core_layer 	interests[35] 	13755
scalar tree_4_3_u05_r6_network.node[35].core_layer 	data[35] 	10138
scalar tree_4_3_u05_r6_network.node[35].content_store 	p_hit[35] 	0.26295892402763
scalar tree_4_3_u05_r6_network.node[35].content_store 	hits[35] 	3617
scalar tree_4_3_u05_r6_network.node[35].content_store 	misses[35] 	10138
scalar tree_4_3_u05_r6_network.node[35].content_store 	decision_yes[35] 	10138
scalar tree_4_3_u05_r6_network.node[35].content_store 	decision_no[35] 	0
scalar tree_4_3_u05_r6_network.node[35].content_store 	decision_ratio[35] 	1
scalar tree_4_3_u05_r6_network.node[36].core_layer 	interests[36] 	15046
scalar tree_4_3_u05_r6_network.node[36].core_layer 	data[36] 	10136
scalar tree_4_3_u05_r6_network.node[36].content_store 	p_hit[36] 	0.32633258008773
scalar tree_4_3_u05_r6_network.node[36].content_store 	hits[36] 	4910
scalar tree_4_3_u05_r6_network.node[36].content_store 	misses[36] 	10136
scalar tree_4_3_u05_r6_network.node[36].content_store 	decision_yes[36] 	10136
scalar tree_4_3_u05_r6_network.node[36].content_store 	decision_no[36] 	0
scalar tree_4_3_u05_r6_network.node[36].content_store 	decision_ratio[36] 	1
scalar tree_4_3_u05_r6_network.node[37].core_layer 	interests[37] 	13002
scalar tree_4_3_u05_r6_network.node[37].core_layer 	data[37] 	10014
scalar tree_4_3_u05_r6_network.node[37].content_store 	p_hit[37] 	0.22973388709429
scalar tree_4_3_u05_r6_network.node[37].content_store 	hits[37] 	2987
scalar tree_4_3_u05_r6_network.node[37].content_store 	misses[37] 	10015
scalar tree_4_3_u05_r6_network.node[37].content_store 	decision_yes[37] 	10014
scalar tree_4_3_u05_r6_network.node[37].content_store 	decision_no[37] 	0
scalar tree_4_3_u05_r6_network.node[37].content_store 	decision_ratio[37] 	1
scalar tree_4_3_u05_r6_network.node[38].core_layer 	interests[38] 	13087
scalar tree_4_3_u05_r6_network.node[38].core_layer 	data[38] 	10098
scalar tree_4_3_u05_r6_network.node[38].content_store 	p_hit[38] 	0.22831817834492
scalar tree_4_3_u05_r6_network.node[38].content_store 	hits[38] 	2988
scalar tree_4_3_u05_r6_network.node[38].content_store 	misses[38] 	10099
scalar tree_4_3_u05_r6_network.node[38].content_store 	decision_yes[38] 	10098
scalar tree_4_3_u05_r6_network.node[38].content_store 	decision_no[38] 	0
scalar tree_4_3_u05_r6_network.node[38].content_store 	decision_ratio[38] 	1
scalar tree_4_3_u05_r6_network.node[39].core_layer 	interests[39] 	13049
scalar tree_4_3_u05_r6_network.node[39].core_layer 	data[39] 	10057
scalar tree_4_3_u05_r6_network.node[39].content_store 	p_hit[39] 	0.22928960073569
scalar tree_4_3_u05_r6_network.node[39].content_store 	hits[39] 	2992
scalar tree_4_3_u05_r6_network.node[39].content_store 	misses[39] 	10057
scalar tree_4_3_u05_r6_network.node[39].content_store 	decision_yes[39] 	10057
scalar tree_4_3_u05_r6_network.node[39].content_store 	decision_no[39] 	0
scalar tree_4_3_u05_r6_network.node[39].content_store 	decision_ratio[39] 	1
scalar tree_4_3_u05_r6_network.client[13] 	hdistance[13] 	3.0861416925792
scalar tree_4_3_u05_r6_network.client[13] 	downloads[13] 	11899
scalar tree_4_3_u05_r6_network.client[13] 	avg_time[13] 	0.004892335291
scalar tree_4_3_u05_r6_network.client[14] 	hdistance[14] 	3.0729538845035
scalar tree_4_3_u05_r6_network.client[14] 	downloads[14] 	12035
scalar tree_4_3_u05_r6_network.client[14] 	avg_time[14] 	0.004861369362
scalar tree_4_3_u05_r6_network.client[15] 	hdistance[15] 	3.1023496947905
scalar tree_4_3_u05_r6_network.client[15] 	downloads[15] 	11959
scalar tree_4_3_u05_r6_network.client[15] 	avg_time[15] 	0.004913061525
scalar tree_4_3_u05_r6_network.client[16] 	hdistance[16] 	3.0016963528414
scalar tree_4_3_u05_r6_network.client[16] 	downloads[16] 	11790
scalar tree_4_3_u05_r6_network.client[16] 	avg_time[16] 	0.004718152896
scalar tree_4_3_u05_r6_network.client[17] 	hdistance[17] 	3.1675096948238
scalar tree_4_3_u05_r6_network.client[17] 	downloads[17] 	11862
scalar tree_4_3_u05_r6_network.client[17] 	avg_time[17] 	0.005027541014
scalar tree_4_3_u05_r6_network.client[18] 	hdistance[18] 	2.964617314931
scalar tree_4_3_u05_r6_network.client[18] 	downloads[18] 	11955
scalar tree_4_3_u05_r6_network.client[18] 	avg_time[18] 	0.004730794601
scalar tree_4_3_u05_r6_network.client[19] 	hdistance[19] 	3.0329633647668
scalar tree_4_3_u05_r6_network.client[19] 	downloads[19] 	11983
scalar tree_4_3_u05_r6_network.client[19] 	avg_time[19] 	0.004861745748
scalar tree_4_3_u05_r6_network.client[20] 	hdistance[20] 	3.0467203489347
scalar tree_4_3_u05_r6_network.client[20] 	downloads[20] 	11922
scalar tree_4_3_u05_r6_network.client[20] 	avg_time[20] 	0.00487372618
scalar tree_4_3_u05_r6_network.client[21] 	hdistance[21] 	3.0490823021344
scalar tree_4_3_u05_r6_network.client[21] 	downloads[21] 	12041
scalar tree_4_3_u05_r6_network.client[21] 	avg_time[21] 	0.004881372879
scalar tree_4_3_u05_r6_network.client[22] 	hdistance[22] 	3.018882238894
scalar tree_4_3_u05_r6_network.client[22] 	downloads[22] 	11863
scalar tree_4_3_u05_r6_network.client[22] 	avg_time[22] 	0.004822463933
scalar tree_4_3_u05_r6_network.client[23] 	hdistance[23] 	2.9660349495447
scalar tree_4_3_u05_r6_network.client[23] 	downloads[23] 	12189
scalar tree_4_3_u05_r6_network.client[23] 	avg_time[23] 	0.004716064372
scalar tree_4_3_u05_r6_network.client[24] 	hdistance[24] 	2.9768195413759
scalar tree_4_3_u05_r6_network.client[24] 	downloads[24] 	12036
scalar tree_4_3_u05_r6_network.client[24] 	avg_time[24] 	0.004727647375
scalar tree_4_3_u05_r6_network.client[25] 	hdistance[25] 	2.9612617135207
scalar tree_4_3_u05_r6_network.client[25] 	downloads[25] 	11952
scalar tree_4_3_u05_r6_network.client[25] 	avg_time[25] 	0.004708468775
scalar tree_4_3_u05_r6_network.client[26] 	hdistance[26] 	3.1216518782652
scalar tree_4_3_u05_r6_network.client[26] 	downloads[26] 	12059
scalar tree_4_3_u05_r6_network.client[26] 	avg_time[26] 	0.004940041775
scalar tree_4_3_u05_r6_network.client[27] 	hdistance[27] 	2.989671128739
scalar tree_4_3_u05_r6_network.client[27] 	downloads[27] 	12102
scalar tree_4_3_u05_r6_network.client[27] 	avg_time[27] 	0.004677929616
scalar tree_4_3_u05_r6_network.client[28] 	hdistance[28] 	2.9357292101964
scalar tree_4_3_u05_r6_network.client[28] 	downloads[28] 	11965
scalar tree_4_3_u05_r6_network.client[28] 	avg_time[28] 	0.004661182924
scalar tree_4_3_u05_r6_network.client[29] 	hdistance[29] 	3.0920026547204
scalar tree_4_3_u05_r6_network.client[29] 	downloads[29] 	12054
scalar tree_4_3_u05_r6_network.client[29] 	avg_time[29] 	0.004874229593
scalar tree_4_3_u05_r6_network.client[30] 	hdistance[30] 	3.0669665167416
scalar tree_4_3_u05_r6_network.client[30] 	downloads[30] 	12006
scalar tree_4_3_u05_r6_network.client[30] 	avg_time[30] 	0.004833474121
scalar tree_4_3_u05_r6_network.client[31] 	hdistance[31] 	3.1340893929286
scalar tree_4_3_u05_r6_network.client[31] 	downloads[31] 	11992
scalar tree_4_3_u05_r6_network.client[31] 	avg_time[31] 	0.004959136416
scalar tree_4_3_u05_r6_network.client[32] 	hdistance[32] 	2.9776759683465
scalar tree_4_3_u05_r6_network.client[32] 	downloads[32] 	12005
scalar tree_4_3_u05_r6_network.client[32] 	avg_time[32] 	0.004745045208
scalar tree_4_3_u05_r6_network.client[33] 	hdistance[33] 	3.1320351655575
scalar tree_4_3_u05_r6_network.client[33] 	downloads[33] 	12171
scalar tree_4_3_u05_r6_network.client[33] 	avg_time[33] 	0.004954281281
scalar tree_4_3_u05_r6_network.client[34] 	hdistance[34] 	3.0556252613969
scalar tree_4_3_u05_r6_network.client[34] 	downloads[34] 	11955
scalar tree_4_3_u05_r6_network.client[34] 	avg_time[34] 	0.004890512025
scalar tree_4_3_u05_r6_network.client[35] 	hdistance[35] 	3.0439496772058
scalar tree_4_3_u05_r6_network.client[35] 	downloads[35] 	12082
scalar tree_4_3_u05_r6_network.client[35] 	avg_time[35] 	0.004870548214
scalar tree_4_3_u05_r6_network.client[36] 	hdistance[36] 	2.9461633155519
scalar tree_4_3_u05_r6_network.client[36] 	downloads[36] 	12185
scalar tree_4_3_u05_r6_network.client[36] 	avg_time[36] 	0.004683056351
scalar tree_4_3_u05_r6_network.client[37] 	hdistance[37] 	3.0692615435906
scalar tree_4_3_u05_r6_network.client[37] 	downloads[37] 	11998
scalar tree_4_3_u05_r6_network.client[37] 	avg_time[37] 	0.004848919821
scalar tree_4_3_u05_r6_network.client[38] 	hdistance[38] 	3.0813520006627
scalar tree_4_3_u05_r6_network.client[38] 	downloads[38] 	12071
scalar tree_4_3_u05_r6_network.client[38] 	avg_time[38] 	0.004866244669
scalar tree_4_3_u05_r6_network.client[39] 	hdistance[39] 	3.090506804709
scalar tree_4_3_u05_r6_network.client[39] 	downloads[39] 	11977
scalar tree_4_3_u05_r6_network.client[39] 	avg_time[39] 	0.004876009358
