version 2
run General-104-20160819-16:32:47-23511
attr a 0.9
attr cd lce
attr configname General
attr cr lru
attr datetime 20160819-16:32:47
attr experiment General
attr fsize 1
attr inifile hw5115/scenario_A/NRR-LCE.ini
attr iterationvars "$name=tree_4_3, $un=05, $rep=5, $cd=lce, $cr=lru, $fsize=1, $a=0.9, $sl=nrr, $ttl=1000, $variance=0.05"
attr iterationvars2 "$name=tree_4_3, $un=05, $rep=5, $cd=lce, $cr=lru, $fsize=1, $a=0.9, $sl=nrr, $ttl=1000, $variance=0.05, $repetition=0"
attr measurement "$name=tree_4_3, $un=05, $rep=5, $cd=lce, $cr=lru, $fsize=1, $a=0.9, $sl=nrr, $ttl=1000, $variance=0.05"
attr name tree_4_3
attr network networks.${name}_u${un}_r${rep}_network
attr processid 23511
attr rep 5
attr repetition 0
attr replication #0
attr resultdir results
attr runnumber 104
attr seedset 5
attr sl nrr
attr ttl 1000
attr un 05
attr variance 0.05

scalar . 	a 	0.9
scalar . 	fsize 	1
scalar . 	rep 	5
scalar . 	ttl 	1000
scalar . 	un 	05
scalar . 	variance 	0.05
scalar tree_4_3_u05_r5_network.content_distribution 	repo-0 	0
scalar tree_4_3_u05_r5_network.content_distribution 	client-0 	13
scalar tree_4_3_u05_r5_network.content_distribution 	client-1 	14
scalar tree_4_3_u05_r5_network.content_distribution 	client-2 	15
scalar tree_4_3_u05_r5_network.content_distribution 	client-3 	16
scalar tree_4_3_u05_r5_network.content_distribution 	client-4 	17
scalar tree_4_3_u05_r5_network.content_distribution 	client-5 	18
scalar tree_4_3_u05_r5_network.content_distribution 	client-6 	19
scalar tree_4_3_u05_r5_network.content_distribution 	client-7 	20
scalar tree_4_3_u05_r5_network.content_distribution 	client-8 	21
scalar tree_4_3_u05_r5_network.content_distribution 	client-9 	22
scalar tree_4_3_u05_r5_network.content_distribution 	client-10 	23
scalar tree_4_3_u05_r5_network.content_distribution 	client-11 	24
scalar tree_4_3_u05_r5_network.content_distribution 	client-12 	25
scalar tree_4_3_u05_r5_network.content_distribution 	client-13 	26
scalar tree_4_3_u05_r5_network.content_distribution 	client-14 	27
scalar tree_4_3_u05_r5_network.content_distribution 	client-15 	28
scalar tree_4_3_u05_r5_network.content_distribution 	client-16 	29
scalar tree_4_3_u05_r5_network.content_distribution 	client-17 	30
scalar tree_4_3_u05_r5_network.content_distribution 	client-18 	31
scalar tree_4_3_u05_r5_network.content_distribution 	client-19 	32
scalar tree_4_3_u05_r5_network.content_distribution 	client-20 	33
scalar tree_4_3_u05_r5_network.content_distribution 	client-21 	34
scalar tree_4_3_u05_r5_network.content_distribution 	client-22 	35
scalar tree_4_3_u05_r5_network.content_distribution 	client-23 	36
scalar tree_4_3_u05_r5_network.content_distribution 	client-24 	37
scalar tree_4_3_u05_r5_network.content_distribution 	client-25 	38
scalar tree_4_3_u05_r5_network.content_distribution 	client-26 	39
scalar tree_4_3_u05_r5_network.content_distribution 	repo-0_card 	100000
scalar tree_4_3_u05_r5_network.content_distribution 	repo-0_price 	0
scalar tree_4_3_u05_r5_network.statistics 	stabilization_time 	488.7
scalar tree_4_3_u05_r5_network.statistics 	p_hit 	0.19312834346731
scalar tree_4_3_u05_r5_network.statistics 	interests 	27700.5
scalar tree_4_3_u05_r5_network.statistics 	data 	19587.575
scalar tree_4_3_u05_r5_network.statistics 	hdistance 	3.0403297631478
scalar tree_4_3_u05_r5_network.statistics 	avg_time 	0.00482859291
scalar tree_4_3_u05_r5_network.statistics 	downloads 	324490
scalar tree_4_3_u05_r5_network.statistics 	total_cost 	0
scalar tree_4_3_u05_r5_network.statistics 	total_replicas 	100000
scalar tree_4_3_u05_r5_network.statistics 	inner_hit 	0.3739159912478
scalar tree_4_3_u05_r5_network.node[0].core_layer 	interests[0] 	204066
scalar tree_4_3_u05_r5_network.node[0].core_layer 	repo_load[0] 	203158
scalar tree_4_3_u05_r5_network.node[0].core_layer 	data[0] 	0
scalar tree_4_3_u05_r5_network.node[0].core_layer 	repo_int[0] 	203158
scalar tree_4_3_u05_r5_network.node[0].content_store 	p_hit[0] 	0.0044495408348279
scalar tree_4_3_u05_r5_network.node[0].content_store 	hits[0] 	908
scalar tree_4_3_u05_r5_network.node[0].content_store 	misses[0] 	203158
scalar tree_4_3_u05_r5_network.node[0].content_store 	decision_yes[0] 	203158
scalar tree_4_3_u05_r5_network.node[0].content_store 	decision_no[0] 	0
scalar tree_4_3_u05_r5_network.node[0].content_store 	decision_ratio[0] 	1
scalar tree_4_3_u05_r5_network.node[1].core_layer 	interests[1] 	106894
scalar tree_4_3_u05_r5_network.node[1].core_layer 	data[1] 	106016
scalar tree_4_3_u05_r5_network.node[1].content_store 	p_hit[1] 	0.0081763242090295
scalar tree_4_3_u05_r5_network.node[1].content_store 	hits[1] 	874
scalar tree_4_3_u05_r5_network.node[1].content_store 	misses[1] 	106020
scalar tree_4_3_u05_r5_network.node[1].content_store 	decision_yes[1] 	106008
scalar tree_4_3_u05_r5_network.node[1].content_store 	decision_no[1] 	0
scalar tree_4_3_u05_r5_network.node[1].content_store 	decision_ratio[1] 	1
scalar tree_4_3_u05_r5_network.node[2].core_layer 	interests[2] 	78386
scalar tree_4_3_u05_r5_network.node[2].core_layer 	data[2] 	77205
scalar tree_4_3_u05_r5_network.node[2].content_store 	p_hit[2] 	0.015015436429975
scalar tree_4_3_u05_r5_network.node[2].content_store 	hits[2] 	1177
scalar tree_4_3_u05_r5_network.node[2].content_store 	misses[2] 	77209
scalar tree_4_3_u05_r5_network.node[2].content_store 	decision_yes[2] 	77197
scalar tree_4_3_u05_r5_network.node[2].content_store 	decision_no[2] 	0
scalar tree_4_3_u05_r5_network.node[2].content_store 	decision_ratio[2] 	1
scalar tree_4_3_u05_r5_network.node[3].core_layer 	interests[3] 	51485
scalar tree_4_3_u05_r5_network.node[3].core_layer 	data[3] 	49795
scalar tree_4_3_u05_r5_network.node[3].content_store 	p_hit[3] 	0.03278624842187
scalar tree_4_3_u05_r5_network.node[3].content_store 	hits[3] 	1688
scalar tree_4_3_u05_r5_network.node[3].content_store 	misses[3] 	49797
scalar tree_4_3_u05_r5_network.node[3].content_store 	decision_yes[3] 	49791
scalar tree_4_3_u05_r5_network.node[3].content_store 	decision_no[3] 	0
scalar tree_4_3_u05_r5_network.node[3].content_store 	decision_ratio[3] 	1
scalar tree_4_3_u05_r5_network.node[4].core_layer 	interests[4] 	38680
scalar tree_4_3_u05_r5_network.node[4].core_layer 	data[4] 	37305
scalar tree_4_3_u05_r5_network.node[4].content_store 	p_hit[4] 	0.035548086866598
scalar tree_4_3_u05_r5_network.node[4].content_store 	hits[4] 	1375
scalar tree_4_3_u05_r5_network.node[4].content_store 	misses[4] 	37305
scalar tree_4_3_u05_r5_network.node[4].content_store 	decision_yes[4] 	37302
scalar tree_4_3_u05_r5_network.node[4].content_store 	decision_no[4] 	0
scalar tree_4_3_u05_r5_network.node[4].content_store 	decision_ratio[4] 	1
scalar tree_4_3_u05_r5_network.node[5].core_layer 	interests[5] 	47774
scalar tree_4_3_u05_r5_network.node[5].core_layer 	data[5] 	44144
scalar tree_4_3_u05_r5_network.node[5].content_store 	p_hit[5] 	0.075940888349311
scalar tree_4_3_u05_r5_network.node[5].content_store 	hits[5] 	3628
scalar tree_4_3_u05_r5_network.node[5].content_store 	misses[5] 	44146
scalar tree_4_3_u05_r5_network.node[5].content_store 	decision_yes[5] 	44141
scalar tree_4_3_u05_r5_network.node[5].content_store 	decision_no[5] 	0
scalar tree_4_3_u05_r5_network.node[5].content_store 	decision_ratio[5] 	1
scalar tree_4_3_u05_r5_network.node[6].core_layer 	interests[6] 	13744
scalar tree_4_3_u05_r5_network.node[6].core_layer 	data[6] 	10869
scalar tree_4_3_u05_r5_network.node[6].content_store 	p_hit[6] 	0.20910942956927
scalar tree_4_3_u05_r5_network.node[6].content_store 	hits[6] 	2874
scalar tree_4_3_u05_r5_network.node[6].content_store 	misses[6] 	10870
scalar tree_4_3_u05_r5_network.node[6].content_store 	decision_yes[6] 	10869
scalar tree_4_3_u05_r5_network.node[6].content_store 	decision_no[6] 	0
scalar tree_4_3_u05_r5_network.node[6].content_store 	decision_ratio[6] 	1
scalar tree_4_3_u05_r5_network.node[7].core_layer 	interests[7] 	30132
scalar tree_4_3_u05_r5_network.node[7].core_layer 	data[7] 	28830
scalar tree_4_3_u05_r5_network.node[7].content_store 	p_hit[7] 	0.043176689234037
scalar tree_4_3_u05_r5_network.node[7].content_store 	hits[7] 	1301
scalar tree_4_3_u05_r5_network.node[7].content_store 	misses[7] 	28831
scalar tree_4_3_u05_r5_network.node[7].content_store 	decision_yes[7] 	28826
scalar tree_4_3_u05_r5_network.node[7].content_store 	decision_no[7] 	0
scalar tree_4_3_u05_r5_network.node[7].content_store 	decision_ratio[7] 	1
scalar tree_4_3_u05_r5_network.node[8].core_layer 	interests[8] 	38966
scalar tree_4_3_u05_r5_network.node[8].core_layer 	data[8] 	37507
scalar tree_4_3_u05_r5_network.node[8].content_store 	p_hit[8] 	0.037442898937535
scalar tree_4_3_u05_r5_network.node[8].content_store 	hits[8] 	1459
scalar tree_4_3_u05_r5_network.node[8].content_store 	misses[8] 	37507
scalar tree_4_3_u05_r5_network.node[8].content_store 	decision_yes[8] 	37506
scalar tree_4_3_u05_r5_network.node[8].content_store 	decision_no[8] 	0
scalar tree_4_3_u05_r5_network.node[8].content_store 	decision_ratio[8] 	1
scalar tree_4_3_u05_r5_network.node[9].core_layer 	interests[9] 	31415
scalar tree_4_3_u05_r5_network.node[9].core_layer 	data[9] 	26292
scalar tree_4_3_u05_r5_network.node[9].content_store 	p_hit[9] 	0.16294763647939
scalar tree_4_3_u05_r5_network.node[9].content_store 	hits[9] 	5119
scalar tree_4_3_u05_r5_network.node[9].content_store 	misses[9] 	26296
scalar tree_4_3_u05_r5_network.node[9].content_store 	decision_yes[9] 	26291
scalar tree_4_3_u05_r5_network.node[9].content_store 	decision_no[9] 	0
scalar tree_4_3_u05_r5_network.node[9].content_store 	decision_ratio[9] 	1
scalar tree_4_3_u05_r5_network.node[10].core_layer 	interests[10] 	45847
scalar tree_4_3_u05_r5_network.node[10].core_layer 	data[10] 	42595
scalar tree_4_3_u05_r5_network.node[10].content_store 	p_hit[10] 	0.070866141732283
scalar tree_4_3_u05_r5_network.node[10].content_store 	hits[10] 	3249
scalar tree_4_3_u05_r5_network.node[10].content_store 	misses[10] 	42598
scalar tree_4_3_u05_r5_network.node[10].content_store 	decision_yes[10] 	42592
scalar tree_4_3_u05_r5_network.node[10].content_store 	decision_no[10] 	0
scalar tree_4_3_u05_r5_network.node[10].content_store 	decision_ratio[10] 	1
scalar tree_4_3_u05_r5_network.node[11].core_layer 	interests[11] 	21249
scalar tree_4_3_u05_r5_network.node[11].core_layer 	data[11] 	19879
scalar tree_4_3_u05_r5_network.node[11].content_store 	p_hit[11] 	0.064473622288108
scalar tree_4_3_u05_r5_network.node[11].content_store 	hits[11] 	1370
scalar tree_4_3_u05_r5_network.node[11].content_store 	misses[11] 	19879
scalar tree_4_3_u05_r5_network.node[11].content_store 	decision_yes[11] 	19877
scalar tree_4_3_u05_r5_network.node[11].content_store 	decision_no[11] 	0
scalar tree_4_3_u05_r5_network.node[11].content_store 	decision_ratio[11] 	1
scalar tree_4_3_u05_r5_network.node[12].core_layer 	interests[12] 	33006
scalar tree_4_3_u05_r5_network.node[12].core_layer 	data[12] 	31206
scalar tree_4_3_u05_r5_network.node[12].content_store 	p_hit[12] 	0.054474943949585
scalar tree_4_3_u05_r5_network.node[12].content_store 	hits[12] 	1798
scalar tree_4_3_u05_r5_network.node[12].content_store 	misses[12] 	31208
scalar tree_4_3_u05_r5_network.node[12].content_store 	decision_yes[12] 	31205
scalar tree_4_3_u05_r5_network.node[12].content_store 	decision_no[12] 	0
scalar tree_4_3_u05_r5_network.node[12].content_store 	decision_ratio[12] 	1
scalar tree_4_3_u05_r5_network.node[13].core_layer 	interests[13] 	12977
scalar tree_4_3_u05_r5_network.node[13].core_layer 	data[13] 	10191
scalar tree_4_3_u05_r5_network.node[13].content_store 	p_hit[13] 	0.21445634584264
scalar tree_4_3_u05_r5_network.node[13].content_store 	hits[13] 	2783
scalar tree_4_3_u05_r5_network.node[13].content_store 	misses[13] 	10194
scalar tree_4_3_u05_r5_network.node[13].content_store 	decision_yes[13] 	10191
scalar tree_4_3_u05_r5_network.node[13].content_store 	decision_no[13] 	0
scalar tree_4_3_u05_r5_network.node[13].content_store 	decision_ratio[13] 	1
scalar tree_4_3_u05_r5_network.node[14].core_layer 	interests[14] 	14749
scalar tree_4_3_u05_r5_network.node[14].core_layer 	data[14] 	10014
scalar tree_4_3_u05_r5_network.node[14].content_store 	p_hit[14] 	0.32103871448912
scalar tree_4_3_u05_r5_network.node[14].content_store 	hits[14] 	4735
scalar tree_4_3_u05_r5_network.node[14].content_store 	misses[14] 	10014
scalar tree_4_3_u05_r5_network.node[14].content_store 	decision_yes[14] 	10014
scalar tree_4_3_u05_r5_network.node[14].content_store 	decision_no[14] 	0
scalar tree_4_3_u05_r5_network.node[14].content_store 	decision_ratio[14] 	1
scalar tree_4_3_u05_r5_network.node[15].core_layer 	interests[15] 	13433
scalar tree_4_3_u05_r5_network.node[15].core_layer 	data[15] 	10018
scalar tree_4_3_u05_r5_network.node[15].content_store 	p_hit[15] 	0.25415022705278
scalar tree_4_3_u05_r5_network.node[15].content_store 	hits[15] 	3414
scalar tree_4_3_u05_r5_network.node[15].content_store 	misses[15] 	10019
scalar tree_4_3_u05_r5_network.node[15].content_store 	decision_yes[15] 	10018
scalar tree_4_3_u05_r5_network.node[15].content_store 	decision_no[15] 	0
scalar tree_4_3_u05_r5_network.node[15].content_store 	decision_ratio[15] 	1
scalar tree_4_3_u05_r5_network.node[16].core_layer 	interests[16] 	13897
scalar tree_4_3_u05_r5_network.node[16].core_layer 	data[16] 	10178
scalar tree_4_3_u05_r5_network.node[16].content_store 	p_hit[16] 	0.26761171475858
scalar tree_4_3_u05_r5_network.node[16].content_store 	hits[16] 	3719
scalar tree_4_3_u05_r5_network.node[16].content_store 	misses[16] 	10178
scalar tree_4_3_u05_r5_network.node[16].content_store 	decision_yes[16] 	10178
scalar tree_4_3_u05_r5_network.node[16].content_store 	decision_no[16] 	0
scalar tree_4_3_u05_r5_network.node[16].content_store 	decision_ratio[16] 	1
scalar tree_4_3_u05_r5_network.node[17].core_layer 	interests[17] 	13717
scalar tree_4_3_u05_r5_network.node[17].core_layer 	data[17] 	10180
scalar tree_4_3_u05_r5_network.node[17].content_store 	p_hit[17] 	0.25785521615514
scalar tree_4_3_u05_r5_network.node[17].content_store 	hits[17] 	3537
scalar tree_4_3_u05_r5_network.node[17].content_store 	misses[17] 	10180
scalar tree_4_3_u05_r5_network.node[17].content_store 	decision_yes[17] 	10180
scalar tree_4_3_u05_r5_network.node[17].content_store 	decision_no[17] 	0
scalar tree_4_3_u05_r5_network.node[17].content_store 	decision_ratio[17] 	1
scalar tree_4_3_u05_r5_network.node[18].core_layer 	interests[18] 	14036
scalar tree_4_3_u05_r5_network.node[18].core_layer 	data[18] 	10354
scalar tree_4_3_u05_r5_network.node[18].content_store 	p_hit[18] 	0.26232544884583
scalar tree_4_3_u05_r5_network.node[18].content_store 	hits[18] 	3682
scalar tree_4_3_u05_r5_network.node[18].content_store 	misses[18] 	10354
scalar tree_4_3_u05_r5_network.node[18].content_store 	decision_yes[18] 	10354
scalar tree_4_3_u05_r5_network.node[18].content_store 	decision_no[18] 	0
scalar tree_4_3_u05_r5_network.node[18].content_store 	decision_ratio[18] 	1
scalar tree_4_3_u05_r5_network.node[19].core_layer 	interests[19] 	13289
scalar tree_4_3_u05_r5_network.node[19].core_layer 	data[19] 	9900
scalar tree_4_3_u05_r5_network.node[19].content_store 	p_hit[19] 	0.25494770110618
scalar tree_4_3_u05_r5_network.node[19].content_store 	hits[19] 	3388
scalar tree_4_3_u05_r5_network.node[19].content_store 	misses[19] 	9901
scalar tree_4_3_u05_r5_network.node[19].content_store 	decision_yes[19] 	9900
scalar tree_4_3_u05_r5_network.node[19].content_store 	decision_no[19] 	0
scalar tree_4_3_u05_r5_network.node[19].content_store 	decision_ratio[19] 	1
scalar tree_4_3_u05_r5_network.node[20].core_layer 	interests[20] 	14414
scalar tree_4_3_u05_r5_network.node[20].core_layer 	data[20] 	9896
scalar tree_4_3_u05_r5_network.node[20].content_store 	p_hit[20] 	0.31330650756209
scalar tree_4_3_u05_r5_network.node[20].content_store 	hits[20] 	4516
scalar tree_4_3_u05_r5_network.node[20].content_store 	misses[20] 	9898
scalar tree_4_3_u05_r5_network.node[20].content_store 	decision_yes[20] 	9896
scalar tree_4_3_u05_r5_network.node[20].content_store 	decision_no[20] 	0
scalar tree_4_3_u05_r5_network.node[20].content_store 	decision_ratio[20] 	1
scalar tree_4_3_u05_r5_network.node[21].core_layer 	interests[21] 	12267
scalar tree_4_3_u05_r5_network.node[21].core_layer 	data[21] 	10214
scalar tree_4_3_u05_r5_network.node[21].content_store 	p_hit[21] 	0.16727806309611
scalar tree_4_3_u05_r5_network.node[21].content_store 	hits[21] 	2052
scalar tree_4_3_u05_r5_network.node[21].content_store 	misses[21] 	10215
scalar tree_4_3_u05_r5_network.node[21].content_store 	decision_yes[21] 	10214
scalar tree_4_3_u05_r5_network.node[21].content_store 	decision_no[21] 	0
scalar tree_4_3_u05_r5_network.node[21].content_store 	decision_ratio[21] 	1
scalar tree_4_3_u05_r5_network.node[22].core_layer 	interests[22] 	12820
scalar tree_4_3_u05_r5_network.node[22].core_layer 	data[22] 	9985
scalar tree_4_3_u05_r5_network.node[22].content_store 	p_hit[22] 	0.2210608424337
scalar tree_4_3_u05_r5_network.node[22].content_store 	hits[22] 	2834
scalar tree_4_3_u05_r5_network.node[22].content_store 	misses[22] 	9986
scalar tree_4_3_u05_r5_network.node[22].content_store 	decision_yes[22] 	9985
scalar tree_4_3_u05_r5_network.node[22].content_store 	decision_no[22] 	0
scalar tree_4_3_u05_r5_network.node[22].content_store 	decision_ratio[22] 	1
scalar tree_4_3_u05_r5_network.node[23].core_layer 	interests[23] 	12824
scalar tree_4_3_u05_r5_network.node[23].core_layer 	data[23] 	10095
scalar tree_4_3_u05_r5_network.node[23].content_store 	p_hit[23] 	0.21272613849033
scalar tree_4_3_u05_r5_network.node[23].content_store 	hits[23] 	2728
scalar tree_4_3_u05_r5_network.node[23].content_store 	misses[23] 	10096
scalar tree_4_3_u05_r5_network.node[23].content_store 	decision_yes[23] 	10095
scalar tree_4_3_u05_r5_network.node[23].content_store 	decision_no[23] 	0
scalar tree_4_3_u05_r5_network.node[23].content_store 	decision_ratio[23] 	1
scalar tree_4_3_u05_r5_network.node[24].core_layer 	interests[24] 	14636
scalar tree_4_3_u05_r5_network.node[24].core_layer 	data[24] 	10012
scalar tree_4_3_u05_r5_network.node[24].content_store 	p_hit[24] 	0.31593331511342
scalar tree_4_3_u05_r5_network.node[24].content_store 	hits[24] 	4624
scalar tree_4_3_u05_r5_network.node[24].content_store 	misses[24] 	10012
scalar tree_4_3_u05_r5_network.node[24].content_store 	decision_yes[24] 	10012
scalar tree_4_3_u05_r5_network.node[24].content_store 	decision_no[24] 	0
scalar tree_4_3_u05_r5_network.node[24].content_store 	decision_ratio[24] 	1
scalar tree_4_3_u05_r5_network.node[25].core_layer 	interests[25] 	12824
scalar tree_4_3_u05_r5_network.node[25].core_layer 	data[25] 	9953
scalar tree_4_3_u05_r5_network.node[25].content_store 	p_hit[25] 	0.22379912663755
scalar tree_4_3_u05_r5_network.node[25].content_store 	hits[25] 	2870
scalar tree_4_3_u05_r5_network.node[25].content_store 	misses[25] 	9954
scalar tree_4_3_u05_r5_network.node[25].content_store 	decision_yes[25] 	9953
scalar tree_4_3_u05_r5_network.node[25].content_store 	decision_no[25] 	0
scalar tree_4_3_u05_r5_network.node[25].content_store 	decision_ratio[25] 	1
scalar tree_4_3_u05_r5_network.node[26].core_layer 	interests[26] 	13121
scalar tree_4_3_u05_r5_network.node[26].core_layer 	data[26] 	10160
scalar tree_4_3_u05_r5_network.node[26].content_store 	p_hit[26] 	0.22566877524579
scalar tree_4_3_u05_r5_network.node[26].content_store 	hits[26] 	2961
scalar tree_4_3_u05_r5_network.node[26].content_store 	misses[26] 	10160
scalar tree_4_3_u05_r5_network.node[26].content_store 	decision_yes[26] 	10160
scalar tree_4_3_u05_r5_network.node[26].content_store 	decision_no[26] 	0
scalar tree_4_3_u05_r5_network.node[26].content_store 	decision_ratio[26] 	1
scalar tree_4_3_u05_r5_network.node[27].core_layer 	interests[27] 	14626
scalar tree_4_3_u05_r5_network.node[27].core_layer 	data[27] 	9989
scalar tree_4_3_u05_r5_network.node[27].content_store 	p_hit[27] 	0.31696977984411
scalar tree_4_3_u05_r5_network.node[27].content_store 	hits[27] 	4636
scalar tree_4_3_u05_r5_network.node[27].content_store 	misses[27] 	9990
scalar tree_4_3_u05_r5_network.node[27].content_store 	decision_yes[27] 	9989
scalar tree_4_3_u05_r5_network.node[27].content_store 	decision_no[27] 	0
scalar tree_4_3_u05_r5_network.node[27].content_store 	decision_ratio[27] 	1
scalar tree_4_3_u05_r5_network.node[28].core_layer 	interests[28] 	13311
scalar tree_4_3_u05_r5_network.node[28].core_layer 	data[28] 	10010
scalar tree_4_3_u05_r5_network.node[28].content_store 	p_hit[28] 	0.24791525805725
scalar tree_4_3_u05_r5_network.node[28].content_store 	hits[28] 	3300
scalar tree_4_3_u05_r5_network.node[28].content_store 	misses[28] 	10011
scalar tree_4_3_u05_r5_network.node[28].content_store 	decision_yes[28] 	10010
scalar tree_4_3_u05_r5_network.node[28].content_store 	decision_no[28] 	0
scalar tree_4_3_u05_r5_network.node[28].content_store 	decision_ratio[28] 	1
scalar tree_4_3_u05_r5_network.node[29].core_layer 	interests[29] 	14330
scalar tree_4_3_u05_r5_network.node[29].core_layer 	data[29] 	9789
scalar tree_4_3_u05_r5_network.node[29].content_store 	p_hit[29] 	0.31681786461968
scalar tree_4_3_u05_r5_network.node[29].content_store 	hits[29] 	4540
scalar tree_4_3_u05_r5_network.node[29].content_store 	misses[29] 	9790
scalar tree_4_3_u05_r5_network.node[29].content_store 	decision_yes[29] 	9789
scalar tree_4_3_u05_r5_network.node[29].content_store 	decision_no[29] 	0
scalar tree_4_3_u05_r5_network.node[29].content_store 	decision_ratio[29] 	1
scalar tree_4_3_u05_r5_network.node[30].core_layer 	interests[30] 	13345
scalar tree_4_3_u05_r5_network.node[30].core_layer 	data[30] 	9966
scalar tree_4_3_u05_r5_network.node[30].content_store 	p_hit[30] 	0.25320344698389
scalar tree_4_3_u05_r5_network.node[30].content_store 	hits[30] 	3379
scalar tree_4_3_u05_r5_network.node[30].content_store 	misses[30] 	9966
scalar tree_4_3_u05_r5_network.node[30].content_store 	decision_yes[30] 	9966
scalar tree_4_3_u05_r5_network.node[30].content_store 	decision_no[30] 	0
scalar tree_4_3_u05_r5_network.node[30].content_store 	decision_ratio[30] 	1
scalar tree_4_3_u05_r5_network.node[31].core_layer 	interests[31] 	13866
scalar tree_4_3_u05_r5_network.node[31].core_layer 	data[31] 	10153
scalar tree_4_3_u05_r5_network.node[31].content_store 	p_hit[31] 	0.2676330592817
scalar tree_4_3_u05_r5_network.node[31].content_store 	hits[31] 	3711
scalar tree_4_3_u05_r5_network.node[31].content_store 	misses[31] 	10155
scalar tree_4_3_u05_r5_network.node[31].content_store 	decision_yes[31] 	10153
scalar tree_4_3_u05_r5_network.node[31].content_store 	decision_no[31] 	0
scalar tree_4_3_u05_r5_network.node[31].content_store 	decision_ratio[31] 	1
scalar tree_4_3_u05_r5_network.node[32].core_layer 	interests[32] 	13795
scalar tree_4_3_u05_r5_network.node[32].core_layer 	data[32] 	10103
scalar tree_4_3_u05_r5_network.node[32].content_store 	p_hit[32] 	0.26763320043494
scalar tree_4_3_u05_r5_network.node[32].content_store 	hits[32] 	3692
scalar tree_4_3_u05_r5_network.node[32].content_store 	misses[32] 	10103
scalar tree_4_3_u05_r5_network.node[32].content_store 	decision_yes[32] 	10103
scalar tree_4_3_u05_r5_network.node[32].content_store 	decision_no[32] 	0
scalar tree_4_3_u05_r5_network.node[32].content_store 	decision_ratio[32] 	1
scalar tree_4_3_u05_r5_network.node[33].core_layer 	interests[33] 	13654
scalar tree_4_3_u05_r5_network.node[33].core_layer 	data[33] 	10050
scalar tree_4_3_u05_r5_network.node[33].content_store 	p_hit[33] 	0.26387871685953
scalar tree_4_3_u05_r5_network.node[33].content_store 	hits[33] 	3603
scalar tree_4_3_u05_r5_network.node[33].content_store 	misses[33] 	10051
scalar tree_4_3_u05_r5_network.node[33].content_store 	decision_yes[33] 	10050
scalar tree_4_3_u05_r5_network.node[33].content_store 	decision_no[33] 	0
scalar tree_4_3_u05_r5_network.node[33].content_store 	decision_ratio[33] 	1
scalar tree_4_3_u05_r5_network.node[34].core_layer 	interests[34] 	14601
scalar tree_4_3_u05_r5_network.node[34].core_layer 	data[34] 	10000
scalar tree_4_3_u05_r5_network.node[34].content_store 	p_hit[34] 	0.31504691459489
scalar tree_4_3_u05_r5_network.node[34].content_store 	hits[34] 	4600
scalar tree_4_3_u05_r5_network.node[34].content_store 	misses[34] 	10001
scalar tree_4_3_u05_r5_network.node[34].content_store 	decision_yes[34] 	10000
scalar tree_4_3_u05_r5_network.node[34].content_store 	decision_no[34] 	0
scalar tree_4_3_u05_r5_network.node[34].content_store 	decision_ratio[34] 	1
scalar tree_4_3_u05_r5_network.node[35].core_layer 	interests[35] 	12563
scalar tree_4_3_u05_r5_network.node[35].core_layer 	data[35] 	10127
scalar tree_4_3_u05_r5_network.node[35].content_store 	p_hit[35] 	0.19390273023959
scalar tree_4_3_u05_r5_network.node[35].content_store 	hits[35] 	2436
scalar tree_4_3_u05_r5_network.node[35].content_store 	misses[35] 	10127
scalar tree_4_3_u05_r5_network.node[35].content_store 	decision_yes[35] 	10127
scalar tree_4_3_u05_r5_network.node[35].content_store 	decision_no[35] 	0
scalar tree_4_3_u05_r5_network.node[35].content_store 	decision_ratio[35] 	1
scalar tree_4_3_u05_r5_network.node[36].core_layer 	interests[36] 	13907
scalar tree_4_3_u05_r5_network.node[36].core_layer 	data[36] 	10119
scalar tree_4_3_u05_r5_network.node[36].content_store 	p_hit[36] 	0.2723808154167
scalar tree_4_3_u05_r5_network.node[36].content_store 	hits[36] 	3788
scalar tree_4_3_u05_r5_network.node[36].content_store 	misses[36] 	10119
scalar tree_4_3_u05_r5_network.node[36].content_store 	decision_yes[36] 	10119
scalar tree_4_3_u05_r5_network.node[36].content_store 	decision_no[36] 	0
scalar tree_4_3_u05_r5_network.node[36].content_store 	decision_ratio[36] 	1
scalar tree_4_3_u05_r5_network.node[37].core_layer 	interests[37] 	12982
scalar tree_4_3_u05_r5_network.node[37].core_layer 	data[37] 	10034
scalar tree_4_3_u05_r5_network.node[37].content_store 	p_hit[37] 	0.22708365429056
scalar tree_4_3_u05_r5_network.node[37].content_store 	hits[37] 	2948
scalar tree_4_3_u05_r5_network.node[37].content_store 	misses[37] 	10034
scalar tree_4_3_u05_r5_network.node[37].content_store 	decision_yes[37] 	10034
scalar tree_4_3_u05_r5_network.node[37].content_store 	decision_no[37] 	0
scalar tree_4_3_u05_r5_network.node[37].content_store 	decision_ratio[37] 	1
scalar tree_4_3_u05_r5_network.node[38].core_layer 	interests[38] 	13232
scalar tree_4_3_u05_r5_network.node[38].core_layer 	data[38] 	10161
scalar tree_4_3_u05_r5_network.node[38].content_store 	p_hit[38] 	0.23186215235792
scalar tree_4_3_u05_r5_network.node[38].content_store 	hits[38] 	3068
scalar tree_4_3_u05_r5_network.node[38].content_store 	misses[38] 	10164
scalar tree_4_3_u05_r5_network.node[38].content_store 	decision_yes[38] 	10161
scalar tree_4_3_u05_r5_network.node[38].content_store 	decision_no[38] 	0
scalar tree_4_3_u05_r5_network.node[38].content_store 	decision_ratio[38] 	1
scalar tree_4_3_u05_r5_network.node[39].core_layer 	interests[39] 	13160
scalar tree_4_3_u05_r5_network.node[39].core_layer 	data[39] 	10209
scalar tree_4_3_u05_r5_network.node[39].content_store 	p_hit[39] 	0.22424012158055
scalar tree_4_3_u05_r5_network.node[39].content_store 	hits[39] 	2951
scalar tree_4_3_u05_r5_network.node[39].content_store 	misses[39] 	10209
scalar tree_4_3_u05_r5_network.node[39].content_store 	decision_yes[39] 	10209
scalar tree_4_3_u05_r5_network.node[39].content_store 	decision_no[39] 	0
scalar tree_4_3_u05_r5_network.node[39].content_store 	decision_ratio[39] 	1
scalar tree_4_3_u05_r5_network.client[13] 	hdistance[13] 	3.0993568601583
scalar tree_4_3_u05_r5_network.client[13] 	downloads[13] 	12128
scalar tree_4_3_u05_r5_network.client[13] 	avg_time[13] 	0.004902128735
scalar tree_4_3_u05_r5_network.client[14] 	hdistance[14] 	2.9545113095735
scalar tree_4_3_u05_r5_network.client[14] 	downloads[14] 	11981
scalar tree_4_3_u05_r5_network.client[14] 	avg_time[14] 	0.004688921154
scalar tree_4_3_u05_r5_network.client[15] 	hdistance[15] 	2.9843892717761
scalar tree_4_3_u05_r5_network.client[15] 	downloads[15] 	12043
scalar tree_4_3_u05_r5_network.client[15] 	avg_time[15] 	0.004678620295
scalar tree_4_3_u05_r5_network.client[16] 	hdistance[16] 	3.0257698007575
scalar tree_4_3_u05_r5_network.client[16] 	downloads[16] 	12146
scalar tree_4_3_u05_r5_network.client[16] 	avg_time[16] 	0.004830224711
scalar tree_4_3_u05_r5_network.client[17] 	hdistance[17] 	3.044990454055
scalar tree_4_3_u05_r5_network.client[17] 	downloads[17] 	12047
scalar tree_4_3_u05_r5_network.client[17] 	avg_time[17] 	0.004862152095
scalar tree_4_3_u05_r5_network.client[18] 	hdistance[18] 	3.0475801844446
scalar tree_4_3_u05_r5_network.client[18] 	downloads[18] 	12253
scalar tree_4_3_u05_r5_network.client[18] 	avg_time[18] 	0.00486917179
scalar tree_4_3_u05_r5_network.client[19] 	hdistance[19] 	2.9929417695992
scalar tree_4_3_u05_r5_network.client[19] 	downloads[19] 	11901
scalar tree_4_3_u05_r5_network.client[19] 	avg_time[19] 	0.004692860267
scalar tree_4_3_u05_r5_network.client[20] 	hdistance[20] 	2.9440983330527
scalar tree_4_3_u05_r5_network.client[20] 	downloads[20] 	11878
scalar tree_4_3_u05_r5_network.client[20] 	avg_time[20] 	0.004665212377
scalar tree_4_3_u05_r5_network.client[21] 	hdistance[21] 	3.1119569714522
scalar tree_4_3_u05_r5_network.client[21] 	downloads[21] 	12085
scalar tree_4_3_u05_r5_network.client[21] 	avg_time[21] 	0.004919483927
scalar tree_4_3_u05_r5_network.client[22] 	hdistance[22] 	3.1212782017948
scalar tree_4_3_u05_r5_network.client[22] 	downloads[22] 	11923
scalar tree_4_3_u05_r5_network.client[22] 	avg_time[22] 	0.004953326926
scalar tree_4_3_u05_r5_network.client[23] 	hdistance[23] 	3.1328659656151
scalar tree_4_3_u05_r5_network.client[23] 	downloads[23] 	11982
scalar tree_4_3_u05_r5_network.client[23] 	avg_time[23] 	0.004976394411
scalar tree_4_3_u05_r5_network.client[24] 	hdistance[24] 	2.9646734591615
scalar tree_4_3_u05_r5_network.client[24] 	downloads[24] 	11974
scalar tree_4_3_u05_r5_network.client[24] 	avg_time[24] 	0.004722325823
scalar tree_4_3_u05_r5_network.client[25] 	hdistance[25] 	3.0975383577811
scalar tree_4_3_u05_r5_network.client[25] 	downloads[25] 	11862
scalar tree_4_3_u05_r5_network.client[25] 	avg_time[25] 	0.004900777125
scalar tree_4_3_u05_r5_network.client[26] 	hdistance[26] 	3.0989591937882
scalar tree_4_3_u05_r5_network.client[26] 	downloads[26] 	12106
scalar tree_4_3_u05_r5_network.client[26] 	avg_time[26] 	0.004906489628
scalar tree_4_3_u05_r5_network.client[27] 	hdistance[27] 	2.9426263635607
scalar tree_4_3_u05_r5_network.client[27] 	downloads[27] 	12009
scalar tree_4_3_u05_r5_network.client[27] 	avg_time[27] 	0.004676404464
scalar tree_4_3_u05_r5_network.client[28] 	hdistance[28] 	3.0133176982997
scalar tree_4_3_u05_r5_network.client[28] 	downloads[28] 	11939
scalar tree_4_3_u05_r5_network.client[28] 	avg_time[28] 	0.004816983374
scalar tree_4_3_u05_r5_network.client[29] 	hdistance[29] 	2.9317007033302
scalar tree_4_3_u05_r5_network.client[29] 	downloads[29] 	11801
scalar tree_4_3_u05_r5_network.client[29] 	avg_time[29] 	0.004669509337
scalar tree_4_3_u05_r5_network.client[30] 	hdistance[30] 	3.002850435949
scalar tree_4_3_u05_r5_network.client[30] 	downloads[30] 	11928
scalar tree_4_3_u05_r5_network.client[30] 	avg_time[30] 	0.004801267328
scalar tree_4_3_u05_r5_network.client[31] 	hdistance[31] 	3.034494113773
scalar tree_4_3_u05_r5_network.client[31] 	downloads[31] 	12147
scalar tree_4_3_u05_r5_network.client[31] 	avg_time[31] 	0.004857265989
scalar tree_4_3_u05_r5_network.client[32] 	hdistance[32] 	3.0575294703636
scalar tree_4_3_u05_r5_network.client[32] 	downloads[32] 	12046
scalar tree_4_3_u05_r5_network.client[32] 	avg_time[32] 	0.004887235945
scalar tree_4_3_u05_r5_network.client[33] 	hdistance[33] 	3.0711641991925
scalar tree_4_3_u05_r5_network.client[33] 	downloads[33] 	11888
scalar tree_4_3_u05_r5_network.client[33] 	avg_time[33] 	0.004915360529
scalar tree_4_3_u05_r5_network.client[34] 	hdistance[34] 	2.9801938826676
scalar tree_4_3_u05_r5_network.client[34] 	downloads[34] 	11966
scalar tree_4_3_u05_r5_network.client[34] 	avg_time[34] 	0.00476279717
scalar tree_4_3_u05_r5_network.client[35] 	hdistance[35] 	3.1391898649775
scalar tree_4_3_u05_r5_network.client[35] 	downloads[35] 	11998
scalar tree_4_3_u05_r5_network.client[35] 	avg_time[35] 	0.004982160677
scalar tree_4_3_u05_r5_network.client[36] 	hdistance[36] 	3.0150345054223
scalar tree_4_3_u05_r5_network.client[36] 	downloads[36] 	12172
scalar tree_4_3_u05_r5_network.client[36] 	avg_time[36] 	0.004740056109
scalar tree_4_3_u05_r5_network.client[37] 	hdistance[37] 	3.0844470431006
scalar tree_4_3_u05_r5_network.client[37] 	downloads[37] 	11972
scalar tree_4_3_u05_r5_network.client[37] 	avg_time[37] 	0.004886732751
scalar tree_4_3_u05_r5_network.client[38] 	hdistance[38] 	3.0911481877209
scalar tree_4_3_u05_r5_network.client[38] 	downloads[38] 	12167
scalar tree_4_3_u05_r5_network.client[38] 	avg_time[38] 	0.004895758907
scalar tree_4_3_u05_r5_network.client[39] 	hdistance[39] 	3.104297003622
scalar tree_4_3_u05_r5_network.client[39] 	downloads[39] 	12148
scalar tree_4_3_u05_r5_network.client[39] 	avg_time[39] 	0.004912386739
