version 2
run General-106-20160819-16:34:54-23511
attr a 0.9
attr cd lce
attr configname General
attr cr lru
attr datetime 20160819-16:34:54
attr experiment General
attr fsize 1
attr inifile hw5115/scenario_A/NRR-LCE.ini
attr iterationvars "$name=tree_4_3, $un=05, $rep=7, $cd=lce, $cr=lru, $fsize=1, $a=0.9, $sl=nrr, $ttl=1000, $variance=0.05"
attr iterationvars2 "$name=tree_4_3, $un=05, $rep=7, $cd=lce, $cr=lru, $fsize=1, $a=0.9, $sl=nrr, $ttl=1000, $variance=0.05, $repetition=0"
attr measurement "$name=tree_4_3, $un=05, $rep=7, $cd=lce, $cr=lru, $fsize=1, $a=0.9, $sl=nrr, $ttl=1000, $variance=0.05"
attr name tree_4_3
attr network networks.${name}_u${un}_r${rep}_network
attr processid 23511
attr rep 7
attr repetition 0
attr replication #0
attr resultdir results
attr runnumber 106
attr seedset 7
attr sl nrr
attr ttl 1000
attr un 05
attr variance 0.05

scalar . 	a 	0.9
scalar . 	fsize 	1
scalar . 	rep 	7
scalar . 	ttl 	1000
scalar . 	un 	05
scalar . 	variance 	0.05
scalar tree_4_3_u05_r7_network.content_distribution 	repo-0 	0
scalar tree_4_3_u05_r7_network.content_distribution 	client-0 	13
scalar tree_4_3_u05_r7_network.content_distribution 	client-1 	14
scalar tree_4_3_u05_r7_network.content_distribution 	client-2 	15
scalar tree_4_3_u05_r7_network.content_distribution 	client-3 	16
scalar tree_4_3_u05_r7_network.content_distribution 	client-4 	17
scalar tree_4_3_u05_r7_network.content_distribution 	client-5 	18
scalar tree_4_3_u05_r7_network.content_distribution 	client-6 	19
scalar tree_4_3_u05_r7_network.content_distribution 	client-7 	20
scalar tree_4_3_u05_r7_network.content_distribution 	client-8 	21
scalar tree_4_3_u05_r7_network.content_distribution 	client-9 	22
scalar tree_4_3_u05_r7_network.content_distribution 	client-10 	23
scalar tree_4_3_u05_r7_network.content_distribution 	client-11 	24
scalar tree_4_3_u05_r7_network.content_distribution 	client-12 	25
scalar tree_4_3_u05_r7_network.content_distribution 	client-13 	26
scalar tree_4_3_u05_r7_network.content_distribution 	client-14 	27
scalar tree_4_3_u05_r7_network.content_distribution 	client-15 	28
scalar tree_4_3_u05_r7_network.content_distribution 	client-16 	29
scalar tree_4_3_u05_r7_network.content_distribution 	client-17 	30
scalar tree_4_3_u05_r7_network.content_distribution 	client-18 	31
scalar tree_4_3_u05_r7_network.content_distribution 	client-19 	32
scalar tree_4_3_u05_r7_network.content_distribution 	client-20 	33
scalar tree_4_3_u05_r7_network.content_distribution 	client-21 	34
scalar tree_4_3_u05_r7_network.content_distribution 	client-22 	35
scalar tree_4_3_u05_r7_network.content_distribution 	client-23 	36
scalar tree_4_3_u05_r7_network.content_distribution 	client-24 	37
scalar tree_4_3_u05_r7_network.content_distribution 	client-25 	38
scalar tree_4_3_u05_r7_network.content_distribution 	client-26 	39
scalar tree_4_3_u05_r7_network.content_distribution 	repo-0_card 	100000
scalar tree_4_3_u05_r7_network.content_distribution 	repo-0_price 	0
scalar tree_4_3_u05_r7_network.statistics 	stabilization_time 	480.3
scalar tree_4_3_u05_r7_network.statistics 	p_hit 	0.19601252446544
scalar tree_4_3_u05_r7_network.statistics 	interests 	27705.55
scalar tree_4_3_u05_r7_network.statistics 	data 	19606.45
scalar tree_4_3_u05_r7_network.statistics 	hdistance 	3.0459238741032
scalar tree_4_3_u05_r7_network.statistics 	avg_time 	0.00484165764
scalar tree_4_3_u05_r7_network.statistics 	downloads 	323949
scalar tree_4_3_u05_r7_network.statistics 	total_cost 	0
scalar tree_4_3_u05_r7_network.statistics 	total_replicas 	100000
scalar tree_4_3_u05_r7_network.statistics 	inner_hit 	0.37491395250487
scalar tree_4_3_u05_r7_network.node[0].core_layer 	interests[0] 	203312
scalar tree_4_3_u05_r7_network.node[0].core_layer 	repo_load[0] 	202496
scalar tree_4_3_u05_r7_network.node[0].core_layer 	data[0] 	0
scalar tree_4_3_u05_r7_network.node[0].core_layer 	repo_int[0] 	202496
scalar tree_4_3_u05_r7_network.node[0].content_store 	p_hit[0] 	0.0040135358463839
scalar tree_4_3_u05_r7_network.node[0].content_store 	hits[0] 	816
scalar tree_4_3_u05_r7_network.node[0].content_store 	misses[0] 	202496
scalar tree_4_3_u05_r7_network.node[0].content_store 	decision_yes[0] 	202496
scalar tree_4_3_u05_r7_network.node[0].content_store 	decision_no[0] 	0
scalar tree_4_3_u05_r7_network.node[0].content_store 	decision_ratio[0] 	1
scalar tree_4_3_u05_r7_network.node[1].core_layer 	interests[1] 	107360
scalar tree_4_3_u05_r7_network.node[1].core_layer 	data[1] 	106349
scalar tree_4_3_u05_r7_network.node[1].content_store 	p_hit[1] 	0.0093982861400894
scalar tree_4_3_u05_r7_network.node[1].content_store 	hits[1] 	1009
scalar tree_4_3_u05_r7_network.node[1].content_store 	misses[1] 	106351
scalar tree_4_3_u05_r7_network.node[1].content_store 	decision_yes[1] 	106335
scalar tree_4_3_u05_r7_network.node[1].content_store 	decision_no[1] 	0
scalar tree_4_3_u05_r7_network.node[1].content_store 	decision_ratio[1] 	1
scalar tree_4_3_u05_r7_network.node[2].core_layer 	interests[2] 	82798
scalar tree_4_3_u05_r7_network.node[2].core_layer 	data[2] 	80954
scalar tree_4_3_u05_r7_network.node[2].content_store 	p_hit[2] 	0.022258991763086
scalar tree_4_3_u05_r7_network.node[2].content_store 	hits[2] 	1843
scalar tree_4_3_u05_r7_network.node[2].content_store 	misses[2] 	80955
scalar tree_4_3_u05_r7_network.node[2].content_store 	decision_yes[2] 	80941
scalar tree_4_3_u05_r7_network.node[2].content_store 	decision_no[2] 	0
scalar tree_4_3_u05_r7_network.node[2].content_store 	decision_ratio[2] 	1
scalar tree_4_3_u05_r7_network.node[3].core_layer 	interests[3] 	47760
scalar tree_4_3_u05_r7_network.node[3].core_layer 	data[3] 	46610
scalar tree_4_3_u05_r7_network.node[3].content_store 	p_hit[3] 	0.024078726968174
scalar tree_4_3_u05_r7_network.node[3].content_store 	hits[3] 	1150
scalar tree_4_3_u05_r7_network.node[3].content_store 	misses[3] 	46610
scalar tree_4_3_u05_r7_network.node[3].content_store 	decision_yes[3] 	46608
scalar tree_4_3_u05_r7_network.node[3].content_store 	decision_no[3] 	0
scalar tree_4_3_u05_r7_network.node[3].content_store 	decision_ratio[3] 	1
scalar tree_4_3_u05_r7_network.node[4].core_layer 	interests[4] 	40786
scalar tree_4_3_u05_r7_network.node[4].core_layer 	data[4] 	39001
scalar tree_4_3_u05_r7_network.node[4].content_store 	p_hit[4] 	0.043642426322758
scalar tree_4_3_u05_r7_network.node[4].content_store 	hits[4] 	1780
scalar tree_4_3_u05_r7_network.node[4].content_store 	misses[4] 	39006
scalar tree_4_3_u05_r7_network.node[4].content_store 	decision_yes[4] 	38999
scalar tree_4_3_u05_r7_network.node[4].content_store 	decision_no[4] 	0
scalar tree_4_3_u05_r7_network.node[4].content_store 	decision_ratio[4] 	1
scalar tree_4_3_u05_r7_network.node[5].core_layer 	interests[5] 	44922
scalar tree_4_3_u05_r7_network.node[5].core_layer 	data[5] 	41830
scalar tree_4_3_u05_r7_network.node[5].content_store 	p_hit[5] 	0.068830417167535
scalar tree_4_3_u05_r7_network.node[5].content_store 	hits[5] 	3092
scalar tree_4_3_u05_r7_network.node[5].content_store 	misses[5] 	41830
scalar tree_4_3_u05_r7_network.node[5].content_store 	decision_yes[5] 	41827
scalar tree_4_3_u05_r7_network.node[5].content_store 	decision_no[5] 	0
scalar tree_4_3_u05_r7_network.node[5].content_store 	decision_ratio[5] 	1
scalar tree_4_3_u05_r7_network.node[6].core_layer 	interests[6] 	17375
scalar tree_4_3_u05_r7_network.node[6].core_layer 	data[6] 	12876
scalar tree_4_3_u05_r7_network.node[6].content_store 	p_hit[6] 	0.25887769784173
scalar tree_4_3_u05_r7_network.node[6].content_store 	hits[6] 	4498
scalar tree_4_3_u05_r7_network.node[6].content_store 	misses[6] 	12877
scalar tree_4_3_u05_r7_network.node[6].content_store 	decision_yes[6] 	12875
scalar tree_4_3_u05_r7_network.node[6].content_store 	decision_no[6] 	0
scalar tree_4_3_u05_r7_network.node[6].content_store 	decision_ratio[6] 	1
scalar tree_4_3_u05_r7_network.node[7].core_layer 	interests[7] 	44674
scalar tree_4_3_u05_r7_network.node[7].core_layer 	data[7] 	41702
scalar tree_4_3_u05_r7_network.node[7].content_store 	p_hit[7] 	0.066436853650893
scalar tree_4_3_u05_r7_network.node[7].content_store 	hits[7] 	2968
scalar tree_4_3_u05_r7_network.node[7].content_store 	misses[7] 	41706
scalar tree_4_3_u05_r7_network.node[7].content_store 	decision_yes[7] 	41696
scalar tree_4_3_u05_r7_network.node[7].content_store 	decision_no[7] 	0
scalar tree_4_3_u05_r7_network.node[7].content_store 	decision_ratio[7] 	1
scalar tree_4_3_u05_r7_network.node[8].core_layer 	interests[8] 	41731
scalar tree_4_3_u05_r7_network.node[8].core_layer 	data[8] 	40022
scalar tree_4_3_u05_r7_network.node[8].content_store 	p_hit[8] 	0.040880879921401
scalar tree_4_3_u05_r7_network.node[8].content_store 	hits[8] 	1706
scalar tree_4_3_u05_r7_network.node[8].content_store 	misses[8] 	40025
scalar tree_4_3_u05_r7_network.node[8].content_store 	decision_yes[8] 	40019
scalar tree_4_3_u05_r7_network.node[8].content_store 	decision_no[8] 	0
scalar tree_4_3_u05_r7_network.node[8].content_store 	decision_ratio[8] 	1
scalar tree_4_3_u05_r7_network.node[9].core_layer 	interests[9] 	14481
scalar tree_4_3_u05_r7_network.node[9].core_layer 	data[9] 	10940
scalar tree_4_3_u05_r7_network.node[9].content_store 	p_hit[9] 	0.24445825564533
scalar tree_4_3_u05_r7_network.node[9].content_store 	hits[9] 	3540
scalar tree_4_3_u05_r7_network.node[9].content_store 	misses[9] 	10941
scalar tree_4_3_u05_r7_network.node[9].content_store 	decision_yes[9] 	10938
scalar tree_4_3_u05_r7_network.node[9].content_store 	decision_no[9] 	0
scalar tree_4_3_u05_r7_network.node[9].content_store 	decision_ratio[9] 	1
scalar tree_4_3_u05_r7_network.node[10].core_layer 	interests[10] 	42258
scalar tree_4_3_u05_r7_network.node[10].core_layer 	data[10] 	40460
scalar tree_4_3_u05_r7_network.node[10].content_store 	p_hit[10] 	0.042477164087273
scalar tree_4_3_u05_r7_network.node[10].content_store 	hits[10] 	1795
scalar tree_4_3_u05_r7_network.node[10].content_store 	misses[10] 	40463
scalar tree_4_3_u05_r7_network.node[10].content_store 	decision_yes[10] 	40460
scalar tree_4_3_u05_r7_network.node[10].content_store 	decision_no[10] 	0
scalar tree_4_3_u05_r7_network.node[10].content_store 	decision_ratio[10] 	1
scalar tree_4_3_u05_r7_network.node[11].core_layer 	interests[11] 	44059
scalar tree_4_3_u05_r7_network.node[11].core_layer 	data[11] 	41169
scalar tree_4_3_u05_r7_network.node[11].content_store 	p_hit[11] 	0.065548469098255
scalar tree_4_3_u05_r7_network.node[11].content_store 	hits[11] 	2888
scalar tree_4_3_u05_r7_network.node[11].content_store 	misses[11] 	41171
scalar tree_4_3_u05_r7_network.node[11].content_store 	decision_yes[11] 	41163
scalar tree_4_3_u05_r7_network.node[11].content_store 	decision_no[11] 	0
scalar tree_4_3_u05_r7_network.node[11].content_store 	decision_ratio[11] 	1
scalar tree_4_3_u05_r7_network.node[12].core_layer 	interests[12] 	12254
scalar tree_4_3_u05_r7_network.node[12].core_layer 	data[12] 	10406
scalar tree_4_3_u05_r7_network.node[12].content_store 	p_hit[12] 	0.1507262934552
scalar tree_4_3_u05_r7_network.node[12].content_store 	hits[12] 	1847
scalar tree_4_3_u05_r7_network.node[12].content_store 	misses[12] 	10407
scalar tree_4_3_u05_r7_network.node[12].content_store 	decision_yes[12] 	10406
scalar tree_4_3_u05_r7_network.node[12].content_store 	decision_no[12] 	0
scalar tree_4_3_u05_r7_network.node[12].content_store 	decision_ratio[12] 	1
scalar tree_4_3_u05_r7_network.node[13].core_layer 	interests[13] 	12981
scalar tree_4_3_u05_r7_network.node[13].core_layer 	data[13] 	9998
scalar tree_4_3_u05_r7_network.node[13].content_store 	p_hit[13] 	0.22979739619444
scalar tree_4_3_u05_r7_network.node[13].content_store 	hits[13] 	2983
scalar tree_4_3_u05_r7_network.node[13].content_store 	misses[13] 	9998
scalar tree_4_3_u05_r7_network.node[13].content_store 	decision_yes[13] 	9998
scalar tree_4_3_u05_r7_network.node[13].content_store 	decision_no[13] 	0
scalar tree_4_3_u05_r7_network.node[13].content_store 	decision_ratio[13] 	1
scalar tree_4_3_u05_r7_network.node[14].core_layer 	interests[14] 	12961
scalar tree_4_3_u05_r7_network.node[14].core_layer 	data[14] 	10011
scalar tree_4_3_u05_r7_network.node[14].content_store 	p_hit[14] 	0.2276058946069
scalar tree_4_3_u05_r7_network.node[14].content_store 	hits[14] 	2950
scalar tree_4_3_u05_r7_network.node[14].content_store 	misses[14] 	10011
scalar tree_4_3_u05_r7_network.node[14].content_store 	decision_yes[14] 	10011
scalar tree_4_3_u05_r7_network.node[14].content_store 	decision_no[14] 	0
scalar tree_4_3_u05_r7_network.node[14].content_store 	decision_ratio[14] 	1
scalar tree_4_3_u05_r7_network.node[15].core_layer 	interests[15] 	13058
scalar tree_4_3_u05_r7_network.node[15].core_layer 	data[15] 	10138
scalar tree_4_3_u05_r7_network.node[15].content_store 	p_hit[15] 	0.22354112421504
scalar tree_4_3_u05_r7_network.node[15].content_store 	hits[15] 	2919
scalar tree_4_3_u05_r7_network.node[15].content_store 	misses[15] 	10139
scalar tree_4_3_u05_r7_network.node[15].content_store 	decision_yes[15] 	10138
scalar tree_4_3_u05_r7_network.node[15].content_store 	decision_no[15] 	0
scalar tree_4_3_u05_r7_network.node[15].content_store 	decision_ratio[15] 	1
scalar tree_4_3_u05_r7_network.node[16].core_layer 	interests[16] 	13546
scalar tree_4_3_u05_r7_network.node[16].core_layer 	data[16] 	9971
scalar tree_4_3_u05_r7_network.node[16].content_store 	p_hit[16] 	0.26391554702495
scalar tree_4_3_u05_r7_network.node[16].content_store 	hits[16] 	3575
scalar tree_4_3_u05_r7_network.node[16].content_store 	misses[16] 	9971
scalar tree_4_3_u05_r7_network.node[16].content_store 	decision_yes[16] 	9971
scalar tree_4_3_u05_r7_network.node[16].content_store 	decision_no[16] 	0
scalar tree_4_3_u05_r7_network.node[16].content_store 	decision_ratio[16] 	1
scalar tree_4_3_u05_r7_network.node[17].core_layer 	interests[17] 	13611
scalar tree_4_3_u05_r7_network.node[17].core_layer 	data[17] 	10128
scalar tree_4_3_u05_r7_network.node[17].content_store 	p_hit[17] 	0.2559694364852
scalar tree_4_3_u05_r7_network.node[17].content_store 	hits[17] 	3484
scalar tree_4_3_u05_r7_network.node[17].content_store 	misses[17] 	10127
scalar tree_4_3_u05_r7_network.node[17].content_store 	decision_yes[17] 	10128
scalar tree_4_3_u05_r7_network.node[17].content_store 	decision_no[17] 	0
scalar tree_4_3_u05_r7_network.node[17].content_store 	decision_ratio[17] 	1
scalar tree_4_3_u05_r7_network.node[18].core_layer 	interests[18] 	13678
scalar tree_4_3_u05_r7_network.node[18].core_layer 	data[18] 	10245
scalar tree_4_3_u05_r7_network.node[18].content_store 	p_hit[18] 	0.25098698640152
scalar tree_4_3_u05_r7_network.node[18].content_store 	hits[18] 	3433
scalar tree_4_3_u05_r7_network.node[18].content_store 	misses[18] 	10245
scalar tree_4_3_u05_r7_network.node[18].content_store 	decision_yes[18] 	10245
scalar tree_4_3_u05_r7_network.node[18].content_store 	decision_no[18] 	0
scalar tree_4_3_u05_r7_network.node[18].content_store 	decision_ratio[18] 	1
scalar tree_4_3_u05_r7_network.node[19].core_layer 	interests[19] 	14364
scalar tree_4_3_u05_r7_network.node[19].core_layer 	data[19] 	9956
scalar tree_4_3_u05_r7_network.node[19].content_store 	p_hit[19] 	0.30680868838764
scalar tree_4_3_u05_r7_network.node[19].content_store 	hits[19] 	4407
scalar tree_4_3_u05_r7_network.node[19].content_store 	misses[19] 	9957
scalar tree_4_3_u05_r7_network.node[19].content_store 	decision_yes[19] 	9956
scalar tree_4_3_u05_r7_network.node[19].content_store 	decision_no[19] 	0
scalar tree_4_3_u05_r7_network.node[19].content_store 	decision_ratio[19] 	1
scalar tree_4_3_u05_r7_network.node[20].core_layer 	interests[20] 	15001
scalar tree_4_3_u05_r7_network.node[20].core_layer 	data[20] 	10215
scalar tree_4_3_u05_r7_network.node[20].content_store 	p_hit[20] 	0.3189120725285
scalar tree_4_3_u05_r7_network.node[20].content_store 	hits[20] 	4784
scalar tree_4_3_u05_r7_network.node[20].content_store 	misses[20] 	10217
scalar tree_4_3_u05_r7_network.node[20].content_store 	decision_yes[20] 	10215
scalar tree_4_3_u05_r7_network.node[20].content_store 	decision_no[20] 	0
scalar tree_4_3_u05_r7_network.node[20].content_store 	decision_ratio[20] 	1
scalar tree_4_3_u05_r7_network.node[21].core_layer 	interests[21] 	12523
scalar tree_4_3_u05_r7_network.node[21].core_layer 	data[21] 	10203
scalar tree_4_3_u05_r7_network.node[21].content_store 	p_hit[21] 	0.18517927014294
scalar tree_4_3_u05_r7_network.node[21].content_store 	hits[21] 	2319
scalar tree_4_3_u05_r7_network.node[21].content_store 	misses[21] 	10204
scalar tree_4_3_u05_r7_network.node[21].content_store 	decision_yes[21] 	10203
scalar tree_4_3_u05_r7_network.node[21].content_store 	decision_no[21] 	0
scalar tree_4_3_u05_r7_network.node[21].content_store 	decision_ratio[21] 	1
scalar tree_4_3_u05_r7_network.node[22].core_layer 	interests[22] 	13565
scalar tree_4_3_u05_r7_network.node[22].core_layer 	data[22] 	10058
scalar tree_4_3_u05_r7_network.node[22].content_store 	p_hit[22] 	0.25853298931073
scalar tree_4_3_u05_r7_network.node[22].content_store 	hits[22] 	3507
scalar tree_4_3_u05_r7_network.node[22].content_store 	misses[22] 	10058
scalar tree_4_3_u05_r7_network.node[22].content_store 	decision_yes[22] 	10058
scalar tree_4_3_u05_r7_network.node[22].content_store 	decision_no[22] 	0
scalar tree_4_3_u05_r7_network.node[22].content_store 	decision_ratio[22] 	1
scalar tree_4_3_u05_r7_network.node[23].core_layer 	interests[23] 	13487
scalar tree_4_3_u05_r7_network.node[23].core_layer 	data[23] 	9935
scalar tree_4_3_u05_r7_network.node[23].content_store 	p_hit[23] 	0.26336472158375
scalar tree_4_3_u05_r7_network.node[23].content_store 	hits[23] 	3552
scalar tree_4_3_u05_r7_network.node[23].content_store 	misses[23] 	9935
scalar tree_4_3_u05_r7_network.node[23].content_store 	decision_yes[23] 	9935
scalar tree_4_3_u05_r7_network.node[23].content_store 	decision_no[23] 	0
scalar tree_4_3_u05_r7_network.node[23].content_store 	decision_ratio[23] 	1
scalar tree_4_3_u05_r7_network.node[24].core_layer 	interests[24] 	13529
scalar tree_4_3_u05_r7_network.node[24].core_layer 	data[24] 	10014
scalar tree_4_3_u05_r7_network.node[24].content_store 	p_hit[24] 	0.25973833986252
scalar tree_4_3_u05_r7_network.node[24].content_store 	hits[24] 	3514
scalar tree_4_3_u05_r7_network.node[24].content_store 	misses[24] 	10015
scalar tree_4_3_u05_r7_network.node[24].content_store 	decision_yes[24] 	10014
scalar tree_4_3_u05_r7_network.node[24].content_store 	decision_no[24] 	0
scalar tree_4_3_u05_r7_network.node[24].content_store 	decision_ratio[24] 	1
scalar tree_4_3_u05_r7_network.node[25].core_layer 	interests[25] 	13139
scalar tree_4_3_u05_r7_network.node[25].core_layer 	data[25] 	10223
scalar tree_4_3_u05_r7_network.node[25].content_store 	p_hit[25] 	0.22193469822665
scalar tree_4_3_u05_r7_network.node[25].content_store 	hits[25] 	2916
scalar tree_4_3_u05_r7_network.node[25].content_store 	misses[25] 	10223
scalar tree_4_3_u05_r7_network.node[25].content_store 	decision_yes[25] 	10223
scalar tree_4_3_u05_r7_network.node[25].content_store 	decision_no[25] 	0
scalar tree_4_3_u05_r7_network.node[25].content_store 	decision_ratio[25] 	1
scalar tree_4_3_u05_r7_network.node[26].core_layer 	interests[26] 	13156
scalar tree_4_3_u05_r7_network.node[26].core_layer 	data[26] 	10077
scalar tree_4_3_u05_r7_network.node[26].content_store 	p_hit[26] 	0.23396169048343
scalar tree_4_3_u05_r7_network.node[26].content_store 	hits[26] 	3078
scalar tree_4_3_u05_r7_network.node[26].content_store 	misses[26] 	10078
scalar tree_4_3_u05_r7_network.node[26].content_store 	decision_yes[26] 	10077
scalar tree_4_3_u05_r7_network.node[26].content_store 	decision_no[26] 	0
scalar tree_4_3_u05_r7_network.node[26].content_store 	decision_ratio[26] 	1
scalar tree_4_3_u05_r7_network.node[27].core_layer 	interests[27] 	13765
scalar tree_4_3_u05_r7_network.node[27].core_layer 	data[27] 	10239
scalar tree_4_3_u05_r7_network.node[27].content_store 	p_hit[27] 	0.2560842717036
scalar tree_4_3_u05_r7_network.node[27].content_store 	hits[27] 	3525
scalar tree_4_3_u05_r7_network.node[27].content_store 	misses[27] 	10240
scalar tree_4_3_u05_r7_network.node[27].content_store 	decision_yes[27] 	10239
scalar tree_4_3_u05_r7_network.node[27].content_store 	decision_no[27] 	0
scalar tree_4_3_u05_r7_network.node[27].content_store 	decision_ratio[27] 	1
scalar tree_4_3_u05_r7_network.node[28].core_layer 	interests[28] 	14585
scalar tree_4_3_u05_r7_network.node[28].core_layer 	data[28] 	10047
scalar tree_4_3_u05_r7_network.node[28].content_store 	p_hit[28] 	0.31114158381899
scalar tree_4_3_u05_r7_network.node[28].content_store 	hits[28] 	4538
scalar tree_4_3_u05_r7_network.node[28].content_store 	misses[28] 	10047
scalar tree_4_3_u05_r7_network.node[28].content_store 	decision_yes[28] 	10047
scalar tree_4_3_u05_r7_network.node[28].content_store 	decision_no[28] 	0
scalar tree_4_3_u05_r7_network.node[28].content_store 	decision_ratio[28] 	1
scalar tree_4_3_u05_r7_network.node[29].core_layer 	interests[29] 	13606
scalar tree_4_3_u05_r7_network.node[29].core_layer 	data[29] 	10092
scalar tree_4_3_u05_r7_network.node[29].content_store 	p_hit[29] 	0.25819491400853
scalar tree_4_3_u05_r7_network.node[29].content_store 	hits[29] 	3513
scalar tree_4_3_u05_r7_network.node[29].content_store 	misses[29] 	10093
scalar tree_4_3_u05_r7_network.node[29].content_store 	decision_yes[29] 	10092
scalar tree_4_3_u05_r7_network.node[29].content_store 	decision_no[29] 	0
scalar tree_4_3_u05_r7_network.node[29].content_store 	decision_ratio[29] 	1
scalar tree_4_3_u05_r7_network.node[30].core_layer 	interests[30] 	12375
scalar tree_4_3_u05_r7_network.node[30].core_layer 	data[30] 	10188
scalar tree_4_3_u05_r7_network.node[30].content_store 	p_hit[30] 	0.17664646464646
scalar tree_4_3_u05_r7_network.node[30].content_store 	hits[30] 	2186
scalar tree_4_3_u05_r7_network.node[30].content_store 	misses[30] 	10189
scalar tree_4_3_u05_r7_network.node[30].content_store 	decision_yes[30] 	10188
scalar tree_4_3_u05_r7_network.node[30].content_store 	decision_no[30] 	0
scalar tree_4_3_u05_r7_network.node[30].content_store 	decision_ratio[30] 	1
scalar tree_4_3_u05_r7_network.node[31].core_layer 	interests[31] 	13058
scalar tree_4_3_u05_r7_network.node[31].core_layer 	data[31] 	10095
scalar tree_4_3_u05_r7_network.node[31].content_store 	p_hit[31] 	0.22691070608056
scalar tree_4_3_u05_r7_network.node[31].content_store 	hits[31] 	2963
scalar tree_4_3_u05_r7_network.node[31].content_store 	misses[31] 	10095
scalar tree_4_3_u05_r7_network.node[31].content_store 	decision_yes[31] 	10095
scalar tree_4_3_u05_r7_network.node[31].content_store 	decision_no[31] 	0
scalar tree_4_3_u05_r7_network.node[31].content_store 	decision_ratio[31] 	1
scalar tree_4_3_u05_r7_network.node[32].core_layer 	interests[32] 	13060
scalar tree_4_3_u05_r7_network.node[32].core_layer 	data[32] 	10049
scalar tree_4_3_u05_r7_network.node[32].content_store 	p_hit[32] 	0.23055130168453
scalar tree_4_3_u05_r7_network.node[32].content_store 	hits[32] 	3011
scalar tree_4_3_u05_r7_network.node[32].content_store 	misses[32] 	10049
scalar tree_4_3_u05_r7_network.node[32].content_store 	decision_yes[32] 	10049
scalar tree_4_3_u05_r7_network.node[32].content_store 	decision_no[32] 	0
scalar tree_4_3_u05_r7_network.node[32].content_store 	decision_ratio[32] 	1
scalar tree_4_3_u05_r7_network.node[33].core_layer 	interests[33] 	12988
scalar tree_4_3_u05_r7_network.node[33].core_layer 	data[33] 	9965
scalar tree_4_3_u05_r7_network.node[33].content_store 	p_hit[33] 	0.23275331074838
scalar tree_4_3_u05_r7_network.node[33].content_store 	hits[33] 	3023
scalar tree_4_3_u05_r7_network.node[33].content_store 	misses[33] 	9965
scalar tree_4_3_u05_r7_network.node[33].content_store 	decision_yes[33] 	9965
scalar tree_4_3_u05_r7_network.node[33].content_store 	decision_no[33] 	0
scalar tree_4_3_u05_r7_network.node[33].content_store 	decision_ratio[33] 	1
scalar tree_4_3_u05_r7_network.node[34].core_layer 	interests[34] 	14905
scalar tree_4_3_u05_r7_network.node[34].core_layer 	data[34] 	9905
scalar tree_4_3_u05_r7_network.node[34].content_store 	p_hit[34] 	0.33539080845354
scalar tree_4_3_u05_r7_network.node[34].content_store 	hits[34] 	4999
scalar tree_4_3_u05_r7_network.node[34].content_store 	misses[34] 	9906
scalar tree_4_3_u05_r7_network.node[34].content_store 	decision_yes[34] 	9905
scalar tree_4_3_u05_r7_network.node[34].content_store 	decision_no[34] 	0
scalar tree_4_3_u05_r7_network.node[34].content_store 	decision_ratio[34] 	1
scalar tree_4_3_u05_r7_network.node[35].core_layer 	interests[35] 	13676
scalar tree_4_3_u05_r7_network.node[35].core_layer 	data[35] 	10095
scalar tree_4_3_u05_r7_network.node[35].content_store 	p_hit[35] 	0.26177244808424
scalar tree_4_3_u05_r7_network.node[35].content_store 	hits[35] 	3580
scalar tree_4_3_u05_r7_network.node[35].content_store 	misses[35] 	10096
scalar tree_4_3_u05_r7_network.node[35].content_store 	decision_yes[35] 	10095
scalar tree_4_3_u05_r7_network.node[35].content_store 	decision_no[35] 	0
scalar tree_4_3_u05_r7_network.node[35].content_store 	decision_ratio[35] 	1
scalar tree_4_3_u05_r7_network.node[36].core_layer 	interests[36] 	13711
scalar tree_4_3_u05_r7_network.node[36].core_layer 	data[36] 	10042
scalar tree_4_3_u05_r7_network.node[36].content_store 	p_hit[36] 	0.26737655896725
scalar tree_4_3_u05_r7_network.node[36].content_store 	hits[36] 	3666
scalar tree_4_3_u05_r7_network.node[36].content_store 	misses[36] 	10045
scalar tree_4_3_u05_r7_network.node[36].content_store 	decision_yes[36] 	10042
scalar tree_4_3_u05_r7_network.node[36].content_store 	decision_no[36] 	0
scalar tree_4_3_u05_r7_network.node[36].content_store 	decision_ratio[36] 	1
scalar tree_4_3_u05_r7_network.node[37].core_layer 	interests[37] 	13717
scalar tree_4_3_u05_r7_network.node[37].core_layer 	data[37] 	9931
scalar tree_4_3_u05_r7_network.node[37].content_store 	p_hit[37] 	0.27600787344171
scalar tree_4_3_u05_r7_network.node[37].content_store 	hits[37] 	3786
scalar tree_4_3_u05_r7_network.node[37].content_store 	misses[37] 	9931
scalar tree_4_3_u05_r7_network.node[37].content_store 	decision_yes[37] 	9931
scalar tree_4_3_u05_r7_network.node[37].content_store 	decision_no[37] 	0
scalar tree_4_3_u05_r7_network.node[37].content_store 	decision_ratio[37] 	1
scalar tree_4_3_u05_r7_network.node[38].core_layer 	interests[38] 	14303
scalar tree_4_3_u05_r7_network.node[38].core_layer 	data[38] 	10087
scalar tree_4_3_u05_r7_network.node[38].content_store 	p_hit[38] 	0.29469342096064
scalar tree_4_3_u05_r7_network.node[38].content_store 	hits[38] 	4215
scalar tree_4_3_u05_r7_network.node[38].content_store 	misses[38] 	10088
scalar tree_4_3_u05_r7_network.node[38].content_store 	decision_yes[38] 	10087
scalar tree_4_3_u05_r7_network.node[38].content_store 	decision_no[38] 	0
scalar tree_4_3_u05_r7_network.node[38].content_store 	decision_ratio[38] 	1
scalar tree_4_3_u05_r7_network.node[39].core_layer 	interests[39] 	12104
scalar tree_4_3_u05_r7_network.node[39].core_layer 	data[39] 	10032
scalar tree_4_3_u05_r7_network.node[39].content_store 	p_hit[39] 	0.17110046265697
scalar tree_4_3_u05_r7_network.node[39].content_store 	hits[39] 	2071
scalar tree_4_3_u05_r7_network.node[39].content_store 	misses[39] 	10033
scalar tree_4_3_u05_r7_network.node[39].content_store 	decision_yes[39] 	10032
scalar tree_4_3_u05_r7_network.node[39].content_store 	decision_no[39] 	0
scalar tree_4_3_u05_r7_network.node[39].content_store 	decision_ratio[39] 	1
scalar tree_4_3_u05_r7_network.client[13] 	hdistance[13] 	3.091565860215
scalar tree_4_3_u05_r7_network.client[13] 	downloads[13] 	11904
scalar tree_4_3_u05_r7_network.client[13] 	avg_time[13] 	0.004888215333
scalar tree_4_3_u05_r7_network.client[14] 	hdistance[14] 	3.1094368212812
scalar tree_4_3_u05_r7_network.client[14] 	downloads[14] 	11879
scalar tree_4_3_u05_r7_network.client[14] 	avg_time[14] 	0.004911313509
scalar tree_4_3_u05_r7_network.client[15] 	hdistance[15] 	3.103187780176
scalar tree_4_3_u05_r7_network.client[15] 	downloads[15] 	12046
scalar tree_4_3_u05_r7_network.client[15] 	avg_time[15] 	0.004909010838
scalar tree_4_3_u05_r7_network.client[16] 	hdistance[16] 	3.0430613961312
scalar tree_4_3_u05_r7_network.client[16] 	downloads[16] 	11890
scalar tree_4_3_u05_r7_network.client[16] 	avg_time[16] 	0.004876269677
scalar tree_4_3_u05_r7_network.client[17] 	hdistance[17] 	3.0652029274784
scalar tree_4_3_u05_r7_network.client[17] 	downloads[17] 	12024
scalar tree_4_3_u05_r7_network.client[17] 	avg_time[17] 	0.004893210577
scalar tree_4_3_u05_r7_network.client[18] 	hdistance[18] 	3.076853152632
scalar tree_4_3_u05_r7_network.client[18] 	downloads[18] 	12101
scalar tree_4_3_u05_r7_network.client[18] 	avg_time[18] 	0.004921077878
scalar tree_4_3_u05_r7_network.client[19] 	hdistance[19] 	2.9566265060241
scalar tree_4_3_u05_r7_network.client[19] 	downloads[19] 	12035
scalar tree_4_3_u05_r7_network.client[19] 	avg_time[19] 	0.004696020647
scalar tree_4_3_u05_r7_network.client[20] 	hdistance[20] 	2.94394124847
scalar tree_4_3_u05_r7_network.client[20] 	downloads[20] 	12255
scalar tree_4_3_u05_r7_network.client[20] 	avg_time[20] 	0.004701960308
scalar tree_4_3_u05_r7_network.client[21] 	hdistance[21] 	3.0911730545877
scalar tree_4_3_u05_r7_network.client[21] 	downloads[21] 	12054
scalar tree_4_3_u05_r7_network.client[21] 	avg_time[21] 	0.004963024768
scalar tree_4_3_u05_r7_network.client[22] 	hdistance[22] 	3.050953815261
scalar tree_4_3_u05_r7_network.client[22] 	downloads[22] 	11952
scalar tree_4_3_u05_r7_network.client[22] 	avg_time[22] 	0.004890007311
scalar tree_4_3_u05_r7_network.client[23] 	hdistance[23] 	3.0486017520216
scalar tree_4_3_u05_r7_network.client[23] 	downloads[23] 	11872
scalar tree_4_3_u05_r7_network.client[23] 	avg_time[23] 	0.004883544952
scalar tree_4_3_u05_r7_network.client[24] 	hdistance[24] 	3.0477867203219
scalar tree_4_3_u05_r7_network.client[24] 	downloads[24] 	11928
scalar tree_4_3_u05_r7_network.client[24] 	avg_time[24] 	0.004876059998
scalar tree_4_3_u05_r7_network.client[25] 	hdistance[25] 	3.1273843091723
scalar tree_4_3_u05_r7_network.client[25] 	downloads[25] 	12058
scalar tree_4_3_u05_r7_network.client[25] 	avg_time[25] 	0.004982841596
scalar tree_4_3_u05_r7_network.client[26] 	hdistance[26] 	3.0836460678842
scalar tree_4_3_u05_r7_network.client[26] 	downloads[26] 	11991
scalar tree_4_3_u05_r7_network.client[26] 	avg_time[26] 	0.004917194101
scalar tree_4_3_u05_r7_network.client[27] 	hdistance[27] 	3.0267908663754
scalar tree_4_3_u05_r7_network.client[27] 	downloads[27] 	12131
scalar tree_4_3_u05_r7_network.client[27] 	avg_time[27] 	0.004785528048
scalar tree_4_3_u05_r7_network.client[28] 	hdistance[28] 	2.9517972502899
scalar tree_4_3_u05_r7_network.client[28] 	downloads[28] 	12074
scalar tree_4_3_u05_r7_network.client[28] 	avg_time[28] 	0.004681162965
scalar tree_4_3_u05_r7_network.client[29] 	hdistance[29] 	3.0387844190732
scalar tree_4_3_u05_r7_network.client[29] 	downloads[29] 	11912
scalar tree_4_3_u05_r7_network.client[29] 	avg_time[29] 	0.004805144327
scalar tree_4_3_u05_r7_network.client[30] 	hdistance[30] 	3.0907288051562
scalar tree_4_3_u05_r7_network.client[30] 	downloads[30] 	12102
scalar tree_4_3_u05_r7_network.client[30] 	avg_time[30] 	0.004918318816
scalar tree_4_3_u05_r7_network.client[31] 	hdistance[31] 	3.0808670279283
scalar tree_4_3_u05_r7_network.client[31] 	downloads[31] 	11995
scalar tree_4_3_u05_r7_network.client[31] 	avg_time[31] 	0.00484093626
scalar tree_4_3_u05_r7_network.client[32] 	hdistance[32] 	3.0733845383202
scalar tree_4_3_u05_r7_network.client[32] 	downloads[32] 	11978
scalar tree_4_3_u05_r7_network.client[32] 	avg_time[32] 	0.004824508592
scalar tree_4_3_u05_r7_network.client[33] 	hdistance[33] 	3.0412103987294
scalar tree_4_3_u05_r7_network.client[33] 	downloads[33] 	11963
scalar tree_4_3_u05_r7_network.client[33] 	avg_time[33] 	0.00478040695
scalar tree_4_3_u05_r7_network.client[34] 	hdistance[34] 	2.9317494963063
scalar tree_4_3_u05_r7_network.client[34] 	downloads[34] 	11912
scalar tree_4_3_u05_r7_network.client[34] 	avg_time[34] 	0.004667748548
scalar tree_4_3_u05_r7_network.client[35] 	hdistance[35] 	3.0363439787092
scalar tree_4_3_u05_r7_network.client[35] 	downloads[35] 	12024
scalar tree_4_3_u05_r7_network.client[35] 	avg_time[35] 	0.004872337886
scalar tree_4_3_u05_r7_network.client[36] 	hdistance[36] 	3.0506137548344
scalar tree_4_3_u05_r7_network.client[36] 	downloads[36] 	11894
scalar tree_4_3_u05_r7_network.client[36] 	avg_time[36] 	0.00490097825
scalar tree_4_3_u05_r7_network.client[37] 	hdistance[37] 	2.9760233918129
scalar tree_4_3_u05_r7_network.client[37] 	downloads[37] 	11970
scalar tree_4_3_u05_r7_network.client[37] 	avg_time[37] 	0.004648785605
scalar tree_4_3_u05_r7_network.client[38] 	hdistance[38] 	2.9787446031219
scalar tree_4_3_u05_r7_network.client[38] 	downloads[38] 	12044
scalar tree_4_3_u05_r7_network.client[38] 	avg_time[38] 	0.004753109432
scalar tree_4_3_u05_r7_network.client[39] 	hdistance[39] 	3.1234846584734
scalar tree_4_3_u05_r7_network.client[39] 	downloads[39] 	11961
scalar tree_4_3_u05_r7_network.client[39] 	avg_time[39] 	0.004936039129
