version 2
run General-314-20160901-04:43:18-8710
attr a 0.9
attr cd tfc
attr configname General
attr cr lru
attr datetime 20160901-04:43:18
attr experiment General
attr fsize 1
attr inifile hw5115/scenario_Y/omnetp.ini
attr iterationvars "$name=tree_4_3, $un=05, $rep=5, $cd=tfc, $cr=lru, $fsize=1, $a=0.9, $sl=nrr, $ttl=1000, $variance=0.05"
attr iterationvars2 "$name=tree_4_3, $un=05, $rep=5, $cd=tfc, $cr=lru, $fsize=1, $a=0.9, $sl=nrr, $ttl=1000, $variance=0.05, $repetition=0"
attr measurement "$name=tree_4_3, $un=05, $rep=5, $cd=tfc, $cr=lru, $fsize=1, $a=0.9, $sl=nrr, $ttl=1000, $variance=0.05"
attr name tree_4_3
attr network networks.${name}_u${un}_r${rep}_network
attr processid 8710
attr rep 5
attr repetition 0
attr replication #0
attr resultdir results
attr runnumber 314
attr seedset 5
attr sl nrr
attr ttl 1000
attr un 05
attr variance 0.05

scalar . 	a 	0.9
scalar . 	fsize 	1
scalar . 	rep 	5
scalar . 	ttl 	1000
scalar . 	un 	05
scalar . 	variance 	0.05
scalar tree_4_3_u05_r5_network.content_distribution 	repo-0 	0
scalar tree_4_3_u05_r5_network.content_distribution 	client-0 	13
scalar tree_4_3_u05_r5_network.content_distribution 	client-1 	14
scalar tree_4_3_u05_r5_network.content_distribution 	client-2 	15
scalar tree_4_3_u05_r5_network.content_distribution 	client-3 	16
scalar tree_4_3_u05_r5_network.content_distribution 	client-4 	17
scalar tree_4_3_u05_r5_network.content_distribution 	client-5 	18
scalar tree_4_3_u05_r5_network.content_distribution 	client-6 	19
scalar tree_4_3_u05_r5_network.content_distribution 	client-7 	20
scalar tree_4_3_u05_r5_network.content_distribution 	client-8 	21
scalar tree_4_3_u05_r5_network.content_distribution 	client-9 	22
scalar tree_4_3_u05_r5_network.content_distribution 	client-10 	23
scalar tree_4_3_u05_r5_network.content_distribution 	client-11 	24
scalar tree_4_3_u05_r5_network.content_distribution 	client-12 	25
scalar tree_4_3_u05_r5_network.content_distribution 	client-13 	26
scalar tree_4_3_u05_r5_network.content_distribution 	client-14 	27
scalar tree_4_3_u05_r5_network.content_distribution 	client-15 	28
scalar tree_4_3_u05_r5_network.content_distribution 	client-16 	29
scalar tree_4_3_u05_r5_network.content_distribution 	client-17 	30
scalar tree_4_3_u05_r5_network.content_distribution 	client-18 	31
scalar tree_4_3_u05_r5_network.content_distribution 	client-19 	32
scalar tree_4_3_u05_r5_network.content_distribution 	client-20 	33
scalar tree_4_3_u05_r5_network.content_distribution 	client-21 	34
scalar tree_4_3_u05_r5_network.content_distribution 	client-22 	35
scalar tree_4_3_u05_r5_network.content_distribution 	client-23 	36
scalar tree_4_3_u05_r5_network.content_distribution 	client-24 	37
scalar tree_4_3_u05_r5_network.content_distribution 	client-25 	38
scalar tree_4_3_u05_r5_network.content_distribution 	client-26 	39
scalar tree_4_3_u05_r5_network.content_distribution 	repo-0_card 	100000
scalar tree_4_3_u05_r5_network.content_distribution 	repo-0_price 	0
scalar tree_4_3_u05_r5_network.statistics 	stabilization_time 	2642.7
scalar tree_4_3_u05_r5_network.statistics 	p_hit 	0.22631674578639
scalar tree_4_3_u05_r5_network.statistics 	interests 	24617.675
scalar tree_4_3_u05_r5_network.statistics 	data 	16485.65
scalar tree_4_3_u05_r5_network.statistics 	hdistance 	2.6197157957799
scalar tree_4_3_u05_r5_network.statistics 	avg_time 	0.004054479064
scalar tree_4_3_u05_r5_network.statistics 	downloads 	325285
scalar tree_4_3_u05_r5_network.statistics 	total_cost 	0
scalar tree_4_3_u05_r5_network.statistics 	total_replicas 	100000
scalar tree_4_3_u05_r5_network.statistics 	inner_hit 	0.40757182163334
scalar tree_4_3_u05_r5_network.node[0].core_layer 	interests[0] 	196136
scalar tree_4_3_u05_r5_network.node[0].core_layer 	repo_load[0] 	192708
scalar tree_4_3_u05_r5_network.node[0].core_layer 	data[0] 	0
scalar tree_4_3_u05_r5_network.node[0].core_layer 	repo_int[0] 	192708
scalar tree_4_3_u05_r5_network.node[0].content_store 	p_hit[0] 	0.017477668556512
scalar tree_4_3_u05_r5_network.node[0].content_store 	hits[0] 	3428
scalar tree_4_3_u05_r5_network.node[0].content_store 	misses[0] 	192708
scalar tree_4_3_u05_r5_network.node[0].content_store 	decision_yes[0] 	937
scalar tree_4_3_u05_r5_network.node[0].content_store 	decision_no[0] 	191771
scalar tree_4_3_u05_r5_network.node[0].content_store 	decision_ratio[0] 	0.0048622786806983
scalar tree_4_3_u05_r5_network.node[1].core_layer 	interests[1] 	99127
scalar tree_4_3_u05_r5_network.node[1].core_layer 	data[1] 	96411
scalar tree_4_3_u05_r5_network.node[1].content_store 	p_hit[1] 	0.027399194972106
scalar tree_4_3_u05_r5_network.node[1].content_store 	hits[1] 	2716
scalar tree_4_3_u05_r5_network.node[1].content_store 	misses[1] 	96411
scalar tree_4_3_u05_r5_network.node[1].content_store 	decision_yes[1] 	89
scalar tree_4_3_u05_r5_network.node[1].content_store 	decision_no[1] 	96322
scalar tree_4_3_u05_r5_network.node[1].content_store 	decision_ratio[1] 	0.00092313117797762
scalar tree_4_3_u05_r5_network.node[2].core_layer 	interests[2] 	70809
scalar tree_4_3_u05_r5_network.node[2].core_layer 	data[2] 	67856
scalar tree_4_3_u05_r5_network.node[2].content_store 	p_hit[2] 	0.041717860723919
scalar tree_4_3_u05_r5_network.node[2].content_store 	hits[2] 	2954
scalar tree_4_3_u05_r5_network.node[2].content_store 	misses[2] 	67855
scalar tree_4_3_u05_r5_network.node[2].content_store 	decision_yes[2] 	87
scalar tree_4_3_u05_r5_network.node[2].content_store 	decision_no[2] 	67769
scalar tree_4_3_u05_r5_network.node[2].content_store 	decision_ratio[2] 	0.0012821268568734
scalar tree_4_3_u05_r5_network.node[3].core_layer 	interests[3] 	41912
scalar tree_4_3_u05_r5_network.node[3].core_layer 	data[3] 	39143
scalar tree_4_3_u05_r5_network.node[3].content_store 	p_hit[3] 	0.06606699751861
scalar tree_4_3_u05_r5_network.node[3].content_store 	hits[3] 	2769
scalar tree_4_3_u05_r5_network.node[3].content_store 	misses[3] 	39143
scalar tree_4_3_u05_r5_network.node[3].content_store 	decision_yes[3] 	110
scalar tree_4_3_u05_r5_network.node[3].content_store 	decision_no[3] 	39033
scalar tree_4_3_u05_r5_network.node[3].content_store 	decision_ratio[3] 	0.002810208721866
scalar tree_4_3_u05_r5_network.node[4].core_layer 	interests[4] 	33655
scalar tree_4_3_u05_r5_network.node[4].core_layer 	data[4] 	31628
scalar tree_4_3_u05_r5_network.node[4].content_store 	p_hit[4] 	0.060199078888724
scalar tree_4_3_u05_r5_network.node[4].content_store 	hits[4] 	2026
scalar tree_4_3_u05_r5_network.node[4].content_store 	misses[4] 	31629
scalar tree_4_3_u05_r5_network.node[4].content_store 	decision_yes[4] 	45
scalar tree_4_3_u05_r5_network.node[4].content_store 	decision_no[4] 	31583
scalar tree_4_3_u05_r5_network.node[4].content_store 	decision_ratio[4] 	0.0014227899329708
scalar tree_4_3_u05_r5_network.node[5].core_layer 	interests[5] 	37200
scalar tree_4_3_u05_r5_network.node[5].core_layer 	data[5] 	33768
scalar tree_4_3_u05_r5_network.node[5].content_store 	p_hit[5] 	0.092231182795699
scalar tree_4_3_u05_r5_network.node[5].content_store 	hits[5] 	3431
scalar tree_4_3_u05_r5_network.node[5].content_store 	misses[5] 	33769
scalar tree_4_3_u05_r5_network.node[5].content_store 	decision_yes[5] 	151
scalar tree_4_3_u05_r5_network.node[5].content_store 	decision_no[5] 	33617
scalar tree_4_3_u05_r5_network.node[5].content_store 	decision_ratio[5] 	0.0044716891731817
scalar tree_4_3_u05_r5_network.node[6].core_layer 	interests[6] 	10494
scalar tree_4_3_u05_r5_network.node[6].core_layer 	data[6] 	8488
scalar tree_4_3_u05_r5_network.node[6].content_store 	p_hit[6] 	0.19115685153421
scalar tree_4_3_u05_r5_network.node[6].content_store 	hits[6] 	2006
scalar tree_4_3_u05_r5_network.node[6].content_store 	misses[6] 	8488
scalar tree_4_3_u05_r5_network.node[6].content_store 	decision_yes[6] 	48
scalar tree_4_3_u05_r5_network.node[6].content_store 	decision_no[6] 	8440
scalar tree_4_3_u05_r5_network.node[6].content_store 	decision_ratio[6] 	0.0056550424128181
scalar tree_4_3_u05_r5_network.node[7].core_layer 	interests[7] 	25707
scalar tree_4_3_u05_r5_network.node[7].core_layer 	data[7] 	23915
scalar tree_4_3_u05_r5_network.node[7].content_store 	p_hit[7] 	0.069708639670129
scalar tree_4_3_u05_r5_network.node[7].content_store 	hits[7] 	1792
scalar tree_4_3_u05_r5_network.node[7].content_store 	misses[7] 	23915
scalar tree_4_3_u05_r5_network.node[7].content_store 	decision_yes[7] 	55
scalar tree_4_3_u05_r5_network.node[7].content_store 	decision_no[7] 	23860
scalar tree_4_3_u05_r5_network.node[7].content_store 	decision_ratio[7] 	0.0022998118335773
scalar tree_4_3_u05_r5_network.node[8].core_layer 	interests[8] 	33636
scalar tree_4_3_u05_r5_network.node[8].core_layer 	data[8] 	31523
scalar tree_4_3_u05_r5_network.node[8].content_store 	p_hit[8] 	0.062819598049709
scalar tree_4_3_u05_r5_network.node[8].content_store 	hits[8] 	2113
scalar tree_4_3_u05_r5_network.node[8].content_store 	misses[8] 	31523
scalar tree_4_3_u05_r5_network.node[8].content_store 	decision_yes[8] 	62
scalar tree_4_3_u05_r5_network.node[8].content_store 	decision_no[8] 	31461
scalar tree_4_3_u05_r5_network.node[8].content_store 	decision_ratio[8] 	0.001966817879009
scalar tree_4_3_u05_r5_network.node[9].core_layer 	interests[9] 	21315
scalar tree_4_3_u05_r5_network.node[9].core_layer 	data[9] 	17845
scalar tree_4_3_u05_r5_network.node[9].content_store 	p_hit[9] 	0.16284306826179
scalar tree_4_3_u05_r5_network.node[9].content_store 	hits[9] 	3471
scalar tree_4_3_u05_r5_network.node[9].content_store 	misses[9] 	17844
scalar tree_4_3_u05_r5_network.node[9].content_store 	decision_yes[9] 	165
scalar tree_4_3_u05_r5_network.node[9].content_store 	decision_no[9] 	17680
scalar tree_4_3_u05_r5_network.node[9].content_store 	decision_ratio[9] 	0.0092462874754833
scalar tree_4_3_u05_r5_network.node[10].core_layer 	interests[10] 	35828
scalar tree_4_3_u05_r5_network.node[10].core_layer 	data[10] 	32849
scalar tree_4_3_u05_r5_network.node[10].content_store 	p_hit[10] 	0.083175170257899
scalar tree_4_3_u05_r5_network.node[10].content_store 	hits[10] 	2980
scalar tree_4_3_u05_r5_network.node[10].content_store 	misses[10] 	32848
scalar tree_4_3_u05_r5_network.node[10].content_store 	decision_yes[10] 	114
scalar tree_4_3_u05_r5_network.node[10].content_store 	decision_no[10] 	32735
scalar tree_4_3_u05_r5_network.node[10].content_store 	decision_ratio[10] 	0.0034704252793084
scalar tree_4_3_u05_r5_network.node[11].core_layer 	interests[11] 	17809
scalar tree_4_3_u05_r5_network.node[11].core_layer 	data[11] 	16188
scalar tree_4_3_u05_r5_network.node[11].content_store 	p_hit[11] 	0.091021393677354
scalar tree_4_3_u05_r5_network.node[11].content_store 	hits[11] 	1621
scalar tree_4_3_u05_r5_network.node[11].content_store 	misses[11] 	16188
scalar tree_4_3_u05_r5_network.node[11].content_store 	decision_yes[11] 	37
scalar tree_4_3_u05_r5_network.node[11].content_store 	decision_no[11] 	16151
scalar tree_4_3_u05_r5_network.node[11].content_store 	decision_ratio[11] 	0.0022856436866815
scalar tree_4_3_u05_r5_network.node[12].core_layer 	interests[12] 	26752
scalar tree_4_3_u05_r5_network.node[12].core_layer 	data[12] 	24688
scalar tree_4_3_u05_r5_network.node[12].content_store 	p_hit[12] 	0.077153110047847
scalar tree_4_3_u05_r5_network.node[12].content_store 	hits[12] 	2064
scalar tree_4_3_u05_r5_network.node[12].content_store 	misses[12] 	24688
scalar tree_4_3_u05_r5_network.node[12].content_store 	decision_yes[12] 	84
scalar tree_4_3_u05_r5_network.node[12].content_store 	decision_no[12] 	24604
scalar tree_4_3_u05_r5_network.node[12].content_store 	decision_ratio[12] 	0.003402462734932
scalar tree_4_3_u05_r5_network.node[13].core_layer 	interests[13] 	12236
scalar tree_4_3_u05_r5_network.node[13].core_layer 	data[13] 	8722
scalar tree_4_3_u05_r5_network.node[13].content_store 	p_hit[13] 	0.28718535469108
scalar tree_4_3_u05_r5_network.node[13].content_store 	hits[13] 	3514
scalar tree_4_3_u05_r5_network.node[13].content_store 	misses[13] 	8722
scalar tree_4_3_u05_r5_network.node[13].content_store 	decision_yes[13] 	17
scalar tree_4_3_u05_r5_network.node[13].content_store 	decision_no[13] 	8705
scalar tree_4_3_u05_r5_network.node[13].content_store 	decision_ratio[13] 	0.0019490942444393
scalar tree_4_3_u05_r5_network.node[14].core_layer 	interests[14] 	12652
scalar tree_4_3_u05_r5_network.node[14].core_layer 	data[14] 	8800
scalar tree_4_3_u05_r5_network.node[14].content_store 	p_hit[14] 	0.30445779323427
scalar tree_4_3_u05_r5_network.node[14].content_store 	hits[14] 	3852
scalar tree_4_3_u05_r5_network.node[14].content_store 	misses[14] 	8800
scalar tree_4_3_u05_r5_network.node[14].content_store 	decision_yes[14] 	47
scalar tree_4_3_u05_r5_network.node[14].content_store 	decision_no[14] 	8753
scalar tree_4_3_u05_r5_network.node[14].content_store 	decision_ratio[14] 	0.0053409090909091
scalar tree_4_3_u05_r5_network.node[15].core_layer 	interests[15] 	12462
scalar tree_4_3_u05_r5_network.node[15].core_layer 	data[15] 	8758
scalar tree_4_3_u05_r5_network.node[15].content_store 	p_hit[15] 	0.29722355962125
scalar tree_4_3_u05_r5_network.node[15].content_store 	hits[15] 	3704
scalar tree_4_3_u05_r5_network.node[15].content_store 	misses[15] 	8758
scalar tree_4_3_u05_r5_network.node[15].content_store 	decision_yes[15] 	45
scalar tree_4_3_u05_r5_network.node[15].content_store 	decision_no[15] 	8713
scalar tree_4_3_u05_r5_network.node[15].content_store 	decision_ratio[15] 	0.0051381593971226
scalar tree_4_3_u05_r5_network.node[16].core_layer 	interests[16] 	12432
scalar tree_4_3_u05_r5_network.node[16].core_layer 	data[16] 	8914
scalar tree_4_3_u05_r5_network.node[16].content_store 	p_hit[16] 	0.28289897039897
scalar tree_4_3_u05_r5_network.node[16].content_store 	hits[16] 	3517
scalar tree_4_3_u05_r5_network.node[16].content_store 	misses[16] 	8915
scalar tree_4_3_u05_r5_network.node[16].content_store 	decision_yes[16] 	31
scalar tree_4_3_u05_r5_network.node[16].content_store 	decision_no[16] 	8883
scalar tree_4_3_u05_r5_network.node[16].content_store 	decision_ratio[16] 	0.0034776755665246
scalar tree_4_3_u05_r5_network.node[17].core_layer 	interests[17] 	12395
scalar tree_4_3_u05_r5_network.node[17].core_layer 	data[17] 	8638
scalar tree_4_3_u05_r5_network.node[17].content_store 	p_hit[17] 	0.30310609116579
scalar tree_4_3_u05_r5_network.node[17].content_store 	hits[17] 	3757
scalar tree_4_3_u05_r5_network.node[17].content_store 	misses[17] 	8638
scalar tree_4_3_u05_r5_network.node[17].content_store 	decision_yes[17] 	20
scalar tree_4_3_u05_r5_network.node[17].content_store 	decision_no[17] 	8618
scalar tree_4_3_u05_r5_network.node[17].content_store 	decision_ratio[17] 	0.0023153507756425
scalar tree_4_3_u05_r5_network.node[18].core_layer 	interests[18] 	12434
scalar tree_4_3_u05_r5_network.node[18].core_layer 	data[18] 	8862
scalar tree_4_3_u05_r5_network.node[18].content_store 	p_hit[18] 	0.28727682161814
scalar tree_4_3_u05_r5_network.node[18].content_store 	hits[18] 	3572
scalar tree_4_3_u05_r5_network.node[18].content_store 	misses[18] 	8862
scalar tree_4_3_u05_r5_network.node[18].content_store 	decision_yes[18] 	26
scalar tree_4_3_u05_r5_network.node[18].content_store 	decision_no[18] 	8836
scalar tree_4_3_u05_r5_network.node[18].content_store 	decision_ratio[18] 	0.0029338749717897
scalar tree_4_3_u05_r5_network.node[19].core_layer 	interests[19] 	12353
scalar tree_4_3_u05_r5_network.node[19].core_layer 	data[19] 	8697
scalar tree_4_3_u05_r5_network.node[19].content_store 	p_hit[19] 	0.29587954343075
scalar tree_4_3_u05_r5_network.node[19].content_store 	hits[19] 	3655
scalar tree_4_3_u05_r5_network.node[19].content_store 	misses[19] 	8698
scalar tree_4_3_u05_r5_network.node[19].content_store 	decision_yes[19] 	43
scalar tree_4_3_u05_r5_network.node[19].content_store 	decision_no[19] 	8654
scalar tree_4_3_u05_r5_network.node[19].content_store 	decision_ratio[19] 	0.0049442336437852
scalar tree_4_3_u05_r5_network.node[20].core_layer 	interests[20] 	12727
scalar tree_4_3_u05_r5_network.node[20].core_layer 	data[20] 	8870
scalar tree_4_3_u05_r5_network.node[20].content_store 	p_hit[20] 	0.30305649406773
scalar tree_4_3_u05_r5_network.node[20].content_store 	hits[20] 	3857
scalar tree_4_3_u05_r5_network.node[20].content_store 	misses[20] 	8870
scalar tree_4_3_u05_r5_network.node[20].content_store 	decision_yes[20] 	45
scalar tree_4_3_u05_r5_network.node[20].content_store 	decision_no[20] 	8825
scalar tree_4_3_u05_r5_network.node[20].content_store 	decision_ratio[20] 	0.0050732807215333
scalar tree_4_3_u05_r5_network.node[21].core_layer 	interests[21] 	12162
scalar tree_4_3_u05_r5_network.node[21].core_layer 	data[21] 	8604
scalar tree_4_3_u05_r5_network.node[21].content_store 	p_hit[21] 	0.2925505673409
scalar tree_4_3_u05_r5_network.node[21].content_store 	hits[21] 	3558
scalar tree_4_3_u05_r5_network.node[21].content_store 	misses[21] 	8604
scalar tree_4_3_u05_r5_network.node[21].content_store 	decision_yes[21] 	22
scalar tree_4_3_u05_r5_network.node[21].content_store 	decision_no[21] 	8582
scalar tree_4_3_u05_r5_network.node[21].content_store 	decision_ratio[21] 	0.002556950255695
scalar tree_4_3_u05_r5_network.node[22].core_layer 	interests[22] 	12212
scalar tree_4_3_u05_r5_network.node[22].core_layer 	data[22] 	8607
scalar tree_4_3_u05_r5_network.node[22].content_store 	p_hit[22] 	0.29520144120537
scalar tree_4_3_u05_r5_network.node[22].content_store 	hits[22] 	3605
scalar tree_4_3_u05_r5_network.node[22].content_store 	misses[22] 	8607
scalar tree_4_3_u05_r5_network.node[22].content_store 	decision_yes[22] 	26
scalar tree_4_3_u05_r5_network.node[22].content_store 	decision_no[22] 	8581
scalar tree_4_3_u05_r5_network.node[22].content_store 	decision_ratio[22] 	0.0030207970256768
scalar tree_4_3_u05_r5_network.node[23].core_layer 	interests[23] 	12231
scalar tree_4_3_u05_r5_network.node[23].core_layer 	data[23] 	8619
scalar tree_4_3_u05_r5_network.node[23].content_store 	p_hit[23] 	0.2953151827324
scalar tree_4_3_u05_r5_network.node[23].content_store 	hits[23] 	3612
scalar tree_4_3_u05_r5_network.node[23].content_store 	misses[23] 	8619
scalar tree_4_3_u05_r5_network.node[23].content_store 	decision_yes[23] 	14
scalar tree_4_3_u05_r5_network.node[23].content_store 	decision_no[23] 	8605
scalar tree_4_3_u05_r5_network.node[23].content_store 	decision_ratio[23] 	0.0016243183663998
scalar tree_4_3_u05_r5_network.node[24].core_layer 	interests[24] 	12690
scalar tree_4_3_u05_r5_network.node[24].core_layer 	data[24] 	8803
scalar tree_4_3_u05_r5_network.node[24].content_store 	p_hit[24] 	0.30630417651694
scalar tree_4_3_u05_r5_network.node[24].content_store 	hits[24] 	3887
scalar tree_4_3_u05_r5_network.node[24].content_store 	misses[24] 	8803
scalar tree_4_3_u05_r5_network.node[24].content_store 	decision_yes[24] 	47
scalar tree_4_3_u05_r5_network.node[24].content_store 	decision_no[24] 	8756
scalar tree_4_3_u05_r5_network.node[24].content_store 	decision_ratio[24] 	0.0053390889469499
scalar tree_4_3_u05_r5_network.node[25].core_layer 	interests[25] 	12167
scalar tree_4_3_u05_r5_network.node[25].core_layer 	data[25] 	8564
scalar tree_4_3_u05_r5_network.node[25].content_store 	p_hit[25] 	0.29612887318156
scalar tree_4_3_u05_r5_network.node[25].content_store 	hits[25] 	3603
scalar tree_4_3_u05_r5_network.node[25].content_store 	misses[25] 	8564
scalar tree_4_3_u05_r5_network.node[25].content_store 	decision_yes[25] 	21
scalar tree_4_3_u05_r5_network.node[25].content_store 	decision_no[25] 	8543
scalar tree_4_3_u05_r5_network.node[25].content_store 	decision_ratio[25] 	0.0024521251751518
scalar tree_4_3_u05_r5_network.node[26].core_layer 	interests[26] 	12206
scalar tree_4_3_u05_r5_network.node[26].core_layer 	data[26] 	8585
scalar tree_4_3_u05_r5_network.node[26].content_store 	p_hit[26] 	0.2966573816156
scalar tree_4_3_u05_r5_network.node[26].content_store 	hits[26] 	3621
scalar tree_4_3_u05_r5_network.node[26].content_store 	misses[26] 	8585
scalar tree_4_3_u05_r5_network.node[26].content_store 	decision_yes[26] 	32
scalar tree_4_3_u05_r5_network.node[26].content_store 	decision_no[26] 	8553
scalar tree_4_3_u05_r5_network.node[26].content_store 	decision_ratio[26] 	0.0037274315666861
scalar tree_4_3_u05_r5_network.node[27].core_layer 	interests[27] 	12625
scalar tree_4_3_u05_r5_network.node[27].core_layer 	data[27] 	8806
scalar tree_4_3_u05_r5_network.node[27].content_store 	p_hit[27] 	0.30249504950495
scalar tree_4_3_u05_r5_network.node[27].content_store 	hits[27] 	3819
scalar tree_4_3_u05_r5_network.node[27].content_store 	misses[27] 	8806
scalar tree_4_3_u05_r5_network.node[27].content_store 	decision_yes[27] 	55
scalar tree_4_3_u05_r5_network.node[27].content_store 	decision_no[27] 	8751
scalar tree_4_3_u05_r5_network.node[27].content_store 	decision_ratio[27] 	0.0062457415398592
scalar tree_4_3_u05_r5_network.node[28].core_layer 	interests[28] 	12335
scalar tree_4_3_u05_r5_network.node[28].core_layer 	data[28] 	8635
scalar tree_4_3_u05_r5_network.node[28].content_store 	p_hit[28] 	0.29995946493717
scalar tree_4_3_u05_r5_network.node[28].content_store 	hits[28] 	3700
scalar tree_4_3_u05_r5_network.node[28].content_store 	misses[28] 	8635
scalar tree_4_3_u05_r5_network.node[28].content_store 	decision_yes[28] 	19
scalar tree_4_3_u05_r5_network.node[28].content_store 	decision_no[28] 	8616
scalar tree_4_3_u05_r5_network.node[28].content_store 	decision_ratio[28] 	0.0022003474232774
scalar tree_4_3_u05_r5_network.node[29].core_layer 	interests[29] 	12606
scalar tree_4_3_u05_r5_network.node[29].core_layer 	data[29] 	8795
scalar tree_4_3_u05_r5_network.node[29].content_store 	p_hit[29] 	0.30231635729018
scalar tree_4_3_u05_r5_network.node[29].content_store 	hits[29] 	3811
scalar tree_4_3_u05_r5_network.node[29].content_store 	misses[29] 	8795
scalar tree_4_3_u05_r5_network.node[29].content_store 	decision_yes[29] 	59
scalar tree_4_3_u05_r5_network.node[29].content_store 	decision_no[29] 	8736
scalar tree_4_3_u05_r5_network.node[29].content_store 	decision_ratio[29] 	0.0067083570210347
scalar tree_4_3_u05_r5_network.node[30].core_layer 	interests[30] 	12338
scalar tree_4_3_u05_r5_network.node[30].core_layer 	data[30] 	8704
scalar tree_4_3_u05_r5_network.node[30].content_store 	p_hit[30] 	0.29461825255309
scalar tree_4_3_u05_r5_network.node[30].content_store 	hits[30] 	3635
scalar tree_4_3_u05_r5_network.node[30].content_store 	misses[30] 	8703
scalar tree_4_3_u05_r5_network.node[30].content_store 	decision_yes[30] 	28
scalar tree_4_3_u05_r5_network.node[30].content_store 	decision_no[30] 	8676
scalar tree_4_3_u05_r5_network.node[30].content_store 	decision_ratio[30] 	0.0032169117647059
scalar tree_4_3_u05_r5_network.node[31].core_layer 	interests[31] 	12394
scalar tree_4_3_u05_r5_network.node[31].core_layer 	data[31] 	8703
scalar tree_4_3_u05_r5_network.node[31].content_store 	p_hit[31] 	0.2978053897047
scalar tree_4_3_u05_r5_network.node[31].content_store 	hits[31] 	3691
scalar tree_4_3_u05_r5_network.node[31].content_store 	misses[31] 	8703
scalar tree_4_3_u05_r5_network.node[31].content_store 	decision_yes[31] 	21
scalar tree_4_3_u05_r5_network.node[31].content_store 	decision_no[31] 	8682
scalar tree_4_3_u05_r5_network.node[31].content_store 	decision_ratio[31] 	0.0024129610479145
scalar tree_4_3_u05_r5_network.node[32].core_layer 	interests[32] 	12491
scalar tree_4_3_u05_r5_network.node[32].core_layer 	data[32] 	8719
scalar tree_4_3_u05_r5_network.node[32].content_store 	p_hit[32] 	0.3019774237451
scalar tree_4_3_u05_r5_network.node[32].content_store 	hits[32] 	3772
scalar tree_4_3_u05_r5_network.node[32].content_store 	misses[32] 	8719
scalar tree_4_3_u05_r5_network.node[32].content_store 	decision_yes[32] 	27
scalar tree_4_3_u05_r5_network.node[32].content_store 	decision_no[32] 	8692
scalar tree_4_3_u05_r5_network.node[32].content_store 	decision_ratio[32] 	0.0030966853997018
scalar tree_4_3_u05_r5_network.node[33].core_layer 	interests[33] 	12355
scalar tree_4_3_u05_r5_network.node[33].core_layer 	data[33] 	8701
scalar tree_4_3_u05_r5_network.node[33].content_store 	p_hit[33] 	0.2957507082153
scalar tree_4_3_u05_r5_network.node[33].content_store 	hits[33] 	3654
scalar tree_4_3_u05_r5_network.node[33].content_store 	misses[33] 	8701
scalar tree_4_3_u05_r5_network.node[33].content_store 	decision_yes[33] 	22
scalar tree_4_3_u05_r5_network.node[33].content_store 	decision_no[33] 	8679
scalar tree_4_3_u05_r5_network.node[33].content_store 	decision_ratio[33] 	0.0025284450063211
scalar tree_4_3_u05_r5_network.node[34].core_layer 	interests[34] 	12667
scalar tree_4_3_u05_r5_network.node[34].core_layer 	data[34] 	8782
scalar tree_4_3_u05_r5_network.node[34].content_store 	p_hit[34] 	0.30678140048946
scalar tree_4_3_u05_r5_network.node[34].content_store 	hits[34] 	3886
scalar tree_4_3_u05_r5_network.node[34].content_store 	misses[34] 	8781
scalar tree_4_3_u05_r5_network.node[34].content_store 	decision_yes[34] 	48
scalar tree_4_3_u05_r5_network.node[34].content_store 	decision_no[34] 	8734
scalar tree_4_3_u05_r5_network.node[34].content_store 	decision_ratio[34] 	0.0054657253473013
scalar tree_4_3_u05_r5_network.node[35].core_layer 	interests[35] 	12069
scalar tree_4_3_u05_r5_network.node[35].core_layer 	data[35] 	8676
scalar tree_4_3_u05_r5_network.node[35].content_store 	p_hit[35] 	0.28113348247576
scalar tree_4_3_u05_r5_network.node[35].content_store 	hits[35] 	3393
scalar tree_4_3_u05_r5_network.node[35].content_store 	misses[35] 	8676
scalar tree_4_3_u05_r5_network.node[35].content_store 	decision_yes[35] 	34
scalar tree_4_3_u05_r5_network.node[35].content_store 	decision_no[35] 	8642
scalar tree_4_3_u05_r5_network.node[35].content_store 	decision_ratio[35] 	0.0039188566159521
scalar tree_4_3_u05_r5_network.node[36].core_layer 	interests[36] 	12518
scalar tree_4_3_u05_r5_network.node[36].core_layer 	data[36] 	8708
scalar tree_4_3_u05_r5_network.node[36].content_store 	p_hit[36] 	0.30436171912446
scalar tree_4_3_u05_r5_network.node[36].content_store 	hits[36] 	3810
scalar tree_4_3_u05_r5_network.node[36].content_store 	misses[36] 	8708
scalar tree_4_3_u05_r5_network.node[36].content_store 	decision_yes[36] 	33
scalar tree_4_3_u05_r5_network.node[36].content_store 	decision_no[36] 	8675
scalar tree_4_3_u05_r5_network.node[36].content_store 	decision_ratio[36] 	0.0037896187413872
scalar tree_4_3_u05_r5_network.node[37].core_layer 	interests[37] 	12145
scalar tree_4_3_u05_r5_network.node[37].core_layer 	data[37] 	8564
scalar tree_4_3_u05_r5_network.node[37].content_store 	p_hit[37] 	0.29485384932071
scalar tree_4_3_u05_r5_network.node[37].content_store 	hits[37] 	3581
scalar tree_4_3_u05_r5_network.node[37].content_store 	misses[37] 	8564
scalar tree_4_3_u05_r5_network.node[37].content_store 	decision_yes[37] 	22
scalar tree_4_3_u05_r5_network.node[37].content_store 	decision_no[37] 	8542
scalar tree_4_3_u05_r5_network.node[37].content_store 	decision_ratio[37] 	0.0025688930406352
scalar tree_4_3_u05_r5_network.node[38].core_layer 	interests[38] 	12253
scalar tree_4_3_u05_r5_network.node[38].core_layer 	data[38] 	8679
scalar tree_4_3_u05_r5_network.node[38].content_store 	p_hit[38] 	0.29168366930548
scalar tree_4_3_u05_r5_network.node[38].content_store 	hits[38] 	3574
scalar tree_4_3_u05_r5_network.node[38].content_store 	misses[38] 	8679
scalar tree_4_3_u05_r5_network.node[38].content_store 	decision_yes[38] 	31
scalar tree_4_3_u05_r5_network.node[38].content_store 	decision_no[38] 	8648
scalar tree_4_3_u05_r5_network.node[38].content_store 	decision_ratio[38] 	0.0035718400737412
scalar tree_4_3_u05_r5_network.node[39].core_layer 	interests[39] 	12172
scalar tree_4_3_u05_r5_network.node[39].core_layer 	data[39] 	8609
scalar tree_4_3_u05_r5_network.node[39].content_store 	p_hit[39] 	0.29272099901413
scalar tree_4_3_u05_r5_network.node[39].content_store 	hits[39] 	3563
scalar tree_4_3_u05_r5_network.node[39].content_store 	misses[39] 	8609
scalar tree_4_3_u05_r5_network.node[39].content_store 	decision_yes[39] 	23
scalar tree_4_3_u05_r5_network.node[39].content_store 	decision_no[39] 	8586
scalar tree_4_3_u05_r5_network.node[39].content_store 	decision_ratio[39] 	0.0026716227204089
scalar tree_4_3_u05_r5_network.client[13] 	hdistance[13] 	2.6434761079475
scalar tree_4_3_u05_r5_network.client[13] 	downloads[13] 	12117
scalar tree_4_3_u05_r5_network.client[13] 	avg_time[13] 	0.004093171418
scalar tree_4_3_u05_r5_network.client[14] 	hdistance[14] 	2.5877818302387
scalar tree_4_3_u05_r5_network.client[14] 	downloads[14] 	12064
scalar tree_4_3_u05_r5_network.client[14] 	avg_time[14] 	0.004010441272
scalar tree_4_3_u05_r5_network.client[15] 	hdistance[15] 	2.6161983471074
scalar tree_4_3_u05_r5_network.client[15] 	downloads[15] 	12100
scalar tree_4_3_u05_r5_network.client[15] 	avg_time[15] 	0.004032724281
scalar tree_4_3_u05_r5_network.client[16] 	hdistance[16] 	2.6515213985322
scalar tree_4_3_u05_r5_network.client[16] 	downloads[16] 	12127
scalar tree_4_3_u05_r5_network.client[16] 	avg_time[16] 	0.004122158192
scalar tree_4_3_u05_r5_network.client[17] 	hdistance[17] 	2.5916805324459
scalar tree_4_3_u05_r5_network.client[17] 	downloads[17] 	12020
scalar tree_4_3_u05_r5_network.client[17] 	avg_time[17] 	0.004026452915
scalar tree_4_3_u05_r5_network.client[18] 	hdistance[18] 	2.6400894187779
scalar tree_4_3_u05_r5_network.client[18] 	downloads[18] 	12078
scalar tree_4_3_u05_r5_network.client[18] 	avg_time[18] 	0.004104318917
scalar tree_4_3_u05_r5_network.client[19] 	hdistance[19] 	2.6046026848995
scalar tree_4_3_u05_r5_network.client[19] 	downloads[19] 	11993
scalar tree_4_3_u05_r5_network.client[19] 	avg_time[19] 	0.004018612624
scalar tree_4_3_u05_r5_network.client[20] 	hdistance[20] 	2.6024983454666
scalar tree_4_3_u05_r5_network.client[20] 	downloads[20] 	12088
scalar tree_4_3_u05_r5_network.client[20] 	avg_time[20] 	0.004033389912
scalar tree_4_3_u05_r5_network.client[21] 	hdistance[21] 	2.6329376608284
scalar tree_4_3_u05_r5_network.client[21] 	downloads[21] 	12047
scalar tree_4_3_u05_r5_network.client[21] 	avg_time[21] 	0.004070719977
scalar tree_4_3_u05_r5_network.client[22] 	hdistance[22] 	2.6151231241191
scalar tree_4_3_u05_r5_network.client[22] 	downloads[22] 	12061
scalar tree_4_3_u05_r5_network.client[22] 	avg_time[22] 	0.004050241573
scalar tree_4_3_u05_r5_network.client[23] 	hdistance[23] 	2.641503159295
scalar tree_4_3_u05_r5_network.client[23] 	downloads[23] 	12028
scalar tree_4_3_u05_r5_network.client[23] 	avg_time[23] 	0.004081639825
scalar tree_4_3_u05_r5_network.client[24] 	hdistance[24] 	2.5847933884297
scalar tree_4_3_u05_r5_network.client[24] 	downloads[24] 	12100
scalar tree_4_3_u05_r5_network.client[24] 	avg_time[24] 	0.003996030021
scalar tree_4_3_u05_r5_network.client[25] 	hdistance[25] 	2.6364168129021
scalar tree_4_3_u05_r5_network.client[25] 	downloads[25] 	11967
scalar tree_4_3_u05_r5_network.client[25] 	avg_time[25] 	0.004076039461
scalar tree_4_3_u05_r5_network.client[26] 	hdistance[26] 	2.6161464835622
scalar tree_4_3_u05_r5_network.client[26] 	downloads[26] 	12015
scalar tree_4_3_u05_r5_network.client[26] 	avg_time[26] 	0.004047437713
scalar tree_4_3_u05_r5_network.client[27] 	hdistance[27] 	2.6032803263675
scalar tree_4_3_u05_r5_network.client[27] 	downloads[27] 	12011
scalar tree_4_3_u05_r5_network.client[27] 	avg_time[27] 	0.004028637427
scalar tree_4_3_u05_r5_network.client[28] 	hdistance[28] 	2.6019521879395
scalar tree_4_3_u05_r5_network.client[28] 	downloads[28] 	12089
scalar tree_4_3_u05_r5_network.client[28] 	avg_time[28] 	0.004031926829
scalar tree_4_3_u05_r5_network.client[29] 	hdistance[29] 	2.58925159897
scalar tree_4_3_u05_r5_network.client[29] 	downloads[29] 	12039
scalar tree_4_3_u05_r5_network.client[29] 	avg_time[29] 	0.004009133964
scalar tree_4_3_u05_r5_network.client[30] 	hdistance[30] 	2.6221503771864
scalar tree_4_3_u05_r5_network.client[30] 	downloads[30] 	12063
scalar tree_4_3_u05_r5_network.client[30] 	avg_time[30] 	0.004062170588
scalar tree_4_3_u05_r5_network.client[31] 	hdistance[31] 	2.6106977513228
scalar tree_4_3_u05_r5_network.client[31] 	downloads[31] 	12096
scalar tree_4_3_u05_r5_network.client[31] 	avg_time[31] 	0.004049600158
scalar tree_4_3_u05_r5_network.client[32] 	hdistance[32] 	2.6027498765026
scalar tree_4_3_u05_r5_network.client[32] 	downloads[32] 	12146
scalar tree_4_3_u05_r5_network.client[32] 	avg_time[32] 	0.004040339434
scalar tree_4_3_u05_r5_network.client[33] 	hdistance[33] 	2.6186356073211
scalar tree_4_3_u05_r5_network.client[33] 	downloads[33] 	12020
scalar tree_4_3_u05_r5_network.client[33] 	avg_time[33] 	0.00407270916
scalar tree_4_3_u05_r5_network.client[34] 	hdistance[34] 	2.5847590709976
scalar tree_4_3_u05_r5_network.client[34] 	downloads[34] 	12099
scalar tree_4_3_u05_r5_network.client[34] 	avg_time[34] 	0.004003964266
scalar tree_4_3_u05_r5_network.client[35] 	hdistance[35] 	2.6723734758644
scalar tree_4_3_u05_r5_network.client[35] 	downloads[35] 	11974
scalar tree_4_3_u05_r5_network.client[35] 	avg_time[35] 	0.004120257577
scalar tree_4_3_u05_r5_network.client[36] 	hdistance[36] 	2.6221205821206
scalar tree_4_3_u05_r5_network.client[36] 	downloads[36] 	12025
scalar tree_4_3_u05_r5_network.client[36] 	avg_time[36] 	0.004035423164
scalar tree_4_3_u05_r5_network.client[37] 	hdistance[37] 	2.6351000586117
scalar tree_4_3_u05_r5_network.client[37] 	downloads[37] 	11943
scalar tree_4_3_u05_r5_network.client[37] 	avg_time[37] 	0.004067651654
scalar tree_4_3_u05_r5_network.client[38] 	hdistance[38] 	2.6414418914419
scalar tree_4_3_u05_r5_network.client[38] 	downloads[38] 	12012
scalar tree_4_3_u05_r5_network.client[38] 	avg_time[38] 	0.004079417558
scalar tree_4_3_u05_r5_network.client[39] 	hdistance[39] 	2.6630443868595
scalar tree_4_3_u05_r5_network.client[39] 	downloads[39] 	11963
scalar tree_4_3_u05_r5_network.client[39] 	avg_time[39] 	0.004106324858
