version 2
run General-350-20160901-06:00:35-8710
attr a 0.9
attr cd tfc
attr configname General
attr cr lru
attr datetime 20160901-06:00:35
attr experiment General
attr fsize 1
attr inifile hw5115/scenario_Y/omnetp.ini
attr iterationvars "$name=tree_4_3, $un=05, $rep=17, $cd=tfc, $cr=lru, $fsize=1, $a=0.9, $sl=nrr, $ttl=1000, $variance=0.05"
attr iterationvars2 "$name=tree_4_3, $un=05, $rep=17, $cd=tfc, $cr=lru, $fsize=1, $a=0.9, $sl=nrr, $ttl=1000, $variance=0.05, $repetition=0"
attr measurement "$name=tree_4_3, $un=05, $rep=17, $cd=tfc, $cr=lru, $fsize=1, $a=0.9, $sl=nrr, $ttl=1000, $variance=0.05"
attr name tree_4_3
attr network networks.${name}_u${un}_r${rep}_network
attr processid 8710
attr rep 17
attr repetition 0
attr replication #0
attr resultdir results
attr runnumber 350
attr seedset 17
attr sl nrr
attr ttl 1000
attr un 05
attr variance 0.05

scalar . 	a 	0.9
scalar . 	fsize 	1
scalar . 	rep 	17
scalar . 	ttl 	1000
scalar . 	un 	05
scalar . 	variance 	0.05
scalar tree_4_3_u05_r17_network.content_distribution 	repo-0 	0
scalar tree_4_3_u05_r17_network.content_distribution 	client-0 	13
scalar tree_4_3_u05_r17_network.content_distribution 	client-1 	14
scalar tree_4_3_u05_r17_network.content_distribution 	client-2 	15
scalar tree_4_3_u05_r17_network.content_distribution 	client-3 	16
scalar tree_4_3_u05_r17_network.content_distribution 	client-4 	17
scalar tree_4_3_u05_r17_network.content_distribution 	client-5 	18
scalar tree_4_3_u05_r17_network.content_distribution 	client-6 	19
scalar tree_4_3_u05_r17_network.content_distribution 	client-7 	20
scalar tree_4_3_u05_r17_network.content_distribution 	client-8 	21
scalar tree_4_3_u05_r17_network.content_distribution 	client-9 	22
scalar tree_4_3_u05_r17_network.content_distribution 	client-10 	23
scalar tree_4_3_u05_r17_network.content_distribution 	client-11 	24
scalar tree_4_3_u05_r17_network.content_distribution 	client-12 	25
scalar tree_4_3_u05_r17_network.content_distribution 	client-13 	26
scalar tree_4_3_u05_r17_network.content_distribution 	client-14 	27
scalar tree_4_3_u05_r17_network.content_distribution 	client-15 	28
scalar tree_4_3_u05_r17_network.content_distribution 	client-16 	29
scalar tree_4_3_u05_r17_network.content_distribution 	client-17 	30
scalar tree_4_3_u05_r17_network.content_distribution 	client-18 	31
scalar tree_4_3_u05_r17_network.content_distribution 	client-19 	32
scalar tree_4_3_u05_r17_network.content_distribution 	client-20 	33
scalar tree_4_3_u05_r17_network.content_distribution 	client-21 	34
scalar tree_4_3_u05_r17_network.content_distribution 	client-22 	35
scalar tree_4_3_u05_r17_network.content_distribution 	client-23 	36
scalar tree_4_3_u05_r17_network.content_distribution 	client-24 	37
scalar tree_4_3_u05_r17_network.content_distribution 	client-25 	38
scalar tree_4_3_u05_r17_network.content_distribution 	client-26 	39
scalar tree_4_3_u05_r17_network.content_distribution 	repo-0_card 	100000
scalar tree_4_3_u05_r17_network.content_distribution 	repo-0_price 	0
scalar tree_4_3_u05_r17_network.statistics 	stabilization_time 	2664.7
scalar tree_4_3_u05_r17_network.statistics 	p_hit 	0.22630866969166
scalar tree_4_3_u05_r17_network.statistics 	interests 	24490.55
scalar tree_4_3_u05_r17_network.statistics 	data 	16405.9
scalar tree_4_3_u05_r17_network.statistics 	hdistance 	2.6310991249636
scalar tree_4_3_u05_r17_network.statistics 	avg_time 	0.004058590895
scalar tree_4_3_u05_r17_network.statistics 	downloads 	323385
scalar tree_4_3_u05_r17_network.statistics 	total_cost 	0
scalar tree_4_3_u05_r17_network.statistics 	total_replicas 	100000
scalar tree_4_3_u05_r17_network.statistics 	inner_hit 	0.39823121047668
scalar tree_4_3_u05_r17_network.node[0].core_layer 	interests[0] 	198207
scalar tree_4_3_u05_r17_network.node[0].core_layer 	repo_load[0] 	194603
scalar tree_4_3_u05_r17_network.node[0].core_layer 	data[0] 	0
scalar tree_4_3_u05_r17_network.node[0].core_layer 	repo_int[0] 	194603
scalar tree_4_3_u05_r17_network.node[0].content_store 	p_hit[0] 	0.018183010690843
scalar tree_4_3_u05_r17_network.node[0].content_store 	hits[0] 	3604
scalar tree_4_3_u05_r17_network.node[0].content_store 	misses[0] 	194603
scalar tree_4_3_u05_r17_network.node[0].content_store 	decision_yes[0] 	1019
scalar tree_4_3_u05_r17_network.node[0].content_store 	decision_no[0] 	193584
scalar tree_4_3_u05_r17_network.node[0].content_store 	decision_ratio[0] 	0.0052363015986393
scalar tree_4_3_u05_r17_network.node[1].core_layer 	interests[1] 	98781
scalar tree_4_3_u05_r17_network.node[1].core_layer 	data[1] 	96183
scalar tree_4_3_u05_r17_network.node[1].content_store 	p_hit[1] 	0.026290480962938
scalar tree_4_3_u05_r17_network.node[1].content_store 	hits[1] 	2597
scalar tree_4_3_u05_r17_network.node[1].content_store 	misses[1] 	96184
scalar tree_4_3_u05_r17_network.node[1].content_store 	decision_yes[1] 	93
scalar tree_4_3_u05_r17_network.node[1].content_store 	decision_no[1] 	96090
scalar tree_4_3_u05_r17_network.node[1].content_store 	decision_ratio[1] 	0.00096690683384798
scalar tree_4_3_u05_r17_network.node[2].core_layer 	interests[2] 	70999
scalar tree_4_3_u05_r17_network.node[2].core_layer 	data[2] 	69094
scalar tree_4_3_u05_r17_network.node[2].content_store 	p_hit[2] 	0.026831363822026
scalar tree_4_3_u05_r17_network.node[2].content_store 	hits[2] 	1905
scalar tree_4_3_u05_r17_network.node[2].content_store 	misses[2] 	69094
scalar tree_4_3_u05_r17_network.node[2].content_store 	decision_yes[2] 	64
scalar tree_4_3_u05_r17_network.node[2].content_store 	decision_no[2] 	69030
scalar tree_4_3_u05_r17_network.node[2].content_store 	decision_ratio[2] 	0.0009262743508843
scalar tree_4_3_u05_r17_network.node[3].core_layer 	interests[3] 	40817
scalar tree_4_3_u05_r17_network.node[3].core_layer 	data[3] 	38506
scalar tree_4_3_u05_r17_network.node[3].content_store 	p_hit[3] 	0.056618565793664
scalar tree_4_3_u05_r17_network.node[3].content_store 	hits[3] 	2311
scalar tree_4_3_u05_r17_network.node[3].content_store 	misses[3] 	38506
scalar tree_4_3_u05_r17_network.node[3].content_store 	decision_yes[3] 	77
scalar tree_4_3_u05_r17_network.node[3].content_store 	decision_no[3] 	38429
scalar tree_4_3_u05_r17_network.node[3].content_store 	decision_ratio[3] 	0.0019996883602555
scalar tree_4_3_u05_r17_network.node[4].core_layer 	interests[4] 	42330
scalar tree_4_3_u05_r17_network.node[4].core_layer 	data[4] 	39802
scalar tree_4_3_u05_r17_network.node[4].content_store 	p_hit[4] 	0.059721237892747
scalar tree_4_3_u05_r17_network.node[4].content_store 	hits[4] 	2528
scalar tree_4_3_u05_r17_network.node[4].content_store 	misses[4] 	39802
scalar tree_4_3_u05_r17_network.node[4].content_store 	decision_yes[4] 	93
scalar tree_4_3_u05_r17_network.node[4].content_store 	decision_no[4] 	39709
scalar tree_4_3_u05_r17_network.node[4].content_store 	decision_ratio[4] 	0.0023365660017085
scalar tree_4_3_u05_r17_network.node[5].core_layer 	interests[5] 	26658
scalar tree_4_3_u05_r17_network.node[5].core_layer 	data[5] 	24154
scalar tree_4_3_u05_r17_network.node[5].content_store 	p_hit[5] 	0.09389301522995
scalar tree_4_3_u05_r17_network.node[5].content_store 	hits[5] 	2503
scalar tree_4_3_u05_r17_network.node[5].content_store 	misses[5] 	24155
scalar tree_4_3_u05_r17_network.node[5].content_store 	decision_yes[5] 	83
scalar tree_4_3_u05_r17_network.node[5].content_store 	decision_no[5] 	24071
scalar tree_4_3_u05_r17_network.node[5].content_store 	decision_ratio[5] 	0.0034362838453258
scalar tree_4_3_u05_r17_network.node[6].core_layer 	interests[6] 	11168
scalar tree_4_3_u05_r17_network.node[6].core_layer 	data[6] 	8817
scalar tree_4_3_u05_r17_network.node[6].content_store 	p_hit[6] 	0.21051217765043
scalar tree_4_3_u05_r17_network.node[6].content_store 	hits[6] 	2351
scalar tree_4_3_u05_r17_network.node[6].content_store 	misses[6] 	8817
scalar tree_4_3_u05_r17_network.node[6].content_store 	decision_yes[6] 	74
scalar tree_4_3_u05_r17_network.node[6].content_store 	decision_no[6] 	8743
scalar tree_4_3_u05_r17_network.node[6].content_store 	decision_ratio[6] 	0.0083928773959397
scalar tree_4_3_u05_r17_network.node[7].core_layer 	interests[7] 	34058
scalar tree_4_3_u05_r17_network.node[7].core_layer 	data[7] 	32218
scalar tree_4_3_u05_r17_network.node[7].content_store 	p_hit[7] 	0.054054847612896
scalar tree_4_3_u05_r17_network.node[7].content_store 	hits[7] 	1841
scalar tree_4_3_u05_r17_network.node[7].content_store 	misses[7] 	32217
scalar tree_4_3_u05_r17_network.node[7].content_store 	decision_yes[7] 	56
scalar tree_4_3_u05_r17_network.node[7].content_store 	decision_no[7] 	32162
scalar tree_4_3_u05_r17_network.node[7].content_store 	decision_ratio[7] 	0.0017381587932212
scalar tree_4_3_u05_r17_network.node[8].core_layer 	interests[8] 	26734
scalar tree_4_3_u05_r17_network.node[8].core_layer 	data[8] 	24747
scalar tree_4_3_u05_r17_network.node[8].content_store 	p_hit[8] 	0.074324829804743
scalar tree_4_3_u05_r17_network.node[8].content_store 	hits[8] 	1987
scalar tree_4_3_u05_r17_network.node[8].content_store 	misses[8] 	24747
scalar tree_4_3_u05_r17_network.node[8].content_store 	decision_yes[8] 	83
scalar tree_4_3_u05_r17_network.node[8].content_store 	decision_no[8] 	24664
scalar tree_4_3_u05_r17_network.node[8].content_store 	decision_ratio[8] 	0.0033539418919465
scalar tree_4_3_u05_r17_network.node[9].core_layer 	interests[9] 	17974
scalar tree_4_3_u05_r17_network.node[9].core_layer 	data[9] 	16355
scalar tree_4_3_u05_r17_network.node[9].content_store 	p_hit[9] 	0.090074552130856
scalar tree_4_3_u05_r17_network.node[9].content_store 	hits[9] 	1619
scalar tree_4_3_u05_r17_network.node[9].content_store 	misses[9] 	16355
scalar tree_4_3_u05_r17_network.node[9].content_store 	decision_yes[9] 	62
scalar tree_4_3_u05_r17_network.node[9].content_store 	decision_no[9] 	16293
scalar tree_4_3_u05_r17_network.node[9].content_store 	decision_ratio[9] 	0.0037908896361969
scalar tree_4_3_u05_r17_network.node[10].core_layer 	interests[10] 	34582
scalar tree_4_3_u05_r17_network.node[10].core_layer 	data[10] 	31842
scalar tree_4_3_u05_r17_network.node[10].content_store 	p_hit[10] 	0.07923197038922
scalar tree_4_3_u05_r17_network.node[10].content_store 	hits[10] 	2740
scalar tree_4_3_u05_r17_network.node[10].content_store 	misses[10] 	31842
scalar tree_4_3_u05_r17_network.node[10].content_store 	decision_yes[10] 	66
scalar tree_4_3_u05_r17_network.node[10].content_store 	decision_no[10] 	31776
scalar tree_4_3_u05_r17_network.node[10].content_store 	decision_ratio[10] 	0.0020727341247409
scalar tree_4_3_u05_r17_network.node[11].core_layer 	interests[11] 	35213
scalar tree_4_3_u05_r17_network.node[11].core_layer 	data[11] 	32755
scalar tree_4_3_u05_r17_network.node[11].content_store 	p_hit[11] 	0.06980376565473
scalar tree_4_3_u05_r17_network.node[11].content_store 	hits[11] 	2458
scalar tree_4_3_u05_r17_network.node[11].content_store 	misses[11] 	32755
scalar tree_4_3_u05_r17_network.node[11].content_store 	decision_yes[11] 	110
scalar tree_4_3_u05_r17_network.node[11].content_store 	decision_no[11] 	32645
scalar tree_4_3_u05_r17_network.node[11].content_store 	decision_ratio[11] 	0.003358265913601
scalar tree_4_3_u05_r17_network.node[12].core_layer 	interests[12] 	10275
scalar tree_4_3_u05_r17_network.node[12].core_layer 	data[12] 	8347
scalar tree_4_3_u05_r17_network.node[12].content_store 	p_hit[12] 	0.1876399026764
scalar tree_4_3_u05_r17_network.node[12].content_store 	hits[12] 	1928
scalar tree_4_3_u05_r17_network.node[12].content_store 	misses[12] 	8347
scalar tree_4_3_u05_r17_network.node[12].content_store 	decision_yes[12] 	50
scalar tree_4_3_u05_r17_network.node[12].content_store 	decision_no[12] 	8297
scalar tree_4_3_u05_r17_network.node[12].content_store 	decision_ratio[12] 	0.0059901761111777
scalar tree_4_3_u05_r17_network.node[13].core_layer 	interests[13] 	12209
scalar tree_4_3_u05_r17_network.node[13].core_layer 	data[13] 	8608
scalar tree_4_3_u05_r17_network.node[13].content_store 	p_hit[13] 	0.2949463510525
scalar tree_4_3_u05_r17_network.node[13].content_store 	hits[13] 	3601
scalar tree_4_3_u05_r17_network.node[13].content_store 	misses[13] 	8608
scalar tree_4_3_u05_r17_network.node[13].content_store 	decision_yes[13] 	30
scalar tree_4_3_u05_r17_network.node[13].content_store 	decision_no[13] 	8578
scalar tree_4_3_u05_r17_network.node[13].content_store 	decision_ratio[13] 	0.0034851301115242
scalar tree_4_3_u05_r17_network.node[14].core_layer 	interests[14] 	12528
scalar tree_4_3_u05_r17_network.node[14].core_layer 	data[14] 	8818
scalar tree_4_3_u05_r17_network.node[14].content_store 	p_hit[14] 	0.29621647509579
scalar tree_4_3_u05_r17_network.node[14].content_store 	hits[14] 	3711
scalar tree_4_3_u05_r17_network.node[14].content_store 	misses[14] 	8817
scalar tree_4_3_u05_r17_network.node[14].content_store 	decision_yes[14] 	63
scalar tree_4_3_u05_r17_network.node[14].content_store 	decision_no[14] 	8755
scalar tree_4_3_u05_r17_network.node[14].content_store 	decision_ratio[14] 	0.0071444772057156
scalar tree_4_3_u05_r17_network.node[15].core_layer 	interests[15] 	12164
scalar tree_4_3_u05_r17_network.node[15].core_layer 	data[15] 	8662
scalar tree_4_3_u05_r17_network.node[15].content_store 	p_hit[15] 	0.28789871752713
scalar tree_4_3_u05_r17_network.node[15].content_store 	hits[15] 	3502
scalar tree_4_3_u05_r17_network.node[15].content_store 	misses[15] 	8662
scalar tree_4_3_u05_r17_network.node[15].content_store 	decision_yes[15] 	22
scalar tree_4_3_u05_r17_network.node[15].content_store 	decision_no[15] 	8640
scalar tree_4_3_u05_r17_network.node[15].content_store 	decision_ratio[15] 	0.002539829138767
scalar tree_4_3_u05_r17_network.node[16].core_layer 	interests[16] 	12657
scalar tree_4_3_u05_r17_network.node[16].core_layer 	data[16] 	8701
scalar tree_4_3_u05_r17_network.node[16].content_store 	p_hit[16] 	0.31247531010508
scalar tree_4_3_u05_r17_network.node[16].content_store 	hits[16] 	3955
scalar tree_4_3_u05_r17_network.node[16].content_store 	misses[16] 	8702
scalar tree_4_3_u05_r17_network.node[16].content_store 	decision_yes[16] 	43
scalar tree_4_3_u05_r17_network.node[16].content_store 	decision_no[16] 	8658
scalar tree_4_3_u05_r17_network.node[16].content_store 	decision_ratio[16] 	0.0049419606941731
scalar tree_4_3_u05_r17_network.node[17].core_layer 	interests[17] 	12267
scalar tree_4_3_u05_r17_network.node[17].core_layer 	data[17] 	8536
scalar tree_4_3_u05_r17_network.node[17].content_store 	p_hit[17] 	0.30414934376783
scalar tree_4_3_u05_r17_network.node[17].content_store 	hits[17] 	3731
scalar tree_4_3_u05_r17_network.node[17].content_store 	misses[17] 	8536
scalar tree_4_3_u05_r17_network.node[17].content_store 	decision_yes[17] 	27
scalar tree_4_3_u05_r17_network.node[17].content_store 	decision_no[17] 	8509
scalar tree_4_3_u05_r17_network.node[17].content_store 	decision_ratio[17] 	0.0031630740393627
scalar tree_4_3_u05_r17_network.node[18].core_layer 	interests[18] 	12128
scalar tree_4_3_u05_r17_network.node[18].core_layer 	data[18] 	8543
scalar tree_4_3_u05_r17_network.node[18].content_store 	p_hit[18] 	0.29567941952507
scalar tree_4_3_u05_r17_network.node[18].content_store 	hits[18] 	3586
scalar tree_4_3_u05_r17_network.node[18].content_store 	misses[18] 	8542
scalar tree_4_3_u05_r17_network.node[18].content_store 	decision_yes[18] 	23
scalar tree_4_3_u05_r17_network.node[18].content_store 	decision_no[18] 	8520
scalar tree_4_3_u05_r17_network.node[18].content_store 	decision_ratio[18] 	0.0026922626711928
scalar tree_4_3_u05_r17_network.node[19].core_layer 	interests[19] 	12624
scalar tree_4_3_u05_r17_network.node[19].core_layer 	data[19] 	8768
scalar tree_4_3_u05_r17_network.node[19].content_store 	p_hit[19] 	0.30544993662864
scalar tree_4_3_u05_r17_network.node[19].content_store 	hits[19] 	3856
scalar tree_4_3_u05_r17_network.node[19].content_store 	misses[19] 	8768
scalar tree_4_3_u05_r17_network.node[19].content_store 	decision_yes[19] 	48
scalar tree_4_3_u05_r17_network.node[19].content_store 	decision_no[19] 	8720
scalar tree_4_3_u05_r17_network.node[19].content_store 	decision_ratio[19] 	0.0054744525547445
scalar tree_4_3_u05_r17_network.node[20].core_layer 	interests[20] 	12439
scalar tree_4_3_u05_r17_network.node[20].core_layer 	data[20] 	8684
scalar tree_4_3_u05_r17_network.node[20].content_store 	p_hit[20] 	0.30179274861323
scalar tree_4_3_u05_r17_network.node[20].content_store 	hits[20] 	3754
scalar tree_4_3_u05_r17_network.node[20].content_store 	misses[20] 	8685
scalar tree_4_3_u05_r17_network.node[20].content_store 	decision_yes[20] 	49
scalar tree_4_3_u05_r17_network.node[20].content_store 	decision_no[20] 	8635
scalar tree_4_3_u05_r17_network.node[20].content_store 	decision_ratio[20] 	0.0056425610317826
scalar tree_4_3_u05_r17_network.node[21].core_layer 	interests[21] 	12143
scalar tree_4_3_u05_r17_network.node[21].core_layer 	data[21] 	8618
scalar tree_4_3_u05_r17_network.node[21].content_store 	p_hit[21] 	0.29029070246232
scalar tree_4_3_u05_r17_network.node[21].content_store 	hits[21] 	3525
scalar tree_4_3_u05_r17_network.node[21].content_store 	misses[21] 	8618
scalar tree_4_3_u05_r17_network.node[21].content_store 	decision_yes[21] 	25
scalar tree_4_3_u05_r17_network.node[21].content_store 	decision_no[21] 	8593
scalar tree_4_3_u05_r17_network.node[21].content_store 	decision_ratio[21] 	0.0029009050823857
scalar tree_4_3_u05_r17_network.node[22].core_layer 	interests[22] 	12112
scalar tree_4_3_u05_r17_network.node[22].core_layer 	data[22] 	8525
scalar tree_4_3_u05_r17_network.node[22].content_store 	p_hit[22] 	0.29623513870542
scalar tree_4_3_u05_r17_network.node[22].content_store 	hits[22] 	3588
scalar tree_4_3_u05_r17_network.node[22].content_store 	misses[22] 	8524
scalar tree_4_3_u05_r17_network.node[22].content_store 	decision_yes[22] 	21
scalar tree_4_3_u05_r17_network.node[22].content_store 	decision_no[22] 	8504
scalar tree_4_3_u05_r17_network.node[22].content_store 	decision_ratio[22] 	0.0024633431085044
scalar tree_4_3_u05_r17_network.node[23].core_layer 	interests[23] 	12612
scalar tree_4_3_u05_r17_network.node[23].core_layer 	data[23] 	8675
scalar tree_4_3_u05_r17_network.node[23].content_store 	p_hit[23] 	0.31216301934665
scalar tree_4_3_u05_r17_network.node[23].content_store 	hits[23] 	3937
scalar tree_4_3_u05_r17_network.node[23].content_store 	misses[23] 	8675
scalar tree_4_3_u05_r17_network.node[23].content_store 	decision_yes[23] 	40
scalar tree_4_3_u05_r17_network.node[23].content_store 	decision_no[23] 	8635
scalar tree_4_3_u05_r17_network.node[23].content_store 	decision_ratio[23] 	0.0046109510086455
scalar tree_4_3_u05_r17_network.node[24].core_layer 	interests[24] 	12287
scalar tree_4_3_u05_r17_network.node[24].core_layer 	data[24] 	8652
scalar tree_4_3_u05_r17_network.node[24].content_store 	p_hit[24] 	0.2958411329047
scalar tree_4_3_u05_r17_network.node[24].content_store 	hits[24] 	3635
scalar tree_4_3_u05_r17_network.node[24].content_store 	misses[24] 	8652
scalar tree_4_3_u05_r17_network.node[24].content_store 	decision_yes[24] 	21
scalar tree_4_3_u05_r17_network.node[24].content_store 	decision_no[24] 	8631
scalar tree_4_3_u05_r17_network.node[24].content_store 	decision_ratio[24] 	0.0024271844660194
scalar tree_4_3_u05_r17_network.node[25].core_layer 	interests[25] 	12048
scalar tree_4_3_u05_r17_network.node[25].core_layer 	data[25] 	8608
scalar tree_4_3_u05_r17_network.node[25].content_store 	p_hit[25] 	0.28544156706507
scalar tree_4_3_u05_r17_network.node[25].content_store 	hits[25] 	3439
scalar tree_4_3_u05_r17_network.node[25].content_store 	misses[25] 	8609
scalar tree_4_3_u05_r17_network.node[25].content_store 	decision_yes[25] 	28
scalar tree_4_3_u05_r17_network.node[25].content_store 	decision_no[25] 	8580
scalar tree_4_3_u05_r17_network.node[25].content_store 	decision_ratio[25] 	0.0032527881040892
scalar tree_4_3_u05_r17_network.node[26].core_layer 	interests[26] 	12142
scalar tree_4_3_u05_r17_network.node[26].core_layer 	data[26] 	8605
scalar tree_4_3_u05_r17_network.node[26].content_store 	p_hit[26] 	0.29130291549992
scalar tree_4_3_u05_r17_network.node[26].content_store 	hits[26] 	3537
scalar tree_4_3_u05_r17_network.node[26].content_store 	misses[26] 	8605
scalar tree_4_3_u05_r17_network.node[26].content_store 	decision_yes[26] 	32
scalar tree_4_3_u05_r17_network.node[26].content_store 	decision_no[26] 	8573
scalar tree_4_3_u05_r17_network.node[26].content_store 	decision_ratio[26] 	0.0037187681580476
scalar tree_4_3_u05_r17_network.node[27].core_layer 	interests[27] 	12373
scalar tree_4_3_u05_r17_network.node[27].core_layer 	data[27] 	8729
scalar tree_4_3_u05_r17_network.node[27].content_store 	p_hit[27] 	0.29451224440314
scalar tree_4_3_u05_r17_network.node[27].content_store 	hits[27] 	3644
scalar tree_4_3_u05_r17_network.node[27].content_store 	misses[27] 	8729
scalar tree_4_3_u05_r17_network.node[27].content_store 	decision_yes[27] 	29
scalar tree_4_3_u05_r17_network.node[27].content_store 	decision_no[27] 	8700
scalar tree_4_3_u05_r17_network.node[27].content_store 	decision_ratio[27] 	0.0033222591362126
scalar tree_4_3_u05_r17_network.node[28].core_layer 	interests[28] 	12247
scalar tree_4_3_u05_r17_network.node[28].core_layer 	data[28] 	8645
scalar tree_4_3_u05_r17_network.node[28].content_store 	p_hit[28] 	0.29411284396179
scalar tree_4_3_u05_r17_network.node[28].content_store 	hits[28] 	3602
scalar tree_4_3_u05_r17_network.node[28].content_store 	misses[28] 	8645
scalar tree_4_3_u05_r17_network.node[28].content_store 	decision_yes[28] 	44
scalar tree_4_3_u05_r17_network.node[28].content_store 	decision_no[28] 	8601
scalar tree_4_3_u05_r17_network.node[28].content_store 	decision_ratio[28] 	0.0050896471949104
scalar tree_4_3_u05_r17_network.node[29].core_layer 	interests[29] 	11953
scalar tree_4_3_u05_r17_network.node[29].core_layer 	data[29] 	8457
scalar tree_4_3_u05_r17_network.node[29].content_store 	p_hit[29] 	0.29247887559608
scalar tree_4_3_u05_r17_network.node[29].content_store 	hits[29] 	3496
scalar tree_4_3_u05_r17_network.node[29].content_store 	misses[29] 	8457
scalar tree_4_3_u05_r17_network.node[29].content_store 	decision_yes[29] 	28
scalar tree_4_3_u05_r17_network.node[29].content_store 	decision_no[29] 	8429
scalar tree_4_3_u05_r17_network.node[29].content_store 	decision_ratio[29] 	0.0033108667376138
scalar tree_4_3_u05_r17_network.node[30].core_layer 	interests[30] 	12116
scalar tree_4_3_u05_r17_network.node[30].core_layer 	data[30] 	8627
scalar tree_4_3_u05_r17_network.node[30].content_store 	p_hit[30] 	0.28796632551997
scalar tree_4_3_u05_r17_network.node[30].content_store 	hits[30] 	3489
scalar tree_4_3_u05_r17_network.node[30].content_store 	misses[30] 	8627
scalar tree_4_3_u05_r17_network.node[30].content_store 	decision_yes[30] 	20
scalar tree_4_3_u05_r17_network.node[30].content_store 	decision_no[30] 	8607
scalar tree_4_3_u05_r17_network.node[30].content_store 	decision_ratio[30] 	0.0023183030022024
scalar tree_4_3_u05_r17_network.node[31].core_layer 	interests[31] 	12249
scalar tree_4_3_u05_r17_network.node[31].core_layer 	data[31] 	8682
scalar tree_4_3_u05_r17_network.node[31].content_store 	p_hit[31] 	0.29120744550576
scalar tree_4_3_u05_r17_network.node[31].content_store 	hits[31] 	3567
scalar tree_4_3_u05_r17_network.node[31].content_store 	misses[31] 	8682
scalar tree_4_3_u05_r17_network.node[31].content_store 	decision_yes[31] 	14
scalar tree_4_3_u05_r17_network.node[31].content_store 	decision_no[31] 	8668
scalar tree_4_3_u05_r17_network.node[31].content_store 	decision_ratio[31] 	0.0016125316747293
scalar tree_4_3_u05_r17_network.node[32].core_layer 	interests[32] 	12528
scalar tree_4_3_u05_r17_network.node[32].core_layer 	data[32] 	8679
scalar tree_4_3_u05_r17_network.node[32].content_store 	p_hit[32] 	0.30723180076628
scalar tree_4_3_u05_r17_network.node[32].content_store 	hits[32] 	3849
scalar tree_4_3_u05_r17_network.node[32].content_store 	misses[32] 	8679
scalar tree_4_3_u05_r17_network.node[32].content_store 	decision_yes[32] 	46
scalar tree_4_3_u05_r17_network.node[32].content_store 	decision_no[32] 	8633
scalar tree_4_3_u05_r17_network.node[32].content_store 	decision_ratio[32] 	0.0053001497868418
scalar tree_4_3_u05_r17_network.node[33].core_layer 	interests[33] 	12355
scalar tree_4_3_u05_r17_network.node[33].core_layer 	data[33] 	8688
scalar tree_4_3_u05_r17_network.node[33].content_store 	p_hit[33] 	0.29680291380008
scalar tree_4_3_u05_r17_network.node[33].content_store 	hits[33] 	3667
scalar tree_4_3_u05_r17_network.node[33].content_store 	misses[33] 	8688
scalar tree_4_3_u05_r17_network.node[33].content_store 	decision_yes[33] 	41
scalar tree_4_3_u05_r17_network.node[33].content_store 	decision_no[33] 	8647
scalar tree_4_3_u05_r17_network.node[33].content_store 	decision_ratio[33] 	0.004719152854512
scalar tree_4_3_u05_r17_network.node[34].core_layer 	interests[34] 	12292
scalar tree_4_3_u05_r17_network.node[34].core_layer 	data[34] 	8703
scalar tree_4_3_u05_r17_network.node[34].content_store 	p_hit[34] 	0.29197852261634
scalar tree_4_3_u05_r17_network.node[34].content_store 	hits[34] 	3589
scalar tree_4_3_u05_r17_network.node[34].content_store 	misses[34] 	8703
scalar tree_4_3_u05_r17_network.node[34].content_store 	decision_yes[34] 	35
scalar tree_4_3_u05_r17_network.node[34].content_store 	decision_no[34] 	8668
scalar tree_4_3_u05_r17_network.node[34].content_store 	decision_ratio[34] 	0.0040216017465242
scalar tree_4_3_u05_r17_network.node[35].core_layer 	interests[35] 	12262
scalar tree_4_3_u05_r17_network.node[35].core_layer 	data[35] 	8661
scalar tree_4_3_u05_r17_network.node[35].content_store 	p_hit[35] 	0.29367150546404
scalar tree_4_3_u05_r17_network.node[35].content_store 	hits[35] 	3601
scalar tree_4_3_u05_r17_network.node[35].content_store 	misses[35] 	8661
scalar tree_4_3_u05_r17_network.node[35].content_store 	decision_yes[35] 	27
scalar tree_4_3_u05_r17_network.node[35].content_store 	decision_no[35] 	8634
scalar tree_4_3_u05_r17_network.node[35].content_store 	decision_ratio[35] 	0.0031174229303776
scalar tree_4_3_u05_r17_network.node[36].core_layer 	interests[36] 	12255
scalar tree_4_3_u05_r17_network.node[36].core_layer 	data[36] 	8632
scalar tree_4_3_u05_r17_network.node[36].content_store 	p_hit[36] 	0.29563443492452
scalar tree_4_3_u05_r17_network.node[36].content_store 	hits[36] 	3623
scalar tree_4_3_u05_r17_network.node[36].content_store 	misses[36] 	8632
scalar tree_4_3_u05_r17_network.node[36].content_store 	decision_yes[36] 	33
scalar tree_4_3_u05_r17_network.node[36].content_store 	decision_no[36] 	8599
scalar tree_4_3_u05_r17_network.node[36].content_store 	decision_ratio[36] 	0.003822984244671
scalar tree_4_3_u05_r17_network.node[37].core_layer 	interests[37] 	12377
scalar tree_4_3_u05_r17_network.node[37].core_layer 	data[37] 	8745
scalar tree_4_3_u05_r17_network.node[37].content_store 	p_hit[37] 	0.29344752363254
scalar tree_4_3_u05_r17_network.node[37].content_store 	hits[37] 	3632
scalar tree_4_3_u05_r17_network.node[37].content_store 	misses[37] 	8745
scalar tree_4_3_u05_r17_network.node[37].content_store 	decision_yes[37] 	39
scalar tree_4_3_u05_r17_network.node[37].content_store 	decision_no[37] 	8706
scalar tree_4_3_u05_r17_network.node[37].content_store 	decision_ratio[37] 	0.0044596912521441
scalar tree_4_3_u05_r17_network.node[38].core_layer 	interests[38] 	12458
scalar tree_4_3_u05_r17_network.node[38].core_layer 	data[38] 	8708
scalar tree_4_3_u05_r17_network.node[38].content_store 	p_hit[38] 	0.30093112859207
scalar tree_4_3_u05_r17_network.node[38].content_store 	hits[38] 	3749
scalar tree_4_3_u05_r17_network.node[38].content_store 	misses[38] 	8709
scalar tree_4_3_u05_r17_network.node[38].content_store 	decision_yes[38] 	41
scalar tree_4_3_u05_r17_network.node[38].content_store 	decision_no[38] 	8667
scalar tree_4_3_u05_r17_network.node[38].content_store 	decision_ratio[38] 	0.0047083141938447
scalar tree_4_3_u05_r17_network.node[39].core_layer 	interests[39] 	12001
scalar tree_4_3_u05_r17_network.node[39].core_layer 	data[39] 	8457
scalar tree_4_3_u05_r17_network.node[39].content_store 	p_hit[39] 	0.29530872427298
scalar tree_4_3_u05_r17_network.node[39].content_store 	hits[39] 	3544
scalar tree_4_3_u05_r17_network.node[39].content_store 	misses[39] 	8457
scalar tree_4_3_u05_r17_network.node[39].content_store 	decision_yes[39] 	30
scalar tree_4_3_u05_r17_network.node[39].content_store 	decision_no[39] 	8427
scalar tree_4_3_u05_r17_network.node[39].content_store 	decision_ratio[39] 	0.0035473572188719
scalar tree_4_3_u05_r17_network.client[13] 	hdistance[13] 	2.6310899045706
scalar tree_4_3_u05_r17_network.client[13] 	downloads[13] 	11946
scalar tree_4_3_u05_r17_network.client[13] 	avg_time[13] 	0.004072657289
scalar tree_4_3_u05_r17_network.client[14] 	hdistance[14] 	2.6246339218475
scalar tree_4_3_u05_r17_network.client[14] 	downloads[14] 	11951
scalar tree_4_3_u05_r17_network.client[14] 	avg_time[14] 	0.004057230708
scalar tree_4_3_u05_r17_network.client[15] 	hdistance[15] 	2.6606243705942
scalar tree_4_3_u05_r17_network.client[15] 	downloads[15] 	11916
scalar tree_4_3_u05_r17_network.client[15] 	avg_time[15] 	0.004115304195
scalar tree_4_3_u05_r17_network.client[16] 	hdistance[16] 	2.5839355428192
scalar tree_4_3_u05_r17_network.client[16] 	downloads[16] 	12039
scalar tree_4_3_u05_r17_network.client[16] 	avg_time[16] 	0.003986908323
scalar tree_4_3_u05_r17_network.client[17] 	hdistance[17] 	2.5952954866595
scalar tree_4_3_u05_r17_network.client[17] 	downloads[17] 	12031
scalar tree_4_3_u05_r17_network.client[17] 	avg_time[17] 	0.004016288248
scalar tree_4_3_u05_r17_network.client[18] 	hdistance[18] 	2.6293031066331
scalar tree_4_3_u05_r17_network.client[18] 	downloads[18] 	11910
scalar tree_4_3_u05_r17_network.client[18] 	avg_time[18] 	0.004068007075
scalar tree_4_3_u05_r17_network.client[19] 	hdistance[19] 	2.5852948515346
scalar tree_4_3_u05_r17_network.client[19] 	downloads[19] 	12023
scalar tree_4_3_u05_r17_network.client[19] 	avg_time[19] 	0.004005819161
scalar tree_4_3_u05_r17_network.client[20] 	hdistance[20] 	2.5749958242859
scalar tree_4_3_u05_r17_network.client[20] 	downloads[20] 	11974
scalar tree_4_3_u05_r17_network.client[20] 	avg_time[20] 	0.00398279305
scalar tree_4_3_u05_r17_network.client[21] 	hdistance[21] 	2.6144448138298
scalar tree_4_3_u05_r17_network.client[21] 	downloads[21] 	12032
scalar tree_4_3_u05_r17_network.client[21] 	avg_time[21] 	0.004057510287
scalar tree_4_3_u05_r17_network.client[22] 	hdistance[22] 	2.6559202813599
scalar tree_4_3_u05_r17_network.client[22] 	downloads[22] 	11942
scalar tree_4_3_u05_r17_network.client[22] 	avg_time[22] 	0.004075863686
scalar tree_4_3_u05_r17_network.client[23] 	hdistance[23] 	2.6409276036905
scalar tree_4_3_u05_r17_network.client[23] 	downloads[23] 	12031
scalar tree_4_3_u05_r17_network.client[23] 	avg_time[23] 	0.004044714818
scalar tree_4_3_u05_r17_network.client[24] 	hdistance[24] 	2.6681636726547
scalar tree_4_3_u05_r17_network.client[24] 	downloads[24] 	12024
scalar tree_4_3_u05_r17_network.client[24] 	avg_time[24] 	0.004098633067
scalar tree_4_3_u05_r17_network.client[25] 	hdistance[25] 	2.6803299385574
scalar tree_4_3_u05_r17_network.client[25] 	downloads[25] 	11881
scalar tree_4_3_u05_r17_network.client[25] 	avg_time[25] 	0.004117368925
scalar tree_4_3_u05_r17_network.client[26] 	hdistance[26] 	2.667700821734
scalar tree_4_3_u05_r17_network.client[26] 	downloads[26] 	11926
scalar tree_4_3_u05_r17_network.client[26] 	avg_time[26] 	0.004102462262
scalar tree_4_3_u05_r17_network.client[27] 	hdistance[27] 	2.6479161549169
scalar tree_4_3_u05_r17_network.client[27] 	downloads[27] 	12213
scalar tree_4_3_u05_r17_network.client[27] 	avg_time[27] 	0.004067629783
scalar tree_4_3_u05_r17_network.client[28] 	hdistance[28] 	2.672024363421
scalar tree_4_3_u05_r17_network.client[28] 	downloads[28] 	11821
scalar tree_4_3_u05_r17_network.client[28] 	avg_time[28] 	0.004092882621
scalar tree_4_3_u05_r17_network.client[29] 	hdistance[29] 	2.6508905852417
scalar tree_4_3_u05_r17_network.client[29] 	downloads[29] 	11790
scalar tree_4_3_u05_r17_network.client[29] 	avg_time[29] 	0.004077350726
scalar tree_4_3_u05_r17_network.client[30] 	hdistance[30] 	2.6879082230782
scalar tree_4_3_u05_r17_network.client[30] 	downloads[30] 	11942
scalar tree_4_3_u05_r17_network.client[30] 	avg_time[30] 	0.004126441504
scalar tree_4_3_u05_r17_network.client[31] 	hdistance[31] 	2.6361076604555
scalar tree_4_3_u05_r17_network.client[31] 	downloads[31] 	12075
scalar tree_4_3_u05_r17_network.client[31] 	avg_time[31] 	0.004082812745
scalar tree_4_3_u05_r17_network.client[32] 	hdistance[32] 	2.5908403361344
scalar tree_4_3_u05_r17_network.client[32] 	downloads[32] 	11900
scalar tree_4_3_u05_r17_network.client[32] 	avg_time[32] 	0.004006047468
scalar tree_4_3_u05_r17_network.client[33] 	hdistance[33] 	2.5743260161923
scalar tree_4_3_u05_r17_network.client[33] 	downloads[33] 	11981
scalar tree_4_3_u05_r17_network.client[33] 	avg_time[33] 	0.003981968485
scalar tree_4_3_u05_r17_network.client[34] 	hdistance[34] 	2.6453483555629
scalar tree_4_3_u05_r17_network.client[34] 	downloads[34] 	12071
scalar tree_4_3_u05_r17_network.client[34] 	avg_time[34] 	0.004082508786
scalar tree_4_3_u05_r17_network.client[35] 	hdistance[35] 	2.6369664318276
scalar tree_4_3_u05_r17_network.client[35] 	downloads[35] 	12065
scalar tree_4_3_u05_r17_network.client[35] 	avg_time[35] 	0.004075090217
scalar tree_4_3_u05_r17_network.client[36] 	hdistance[36] 	2.6305234251477
scalar tree_4_3_u05_r17_network.client[36] 	downloads[36] 	12017
scalar tree_4_3_u05_r17_network.client[36] 	avg_time[36] 	0.00406290785
scalar tree_4_3_u05_r17_network.client[37] 	hdistance[37] 	2.6009495252374
scalar tree_4_3_u05_r17_network.client[37] 	downloads[37] 	12006
scalar tree_4_3_u05_r17_network.client[37] 	avg_time[37] 	0.004018654376
scalar tree_4_3_u05_r17_network.client[38] 	hdistance[38] 	2.6253023100659
scalar tree_4_3_u05_r17_network.client[38] 	downloads[38] 	11991
scalar tree_4_3_u05_r17_network.client[38] 	avg_time[38] 	0.00404553113
scalar tree_4_3_u05_r17_network.client[39] 	hdistance[39] 	2.6279128459662
scalar tree_4_3_u05_r17_network.client[39] 	downloads[39] 	11887
scalar tree_4_3_u05_r17_network.client[39] 	avg_time[39] 	0.004060567406
