version 2
run General-113-20160819-08:41:10-13837
attr a 0.9
attr cd fix0.1
attr configname General
attr cr lru
attr datetime 20160819-08:41:10
attr experiment General
attr fsize 1
attr inifile hw5115/scenario_A/NRR-FIX0.1.ini
attr iterationvars "$name=tree_4_3, $un=05, $rep=14, $cd=fix0.1, $cr=lru, $fsize=1, $a=0.9, $sl=nrr, $ttl=1000, $variance=0.05"
attr iterationvars2 "$name=tree_4_3, $un=05, $rep=14, $cd=fix0.1, $cr=lru, $fsize=1, $a=0.9, $sl=nrr, $ttl=1000, $variance=0.05, $repetition=0"
attr measurement "$name=tree_4_3, $un=05, $rep=14, $cd=fix0.1, $cr=lru, $fsize=1, $a=0.9, $sl=nrr, $ttl=1000, $variance=0.05"
attr name tree_4_3
attr network networks.${name}_u${un}_r${rep}_network
attr processid 13837
attr rep 14
attr repetition 0
attr replication #0
attr resultdir results
attr runnumber 113
attr seedset 14
attr sl nrr
attr ttl 1000
attr un 05
attr variance 0.05

scalar . 	a 	0.9
scalar . 	fsize 	1
scalar . 	rep 	14
scalar . 	ttl 	1000
scalar . 	un 	05
scalar . 	variance 	0.05
scalar tree_4_3_u05_r14_network.content_distribution 	repo-0 	0
scalar tree_4_3_u05_r14_network.content_distribution 	client-0 	13
scalar tree_4_3_u05_r14_network.content_distribution 	client-1 	14
scalar tree_4_3_u05_r14_network.content_distribution 	client-2 	15
scalar tree_4_3_u05_r14_network.content_distribution 	client-3 	16
scalar tree_4_3_u05_r14_network.content_distribution 	client-4 	17
scalar tree_4_3_u05_r14_network.content_distribution 	client-5 	18
scalar tree_4_3_u05_r14_network.content_distribution 	client-6 	19
scalar tree_4_3_u05_r14_network.content_distribution 	client-7 	20
scalar tree_4_3_u05_r14_network.content_distribution 	client-8 	21
scalar tree_4_3_u05_r14_network.content_distribution 	client-9 	22
scalar tree_4_3_u05_r14_network.content_distribution 	client-10 	23
scalar tree_4_3_u05_r14_network.content_distribution 	client-11 	24
scalar tree_4_3_u05_r14_network.content_distribution 	client-12 	25
scalar tree_4_3_u05_r14_network.content_distribution 	client-13 	26
scalar tree_4_3_u05_r14_network.content_distribution 	client-14 	27
scalar tree_4_3_u05_r14_network.content_distribution 	client-15 	28
scalar tree_4_3_u05_r14_network.content_distribution 	client-16 	29
scalar tree_4_3_u05_r14_network.content_distribution 	client-17 	30
scalar tree_4_3_u05_r14_network.content_distribution 	client-18 	31
scalar tree_4_3_u05_r14_network.content_distribution 	client-19 	32
scalar tree_4_3_u05_r14_network.content_distribution 	client-20 	33
scalar tree_4_3_u05_r14_network.content_distribution 	client-21 	34
scalar tree_4_3_u05_r14_network.content_distribution 	client-22 	35
scalar tree_4_3_u05_r14_network.content_distribution 	client-23 	36
scalar tree_4_3_u05_r14_network.content_distribution 	client-24 	37
scalar tree_4_3_u05_r14_network.content_distribution 	client-25 	38
scalar tree_4_3_u05_r14_network.content_distribution 	client-26 	39
scalar tree_4_3_u05_r14_network.content_distribution 	repo-0_card 	100000
scalar tree_4_3_u05_r14_network.content_distribution 	repo-0_price 	0
scalar tree_4_3_u05_r14_network.statistics 	stabilization_time 	852.9
scalar tree_4_3_u05_r14_network.statistics 	p_hit 	0.21586346717432
scalar tree_4_3_u05_r14_network.statistics 	interests 	26346.575
scalar tree_4_3_u05_r14_network.statistics 	data 	18231.8
scalar tree_4_3_u05_r14_network.statistics 	hdistance 	2.8479219521077
scalar tree_4_3_u05_r14_network.statistics 	avg_time 	0.004493433779
scalar tree_4_3_u05_r14_network.statistics 	downloads 	324587
scalar tree_4_3_u05_r14_network.statistics 	total_cost 	0
scalar tree_4_3_u05_r14_network.statistics 	total_replicas 	100000
scalar tree_4_3_u05_r14_network.statistics 	inner_hit 	0.39894388869548
scalar tree_4_3_u05_r14_network.node[0].core_layer 	interests[0] 	196360
scalar tree_4_3_u05_r14_network.node[0].core_layer 	repo_load[0] 	195095
scalar tree_4_3_u05_r14_network.node[0].core_layer 	data[0] 	0
scalar tree_4_3_u05_r14_network.node[0].core_layer 	repo_int[0] 	195095
scalar tree_4_3_u05_r14_network.node[0].content_store 	p_hit[0] 	0.0064422489305358
scalar tree_4_3_u05_r14_network.node[0].content_store 	hits[0] 	1265
scalar tree_4_3_u05_r14_network.node[0].content_store 	misses[0] 	195095
scalar tree_4_3_u05_r14_network.node[0].content_store 	decision_yes[0] 	19634
scalar tree_4_3_u05_r14_network.node[0].content_store 	decision_no[0] 	175461
scalar tree_4_3_u05_r14_network.node[0].content_store 	decision_ratio[0] 	0.10063815064456
scalar tree_4_3_u05_r14_network.node[1].core_layer 	interests[1] 	110408
scalar tree_4_3_u05_r14_network.node[1].core_layer 	data[1] 	109336
scalar tree_4_3_u05_r14_network.node[1].content_store 	p_hit[1] 	0.0096732120860807
scalar tree_4_3_u05_r14_network.node[1].content_store 	hits[1] 	1068
scalar tree_4_3_u05_r14_network.node[1].content_store 	misses[1] 	109340
scalar tree_4_3_u05_r14_network.node[1].content_store 	decision_yes[1] 	10973
scalar tree_4_3_u05_r14_network.node[1].content_store 	decision_no[1] 	98362
scalar tree_4_3_u05_r14_network.node[1].content_store 	decision_ratio[1] 	0.10036127498056
scalar tree_4_3_u05_r14_network.node[2].core_layer 	interests[2] 	35896
scalar tree_4_3_u05_r14_network.node[2].core_layer 	data[2] 	34273
scalar tree_4_3_u05_r14_network.node[2].content_store 	p_hit[2] 	0.045213951415199
scalar tree_4_3_u05_r14_network.node[2].content_store 	hits[2] 	1623
scalar tree_4_3_u05_r14_network.node[2].content_store 	misses[2] 	34273
scalar tree_4_3_u05_r14_network.node[2].content_store 	decision_yes[2] 	3521
scalar tree_4_3_u05_r14_network.node[2].content_store 	decision_no[2] 	30752
scalar tree_4_3_u05_r14_network.node[2].content_store 	decision_ratio[2] 	0.10273393049923
scalar tree_4_3_u05_r14_network.node[3].core_layer 	interests[3] 	73666
scalar tree_4_3_u05_r14_network.node[3].core_layer 	data[3] 	72828
scalar tree_4_3_u05_r14_network.node[3].content_store 	p_hit[3] 	0.011375668558086
scalar tree_4_3_u05_r14_network.node[3].content_store 	hits[3] 	838
scalar tree_4_3_u05_r14_network.node[3].content_store 	misses[3] 	72828
scalar tree_4_3_u05_r14_network.node[3].content_store 	decision_yes[3] 	7289
scalar tree_4_3_u05_r14_network.node[3].content_store 	decision_no[3] 	65539
scalar tree_4_3_u05_r14_network.node[3].content_store 	decision_ratio[3] 	0.10008513209205
scalar tree_4_3_u05_r14_network.node[4].core_layer 	interests[4] 	47561
scalar tree_4_3_u05_r14_network.node[4].core_layer 	data[4] 	45442
scalar tree_4_3_u05_r14_network.node[4].content_store 	p_hit[4] 	0.044532284855239
scalar tree_4_3_u05_r14_network.node[4].content_store 	hits[4] 	2118
scalar tree_4_3_u05_r14_network.node[4].content_store 	misses[4] 	45443
scalar tree_4_3_u05_r14_network.node[4].content_store 	decision_yes[4] 	4557
scalar tree_4_3_u05_r14_network.node[4].content_store 	decision_no[4] 	40885
scalar tree_4_3_u05_r14_network.node[4].content_store 	decision_ratio[4] 	0.10028167774306
scalar tree_4_3_u05_r14_network.node[5].core_layer 	interests[5] 	25203
scalar tree_4_3_u05_r14_network.node[5].core_layer 	data[5] 	21618
scalar tree_4_3_u05_r14_network.node[5].content_store 	p_hit[5] 	0.14216561520454
scalar tree_4_3_u05_r14_network.node[5].content_store 	hits[5] 	3583
scalar tree_4_3_u05_r14_network.node[5].content_store 	misses[5] 	21620
scalar tree_4_3_u05_r14_network.node[5].content_store 	decision_yes[5] 	2207
scalar tree_4_3_u05_r14_network.node[5].content_store 	decision_no[5] 	19411
scalar tree_4_3_u05_r14_network.node[5].content_store 	decision_ratio[5] 	0.10209085021741
scalar tree_4_3_u05_r14_network.node[6].core_layer 	interests[6] 	21240
scalar tree_4_3_u05_r14_network.node[6].core_layer 	data[6] 	19318
scalar tree_4_3_u05_r14_network.node[6].content_store 	p_hit[6] 	0.090489642184557
scalar tree_4_3_u05_r14_network.node[6].content_store 	hits[6] 	1922
scalar tree_4_3_u05_r14_network.node[6].content_store 	misses[6] 	19318
scalar tree_4_3_u05_r14_network.node[6].content_store 	decision_yes[6] 	1969
scalar tree_4_3_u05_r14_network.node[6].content_store 	decision_no[6] 	17349
scalar tree_4_3_u05_r14_network.node[6].content_store 	decision_ratio[6] 	0.10192566518273
scalar tree_4_3_u05_r14_network.node[7].core_layer 	interests[7] 	49857
scalar tree_4_3_u05_r14_network.node[7].core_layer 	data[7] 	47286
scalar tree_4_3_u05_r14_network.node[7].content_store 	p_hit[7] 	0.051547425637323
scalar tree_4_3_u05_r14_network.node[7].content_store 	hits[7] 	2570
scalar tree_4_3_u05_r14_network.node[7].content_store 	misses[7] 	47287
scalar tree_4_3_u05_r14_network.node[7].content_store 	decision_yes[7] 	4690
scalar tree_4_3_u05_r14_network.node[7].content_store 	decision_no[7] 	42596
scalar tree_4_3_u05_r14_network.node[7].content_store 	decision_ratio[7] 	0.099183690732987
scalar tree_4_3_u05_r14_network.node[8].core_layer 	interests[8] 	31103
scalar tree_4_3_u05_r14_network.node[8].core_layer 	data[8] 	28494
scalar tree_4_3_u05_r14_network.node[8].content_store 	p_hit[8] 	0.08385043243417
scalar tree_4_3_u05_r14_network.node[8].content_store 	hits[8] 	2608
scalar tree_4_3_u05_r14_network.node[8].content_store 	misses[8] 	28495
scalar tree_4_3_u05_r14_network.node[8].content_store 	decision_yes[8] 	2803
scalar tree_4_3_u05_r14_network.node[8].content_store 	decision_no[8] 	25691
scalar tree_4_3_u05_r14_network.node[8].content_store 	decision_ratio[8] 	0.098371587000772
scalar tree_4_3_u05_r14_network.node[9].core_layer 	interests[9] 	12439
scalar tree_4_3_u05_r14_network.node[9].core_layer 	data[9] 	10011
scalar tree_4_3_u05_r14_network.node[9].content_store 	p_hit[9] 	0.19519253959321
scalar tree_4_3_u05_r14_network.node[9].content_store 	hits[9] 	2428
scalar tree_4_3_u05_r14_network.node[9].content_store 	misses[9] 	10011
scalar tree_4_3_u05_r14_network.node[9].content_store 	decision_yes[9] 	998
scalar tree_4_3_u05_r14_network.node[9].content_store 	decision_no[9] 	9013
scalar tree_4_3_u05_r14_network.node[9].content_store 	decision_ratio[9] 	0.099690340625312
scalar tree_4_3_u05_r14_network.node[10].core_layer 	interests[10] 	38154
scalar tree_4_3_u05_r14_network.node[10].core_layer 	data[10] 	36581
scalar tree_4_3_u05_r14_network.node[10].content_store 	p_hit[10] 	0.04120144676836
scalar tree_4_3_u05_r14_network.node[10].content_store 	hits[10] 	1572
scalar tree_4_3_u05_r14_network.node[10].content_store 	misses[10] 	36582
scalar tree_4_3_u05_r14_network.node[10].content_store 	decision_yes[10] 	3610
scalar tree_4_3_u05_r14_network.node[10].content_store 	decision_no[10] 	32971
scalar tree_4_3_u05_r14_network.node[10].content_store 	decision_ratio[10] 	0.098685109756431
scalar tree_4_3_u05_r14_network.node[11].core_layer 	interests[11] 	20608
scalar tree_4_3_u05_r14_network.node[11].core_layer 	data[11] 	18334
scalar tree_4_3_u05_r14_network.node[11].content_store 	p_hit[11] 	0.11034549689441
scalar tree_4_3_u05_r14_network.node[11].content_store 	hits[11] 	2274
scalar tree_4_3_u05_r14_network.node[11].content_store 	misses[11] 	18334
scalar tree_4_3_u05_r14_network.node[11].content_store 	decision_yes[11] 	1812
scalar tree_4_3_u05_r14_network.node[11].content_store 	decision_no[11] 	16522
scalar tree_4_3_u05_r14_network.node[11].content_store 	decision_ratio[11] 	0.098832769717465
scalar tree_4_3_u05_r14_network.node[12].core_layer 	interests[12] 	30792
scalar tree_4_3_u05_r14_network.node[12].core_layer 	data[12] 	28868
scalar tree_4_3_u05_r14_network.node[12].content_store 	p_hit[12] 	0.062516237983892
scalar tree_4_3_u05_r14_network.node[12].content_store 	hits[12] 	1925
scalar tree_4_3_u05_r14_network.node[12].content_store 	misses[12] 	28867
scalar tree_4_3_u05_r14_network.node[12].content_store 	decision_yes[12] 	2855
scalar tree_4_3_u05_r14_network.node[12].content_store 	decision_no[12] 	26013
scalar tree_4_3_u05_r14_network.node[12].content_store 	decision_ratio[12] 	0.098898434252459
scalar tree_4_3_u05_r14_network.node[13].core_layer 	interests[13] 	13216
scalar tree_4_3_u05_r14_network.node[13].core_layer 	data[13] 	9562
scalar tree_4_3_u05_r14_network.node[13].content_store 	p_hit[13] 	0.27648305084746
scalar tree_4_3_u05_r14_network.node[13].content_store 	hits[13] 	3654
scalar tree_4_3_u05_r14_network.node[13].content_store 	misses[13] 	9562
scalar tree_4_3_u05_r14_network.node[13].content_store 	decision_yes[13] 	1010
scalar tree_4_3_u05_r14_network.node[13].content_store 	decision_no[13] 	8552
scalar tree_4_3_u05_r14_network.node[13].content_store 	decision_ratio[13] 	0.10562643798369
scalar tree_4_3_u05_r14_network.node[14].core_layer 	interests[14] 	13921
scalar tree_4_3_u05_r14_network.node[14].core_layer 	data[14] 	9378
scalar tree_4_3_u05_r14_network.node[14].content_store 	p_hit[14] 	0.32641333237555
scalar tree_4_3_u05_r14_network.node[14].content_store 	hits[14] 	4544
scalar tree_4_3_u05_r14_network.node[14].content_store 	misses[14] 	9377
scalar tree_4_3_u05_r14_network.node[14].content_store 	decision_yes[14] 	906
scalar tree_4_3_u05_r14_network.node[14].content_store 	decision_no[14] 	8472
scalar tree_4_3_u05_r14_network.node[14].content_store 	decision_ratio[14] 	0.09660908509277
scalar tree_4_3_u05_r14_network.node[15].core_layer 	interests[15] 	13224
scalar tree_4_3_u05_r14_network.node[15].core_layer 	data[15] 	9658
scalar tree_4_3_u05_r14_network.node[15].content_store 	p_hit[15] 	0.26966122202057
scalar tree_4_3_u05_r14_network.node[15].content_store 	hits[15] 	3566
scalar tree_4_3_u05_r14_network.node[15].content_store 	misses[15] 	9658
scalar tree_4_3_u05_r14_network.node[15].content_store 	decision_yes[15] 	994
scalar tree_4_3_u05_r14_network.node[15].content_store 	decision_no[15] 	8664
scalar tree_4_3_u05_r14_network.node[15].content_store 	decision_ratio[15] 	0.1029198591841
scalar tree_4_3_u05_r14_network.node[16].core_layer 	interests[16] 	14198
scalar tree_4_3_u05_r14_network.node[16].core_layer 	data[16] 	9623
scalar tree_4_3_u05_r14_network.node[16].content_store 	p_hit[16] 	0.32222848288491
scalar tree_4_3_u05_r14_network.node[16].content_store 	hits[16] 	4575
scalar tree_4_3_u05_r14_network.node[16].content_store 	misses[16] 	9623
scalar tree_4_3_u05_r14_network.node[16].content_store 	decision_yes[16] 	954
scalar tree_4_3_u05_r14_network.node[16].content_store 	decision_no[16] 	8669
scalar tree_4_3_u05_r14_network.node[16].content_store 	decision_ratio[16] 	0.099137483113374
scalar tree_4_3_u05_r14_network.node[17].core_layer 	interests[17] 	13422
scalar tree_4_3_u05_r14_network.node[17].core_layer 	data[17] 	9725
scalar tree_4_3_u05_r14_network.node[17].content_store 	p_hit[17] 	0.27544330204142
scalar tree_4_3_u05_r14_network.node[17].content_store 	hits[17] 	3697
scalar tree_4_3_u05_r14_network.node[17].content_store 	misses[17] 	9725
scalar tree_4_3_u05_r14_network.node[17].content_store 	decision_yes[17] 	969
scalar tree_4_3_u05_r14_network.node[17].content_store 	decision_no[17] 	8756
scalar tree_4_3_u05_r14_network.node[17].content_store 	decision_ratio[17] 	0.099640102827763
scalar tree_4_3_u05_r14_network.node[18].core_layer 	interests[18] 	13335
scalar tree_4_3_u05_r14_network.node[18].core_layer 	data[18] 	9560
scalar tree_4_3_u05_r14_network.node[18].content_store 	p_hit[18] 	0.28308961379828
scalar tree_4_3_u05_r14_network.node[18].content_store 	hits[18] 	3775
scalar tree_4_3_u05_r14_network.node[18].content_store 	misses[18] 	9560
scalar tree_4_3_u05_r14_network.node[18].content_store 	decision_yes[18] 	944
scalar tree_4_3_u05_r14_network.node[18].content_store 	decision_no[18] 	8616
scalar tree_4_3_u05_r14_network.node[18].content_store 	decision_ratio[18] 	0.098744769874477
scalar tree_4_3_u05_r14_network.node[19].core_layer 	interests[19] 	14062
scalar tree_4_3_u05_r14_network.node[19].core_layer 	data[19] 	9618
scalar tree_4_3_u05_r14_network.node[19].content_store 	p_hit[19] 	0.31595790072536
scalar tree_4_3_u05_r14_network.node[19].content_store 	hits[19] 	4443
scalar tree_4_3_u05_r14_network.node[19].content_store 	misses[19] 	9619
scalar tree_4_3_u05_r14_network.node[19].content_store 	decision_yes[19] 	950
scalar tree_4_3_u05_r14_network.node[19].content_store 	decision_no[19] 	8668
scalar tree_4_3_u05_r14_network.node[19].content_store 	decision_ratio[19] 	0.098773133707632
scalar tree_4_3_u05_r14_network.node[20].core_layer 	interests[20] 	12780
scalar tree_4_3_u05_r14_network.node[20].core_layer 	data[20] 	9489
scalar tree_4_3_u05_r14_network.node[20].content_store 	p_hit[20] 	0.2575117370892
scalar tree_4_3_u05_r14_network.node[20].content_store 	hits[20] 	3291
scalar tree_4_3_u05_r14_network.node[20].content_store 	misses[20] 	9489
scalar tree_4_3_u05_r14_network.node[20].content_store 	decision_yes[20] 	909
scalar tree_4_3_u05_r14_network.node[20].content_store 	decision_no[20] 	8580
scalar tree_4_3_u05_r14_network.node[20].content_store 	decision_ratio[20] 	0.095795131204553
scalar tree_4_3_u05_r14_network.node[21].core_layer 	interests[21] 	12783
scalar tree_4_3_u05_r14_network.node[21].core_layer 	data[21] 	9425
scalar tree_4_3_u05_r14_network.node[21].content_store 	p_hit[21] 	0.26269263866072
scalar tree_4_3_u05_r14_network.node[21].content_store 	hits[21] 	3358
scalar tree_4_3_u05_r14_network.node[21].content_store 	misses[21] 	9425
scalar tree_4_3_u05_r14_network.node[21].content_store 	decision_yes[21] 	917
scalar tree_4_3_u05_r14_network.node[21].content_store 	decision_no[21] 	8508
scalar tree_4_3_u05_r14_network.node[21].content_store 	decision_ratio[21] 	0.097294429708223
scalar tree_4_3_u05_r14_network.node[22].core_layer 	interests[22] 	13425
scalar tree_4_3_u05_r14_network.node[22].core_layer 	data[22] 	9590
scalar tree_4_3_u05_r14_network.node[22].content_store 	p_hit[22] 	0.28551210428305
scalar tree_4_3_u05_r14_network.node[22].content_store 	hits[22] 	3833
scalar tree_4_3_u05_r14_network.node[22].content_store 	misses[22] 	9592
scalar tree_4_3_u05_r14_network.node[22].content_store 	decision_yes[22] 	974
scalar tree_4_3_u05_r14_network.node[22].content_store 	decision_no[22] 	8616
scalar tree_4_3_u05_r14_network.node[22].content_store 	decision_ratio[22] 	0.10156412930136
scalar tree_4_3_u05_r14_network.node[23].core_layer 	interests[23] 	14272
scalar tree_4_3_u05_r14_network.node[23].core_layer 	data[23] 	9573
scalar tree_4_3_u05_r14_network.node[23].content_store 	p_hit[23] 	0.32917600896861
scalar tree_4_3_u05_r14_network.node[23].content_store 	hits[23] 	4698
scalar tree_4_3_u05_r14_network.node[23].content_store 	misses[23] 	9574
scalar tree_4_3_u05_r14_network.node[23].content_store 	decision_yes[23] 	997
scalar tree_4_3_u05_r14_network.node[23].content_store 	decision_no[23] 	8576
scalar tree_4_3_u05_r14_network.node[23].content_store 	decision_ratio[23] 	0.1041470803301
scalar tree_4_3_u05_r14_network.node[24].core_layer 	interests[24] 	13472
scalar tree_4_3_u05_r14_network.node[24].core_layer 	data[24] 	9538
scalar tree_4_3_u05_r14_network.node[24].content_store 	p_hit[24] 	0.29201306413302
scalar tree_4_3_u05_r14_network.node[24].content_store 	hits[24] 	3934
scalar tree_4_3_u05_r14_network.node[24].content_store 	misses[24] 	9538
scalar tree_4_3_u05_r14_network.node[24].content_store 	decision_yes[24] 	946
scalar tree_4_3_u05_r14_network.node[24].content_store 	decision_no[24] 	8592
scalar tree_4_3_u05_r14_network.node[24].content_store 	decision_ratio[24] 	0.099182218494443
scalar tree_4_3_u05_r14_network.node[25].core_layer 	interests[25] 	14358
scalar tree_4_3_u05_r14_network.node[25].core_layer 	data[25] 	9594
scalar tree_4_3_u05_r14_network.node[25].content_store 	p_hit[25] 	0.3318010865023
scalar tree_4_3_u05_r14_network.node[25].content_store 	hits[25] 	4764
scalar tree_4_3_u05_r14_network.node[25].content_store 	misses[25] 	9594
scalar tree_4_3_u05_r14_network.node[25].content_store 	decision_yes[25] 	995
scalar tree_4_3_u05_r14_network.node[25].content_store 	decision_no[25] 	8599
scalar tree_4_3_u05_r14_network.node[25].content_store 	decision_ratio[25] 	0.10371065249114
scalar tree_4_3_u05_r14_network.node[26].core_layer 	interests[26] 	12945
scalar tree_4_3_u05_r14_network.node[26].core_layer 	data[26] 	9511
scalar tree_4_3_u05_r14_network.node[26].content_store 	p_hit[26] 	0.26519891850135
scalar tree_4_3_u05_r14_network.node[26].content_store 	hits[26] 	3433
scalar tree_4_3_u05_r14_network.node[26].content_store 	misses[26] 	9512
scalar tree_4_3_u05_r14_network.node[26].content_store 	decision_yes[26] 	933
scalar tree_4_3_u05_r14_network.node[26].content_store 	decision_no[26] 	8578
scalar tree_4_3_u05_r14_network.node[26].content_store 	decision_ratio[26] 	0.098096940384818
scalar tree_4_3_u05_r14_network.node[27].core_layer 	interests[27] 	13024
scalar tree_4_3_u05_r14_network.node[27].core_layer 	data[27] 	9522
scalar tree_4_3_u05_r14_network.node[27].content_store 	p_hit[27] 	0.26881142506143
scalar tree_4_3_u05_r14_network.node[27].content_store 	hits[27] 	3501
scalar tree_4_3_u05_r14_network.node[27].content_store 	misses[27] 	9523
scalar tree_4_3_u05_r14_network.node[27].content_store 	decision_yes[27] 	943
scalar tree_4_3_u05_r14_network.node[27].content_store 	decision_no[27] 	8579
scalar tree_4_3_u05_r14_network.node[27].content_store 	decision_ratio[27] 	0.099033816425121
scalar tree_4_3_u05_r14_network.node[28].core_layer 	interests[28] 	13959
scalar tree_4_3_u05_r14_network.node[28].core_layer 	data[28] 	9450
scalar tree_4_3_u05_r14_network.node[28].content_store 	p_hit[28] 	0.32301740812379
scalar tree_4_3_u05_r14_network.node[28].content_store 	hits[28] 	4509
scalar tree_4_3_u05_r14_network.node[28].content_store 	misses[28] 	9450
scalar tree_4_3_u05_r14_network.node[28].content_store 	decision_yes[28] 	918
scalar tree_4_3_u05_r14_network.node[28].content_store 	decision_no[28] 	8532
scalar tree_4_3_u05_r14_network.node[28].content_store 	decision_ratio[28] 	0.097142857142857
scalar tree_4_3_u05_r14_network.node[29].core_layer 	interests[29] 	13697
scalar tree_4_3_u05_r14_network.node[29].core_layer 	data[29] 	9545
scalar tree_4_3_u05_r14_network.node[29].content_store 	p_hit[29] 	0.30305906402862
scalar tree_4_3_u05_r14_network.node[29].content_store 	hits[29] 	4151
scalar tree_4_3_u05_r14_network.node[29].content_store 	misses[29] 	9546
scalar tree_4_3_u05_r14_network.node[29].content_store 	decision_yes[29] 	943
scalar tree_4_3_u05_r14_network.node[29].content_store 	decision_no[29] 	8602
scalar tree_4_3_u05_r14_network.node[29].content_store 	decision_ratio[29] 	0.098795180722892
scalar tree_4_3_u05_r14_network.node[30].core_layer 	interests[30] 	12651
scalar tree_4_3_u05_r14_network.node[30].core_layer 	data[30] 	9495
scalar tree_4_3_u05_r14_network.node[30].content_store 	p_hit[30] 	0.24930835507075
scalar tree_4_3_u05_r14_network.node[30].content_store 	hits[30] 	3154
scalar tree_4_3_u05_r14_network.node[30].content_store 	misses[30] 	9497
scalar tree_4_3_u05_r14_network.node[30].content_store 	decision_yes[30] 	1018
scalar tree_4_3_u05_r14_network.node[30].content_store 	decision_no[30] 	8477
scalar tree_4_3_u05_r14_network.node[30].content_store 	decision_ratio[30] 	0.10721432332807
scalar tree_4_3_u05_r14_network.node[31].core_layer 	interests[31] 	13078
scalar tree_4_3_u05_r14_network.node[31].core_layer 	data[31] 	9572
scalar tree_4_3_u05_r14_network.node[31].content_store 	p_hit[31] 	0.26808380486313
scalar tree_4_3_u05_r14_network.node[31].content_store 	hits[31] 	3506
scalar tree_4_3_u05_r14_network.node[31].content_store 	misses[31] 	9572
scalar tree_4_3_u05_r14_network.node[31].content_store 	decision_yes[31] 	958
scalar tree_4_3_u05_r14_network.node[31].content_store 	decision_no[31] 	8614
scalar tree_4_3_u05_r14_network.node[31].content_store 	decision_ratio[31] 	0.10008357709987
scalar tree_4_3_u05_r14_network.node[32].core_layer 	interests[32] 	13405
scalar tree_4_3_u05_r14_network.node[32].core_layer 	data[32] 	9365
scalar tree_4_3_u05_r14_network.node[32].content_store 	p_hit[32] 	0.30130548302872
scalar tree_4_3_u05_r14_network.node[32].content_store 	hits[32] 	4039
scalar tree_4_3_u05_r14_network.node[32].content_store 	misses[32] 	9366
scalar tree_4_3_u05_r14_network.node[32].content_store 	decision_yes[32] 	900
scalar tree_4_3_u05_r14_network.node[32].content_store 	decision_no[32] 	8465
scalar tree_4_3_u05_r14_network.node[32].content_store 	decision_ratio[32] 	0.0961025093433
scalar tree_4_3_u05_r14_network.node[33].core_layer 	interests[33] 	12800
scalar tree_4_3_u05_r14_network.node[33].core_layer 	data[33] 	9353
scalar tree_4_3_u05_r14_network.node[33].content_store 	p_hit[33] 	0.269296875
scalar tree_4_3_u05_r14_network.node[33].content_store 	hits[33] 	3447
scalar tree_4_3_u05_r14_network.node[33].content_store 	misses[33] 	9353
scalar tree_4_3_u05_r14_network.node[33].content_store 	decision_yes[33] 	891
scalar tree_4_3_u05_r14_network.node[33].content_store 	decision_no[33] 	8462
scalar tree_4_3_u05_r14_network.node[33].content_store 	decision_ratio[33] 	0.095263551801561
scalar tree_4_3_u05_r14_network.node[34].core_layer 	interests[34] 	13305
scalar tree_4_3_u05_r14_network.node[34].core_layer 	data[34] 	9566
scalar tree_4_3_u05_r14_network.node[34].content_store 	p_hit[34] 	0.28102217211575
scalar tree_4_3_u05_r14_network.node[34].content_store 	hits[34] 	3739
scalar tree_4_3_u05_r14_network.node[34].content_store 	misses[34] 	9566
scalar tree_4_3_u05_r14_network.node[34].content_store 	decision_yes[34] 	993
scalar tree_4_3_u05_r14_network.node[34].content_store 	decision_no[34] 	8573
scalar tree_4_3_u05_r14_network.node[34].content_store 	decision_ratio[34] 	0.10380514321556
scalar tree_4_3_u05_r14_network.node[35].core_layer 	interests[35] 	12659
scalar tree_4_3_u05_r14_network.node[35].core_layer 	data[35] 	9463
scalar tree_4_3_u05_r14_network.node[35].content_store 	p_hit[35] 	0.25246859941544
scalar tree_4_3_u05_r14_network.node[35].content_store 	hits[35] 	3196
scalar tree_4_3_u05_r14_network.node[35].content_store 	misses[35] 	9463
scalar tree_4_3_u05_r14_network.node[35].content_store 	decision_yes[35] 	931
scalar tree_4_3_u05_r14_network.node[35].content_store 	decision_no[35] 	8532
scalar tree_4_3_u05_r14_network.node[35].content_store 	decision_ratio[35] 	0.098383176582479
scalar tree_4_3_u05_r14_network.node[36].core_layer 	interests[36] 	13491
scalar tree_4_3_u05_r14_network.node[36].core_layer 	data[36] 	9122
scalar tree_4_3_u05_r14_network.node[36].content_store 	p_hit[36] 	0.32391965013713
scalar tree_4_3_u05_r14_network.node[36].content_store 	hits[36] 	4370
scalar tree_4_3_u05_r14_network.node[36].content_store 	misses[36] 	9121
scalar tree_4_3_u05_r14_network.node[36].content_store 	decision_yes[36] 	890
scalar tree_4_3_u05_r14_network.node[36].content_store 	decision_no[36] 	8232
scalar tree_4_3_u05_r14_network.node[36].content_store 	decision_ratio[36] 	0.097566323174742
scalar tree_4_3_u05_r14_network.node[37].core_layer 	interests[37] 	13179
scalar tree_4_3_u05_r14_network.node[37].core_layer 	data[37] 	9744
scalar tree_4_3_u05_r14_network.node[37].content_store 	p_hit[37] 	0.26064193034373
scalar tree_4_3_u05_r14_network.node[37].content_store 	hits[37] 	3435
scalar tree_4_3_u05_r14_network.node[37].content_store 	misses[37] 	9744
scalar tree_4_3_u05_r14_network.node[37].content_store 	decision_yes[37] 	954
scalar tree_4_3_u05_r14_network.node[37].content_store 	decision_no[37] 	8790
scalar tree_4_3_u05_r14_network.node[37].content_store 	decision_ratio[37] 	0.097906403940887
scalar tree_4_3_u05_r14_network.node[38].core_layer 	interests[38] 	12939
scalar tree_4_3_u05_r14_network.node[38].core_layer 	data[38] 	9345
scalar tree_4_3_u05_r14_network.node[38].content_store 	p_hit[38] 	0.27776489682356
scalar tree_4_3_u05_r14_network.node[38].content_store 	hits[38] 	3594
scalar tree_4_3_u05_r14_network.node[38].content_store 	misses[38] 	9345
scalar tree_4_3_u05_r14_network.node[38].content_store 	decision_yes[38] 	909
scalar tree_4_3_u05_r14_network.node[38].content_store 	decision_no[38] 	8436
scalar tree_4_3_u05_r14_network.node[38].content_store 	decision_ratio[38] 	0.097271268057785
scalar tree_4_3_u05_r14_network.node[39].core_layer 	interests[39] 	12976
scalar tree_4_3_u05_r14_network.node[39].core_layer 	data[39] 	9497
scalar tree_4_3_u05_r14_network.node[39].content_store 	p_hit[39] 	0.26811035758323
scalar tree_4_3_u05_r14_network.node[39].content_store 	hits[39] 	3479
scalar tree_4_3_u05_r14_network.node[39].content_store 	misses[39] 	9497
scalar tree_4_3_u05_r14_network.node[39].content_store 	decision_yes[39] 	940
scalar tree_4_3_u05_r14_network.node[39].content_store 	decision_no[39] 	8557
scalar tree_4_3_u05_r14_network.node[39].content_store 	decision_ratio[39] 	0.098978624828893
scalar tree_4_3_u05_r14_network.client[13] 	hdistance[13] 	2.8663472658186
scalar tree_4_3_u05_r14_network.client[13] 	downloads[13] 	12106
scalar tree_4_3_u05_r14_network.client[13] 	avg_time[13] 	0.004543363895
scalar tree_4_3_u05_r14_network.client[14] 	hdistance[14] 	2.7793895690089
scalar tree_4_3_u05_r14_network.client[14] 	downloads[14] 	11926
scalar tree_4_3_u05_r14_network.client[14] 	avg_time[14] 	0.0044039883
scalar tree_4_3_u05_r14_network.client[15] 	hdistance[15] 	2.8925660656952
scalar tree_4_3_u05_r14_network.client[15] 	downloads[15] 	12147
scalar tree_4_3_u05_r14_network.client[15] 	avg_time[15] 	0.004579006502
scalar tree_4_3_u05_r14_network.client[16] 	hdistance[16] 	2.7521735597627
scalar tree_4_3_u05_r14_network.client[16] 	downloads[16] 	12307
scalar tree_4_3_u05_r14_network.client[16] 	avg_time[16] 	0.004362554816
scalar tree_4_3_u05_r14_network.client[17] 	hdistance[17] 	2.8511058127107
scalar tree_4_3_u05_r14_network.client[17] 	downloads[17] 	12163
scalar tree_4_3_u05_r14_network.client[17] 	avg_time[17] 	0.004549142054
scalar tree_4_3_u05_r14_network.client[18] 	hdistance[18] 	2.8545076859161
scalar tree_4_3_u05_r14_network.client[18] 	downloads[18] 	12035
scalar tree_4_3_u05_r14_network.client[18] 	avg_time[18] 	0.004557431884
scalar tree_4_3_u05_r14_network.client[19] 	hdistance[19] 	2.8469101123596
scalar tree_4_3_u05_r14_network.client[19] 	downloads[19] 	12104
scalar tree_4_3_u05_r14_network.client[19] 	avg_time[19] 	0.004479638708
scalar tree_4_3_u05_r14_network.client[20] 	hdistance[20] 	2.910834932021
scalar tree_4_3_u05_r14_network.client[20] 	downloads[20] 	11989
scalar tree_4_3_u05_r14_network.client[20] 	avg_time[20] 	0.004623401827
scalar tree_4_3_u05_r14_network.client[21] 	hdistance[21] 	2.9155247326203
scalar tree_4_3_u05_r14_network.client[21] 	downloads[21] 	11968
scalar tree_4_3_u05_r14_network.client[21] 	avg_time[21] 	0.004635011022
scalar tree_4_3_u05_r14_network.client[22] 	hdistance[22] 	2.8381039046989
scalar tree_4_3_u05_r14_network.client[22] 	downloads[22] 	12088
scalar tree_4_3_u05_r14_network.client[22] 	avg_time[22] 	0.004528720798
scalar tree_4_3_u05_r14_network.client[23] 	hdistance[23] 	2.774897908159
scalar tree_4_3_u05_r14_network.client[23] 	downloads[23] 	11999
scalar tree_4_3_u05_r14_network.client[23] 	avg_time[23] 	0.004395517603
scalar tree_4_3_u05_r14_network.client[24] 	hdistance[24] 	2.8522584429733
scalar tree_4_3_u05_r14_network.client[24] 	downloads[24] 	11933
scalar tree_4_3_u05_r14_network.client[24] 	avg_time[24] 	0.00455509633
scalar tree_4_3_u05_r14_network.client[25] 	hdistance[25] 	2.8105965790571
scalar tree_4_3_u05_r14_network.client[25] 	downloads[25] 	11985
scalar tree_4_3_u05_r14_network.client[25] 	avg_time[25] 	0.004452167596
scalar tree_4_3_u05_r14_network.client[26] 	hdistance[26] 	2.8609321395699
scalar tree_4_3_u05_r14_network.client[26] 	downloads[26] 	11951
scalar tree_4_3_u05_r14_network.client[26] 	avg_time[26] 	0.004524436762
scalar tree_4_3_u05_r14_network.client[27] 	hdistance[27] 	2.825221789238
scalar tree_4_3_u05_r14_network.client[27] 	downloads[27] 	12061
scalar tree_4_3_u05_r14_network.client[27] 	avg_time[27] 	0.004472097106
scalar tree_4_3_u05_r14_network.client[28] 	hdistance[28] 	2.7574067909454
scalar tree_4_3_u05_r14_network.client[28] 	downloads[28] 	12016
scalar tree_4_3_u05_r14_network.client[28] 	avg_time[28] 	0.004371034539
scalar tree_4_3_u05_r14_network.client[29] 	hdistance[29] 	2.772210700954
scalar tree_4_3_u05_r14_network.client[29] 	downloads[29] 	12055
scalar tree_4_3_u05_r14_network.client[29] 	avg_time[29] 	0.004358343246
scalar tree_4_3_u05_r14_network.client[30] 	hdistance[30] 	2.8742315999335
scalar tree_4_3_u05_r14_network.client[30] 	downloads[30] 	12038
scalar tree_4_3_u05_r14_network.client[30] 	avg_time[30] 	0.004556738456
scalar tree_4_3_u05_r14_network.client[31] 	hdistance[31] 	2.8988394106511
scalar tree_4_3_u05_r14_network.client[31] 	downloads[31] 	12149
scalar tree_4_3_u05_r14_network.client[31] 	avg_time[31] 	0.004532471855
scalar tree_4_3_u05_r14_network.client[32] 	hdistance[32] 	2.8315300084531
scalar tree_4_3_u05_r14_network.client[32] 	downloads[32] 	11830
scalar tree_4_3_u05_r14_network.client[32] 	avg_time[32] 	0.004399267236
scalar tree_4_3_u05_r14_network.client[33] 	hdistance[33] 	2.9145154464664
scalar tree_4_3_u05_r14_network.client[33] 	downloads[33] 	11815
scalar tree_4_3_u05_r14_network.client[33] 	avg_time[33] 	0.004562788042
scalar tree_4_3_u05_r14_network.client[34] 	hdistance[34] 	2.8596957858865
scalar tree_4_3_u05_r14_network.client[34] 	downloads[34] 	12031
scalar tree_4_3_u05_r14_network.client[34] 	avg_time[34] 	0.00444484778
scalar tree_4_3_u05_r14_network.client[35] 	hdistance[35] 	2.8904558045832
scalar tree_4_3_u05_r14_network.client[35] 	downloads[35] 	11913
scalar tree_4_3_u05_r14_network.client[35] 	avg_time[35] 	0.004524801837
scalar tree_4_3_u05_r14_network.client[36] 	hdistance[36] 	2.7859142978362
scalar tree_4_3_u05_r14_network.client[36] 	downloads[36] 	11785
scalar tree_4_3_u05_r14_network.client[36] 	avg_time[36] 	0.00431887701
scalar tree_4_3_u05_r14_network.client[37] 	hdistance[37] 	2.8951737608855
scalar tree_4_3_u05_r14_network.client[37] 	downloads[37] 	12287
scalar tree_4_3_u05_r14_network.client[37] 	avg_time[37] 	0.004537026195
scalar tree_4_3_u05_r14_network.client[38] 	hdistance[38] 	2.8725778038755
scalar tree_4_3_u05_r14_network.client[38] 	downloads[38] 	11921
scalar tree_4_3_u05_r14_network.client[38] 	avg_time[38] 	0.004492740901
scalar tree_4_3_u05_r14_network.client[39] 	hdistance[39] 	2.9099707968294
scalar tree_4_3_u05_r14_network.client[39] 	downloads[39] 	11985
scalar tree_4_3_u05_r14_network.client[39] 	avg_time[39] 	0.004562199741
