version 2
run General-104-20160819-08:31:36-13837
attr a 0.9
attr cd fix0.1
attr configname General
attr cr lru
attr datetime 20160819-08:31:36
attr experiment General
attr fsize 1
attr inifile hw5115/scenario_A/NRR-FIX0.1.ini
attr iterationvars "$name=tree_4_3, $un=05, $rep=5, $cd=fix0.1, $cr=lru, $fsize=1, $a=0.9, $sl=nrr, $ttl=1000, $variance=0.05"
attr iterationvars2 "$name=tree_4_3, $un=05, $rep=5, $cd=fix0.1, $cr=lru, $fsize=1, $a=0.9, $sl=nrr, $ttl=1000, $variance=0.05, $repetition=0"
attr measurement "$name=tree_4_3, $un=05, $rep=5, $cd=fix0.1, $cr=lru, $fsize=1, $a=0.9, $sl=nrr, $ttl=1000, $variance=0.05"
attr name tree_4_3
attr network networks.${name}_u${un}_r${rep}_network
attr processid 13837
attr rep 5
attr repetition 0
attr replication #0
attr resultdir results
attr runnumber 104
attr seedset 5
attr sl nrr
attr ttl 1000
attr un 05
attr variance 0.05

scalar . 	a 	0.9
scalar . 	fsize 	1
scalar . 	rep 	5
scalar . 	ttl 	1000
scalar . 	un 	05
scalar . 	variance 	0.05
scalar tree_4_3_u05_r5_network.content_distribution 	repo-0 	0
scalar tree_4_3_u05_r5_network.content_distribution 	client-0 	13
scalar tree_4_3_u05_r5_network.content_distribution 	client-1 	14
scalar tree_4_3_u05_r5_network.content_distribution 	client-2 	15
scalar tree_4_3_u05_r5_network.content_distribution 	client-3 	16
scalar tree_4_3_u05_r5_network.content_distribution 	client-4 	17
scalar tree_4_3_u05_r5_network.content_distribution 	client-5 	18
scalar tree_4_3_u05_r5_network.content_distribution 	client-6 	19
scalar tree_4_3_u05_r5_network.content_distribution 	client-7 	20
scalar tree_4_3_u05_r5_network.content_distribution 	client-8 	21
scalar tree_4_3_u05_r5_network.content_distribution 	client-9 	22
scalar tree_4_3_u05_r5_network.content_distribution 	client-10 	23
scalar tree_4_3_u05_r5_network.content_distribution 	client-11 	24
scalar tree_4_3_u05_r5_network.content_distribution 	client-12 	25
scalar tree_4_3_u05_r5_network.content_distribution 	client-13 	26
scalar tree_4_3_u05_r5_network.content_distribution 	client-14 	27
scalar tree_4_3_u05_r5_network.content_distribution 	client-15 	28
scalar tree_4_3_u05_r5_network.content_distribution 	client-16 	29
scalar tree_4_3_u05_r5_network.content_distribution 	client-17 	30
scalar tree_4_3_u05_r5_network.content_distribution 	client-18 	31
scalar tree_4_3_u05_r5_network.content_distribution 	client-19 	32
scalar tree_4_3_u05_r5_network.content_distribution 	client-20 	33
scalar tree_4_3_u05_r5_network.content_distribution 	client-21 	34
scalar tree_4_3_u05_r5_network.content_distribution 	client-22 	35
scalar tree_4_3_u05_r5_network.content_distribution 	client-23 	36
scalar tree_4_3_u05_r5_network.content_distribution 	client-24 	37
scalar tree_4_3_u05_r5_network.content_distribution 	client-25 	38
scalar tree_4_3_u05_r5_network.content_distribution 	client-26 	39
scalar tree_4_3_u05_r5_network.content_distribution 	repo-0_card 	100000
scalar tree_4_3_u05_r5_network.content_distribution 	repo-0_price 	0
scalar tree_4_3_u05_r5_network.statistics 	stabilization_time 	700.2
scalar tree_4_3_u05_r5_network.statistics 	p_hit 	0.22015568714886
scalar tree_4_3_u05_r5_network.statistics 	interests 	26400
scalar tree_4_3_u05_r5_network.statistics 	data 	18326.775
scalar tree_4_3_u05_r5_network.statistics 	hdistance 	2.8489064375719
scalar tree_4_3_u05_r5_network.statistics 	avg_time 	0.004540300508
scalar tree_4_3_u05_r5_network.statistics 	downloads 	322923
scalar tree_4_3_u05_r5_network.statistics 	total_cost 	0
scalar tree_4_3_u05_r5_network.statistics 	total_replicas 	100000
scalar tree_4_3_u05_r5_network.statistics 	inner_hit 	0.42130786596185
scalar tree_4_3_u05_r5_network.node[0].core_layer 	interests[0] 	188033
scalar tree_4_3_u05_r5_network.node[0].core_layer 	repo_load[0] 	186873
scalar tree_4_3_u05_r5_network.node[0].core_layer 	data[0] 	0
scalar tree_4_3_u05_r5_network.node[0].core_layer 	repo_int[0] 	186873
scalar tree_4_3_u05_r5_network.node[0].content_store 	p_hit[0] 	0.0061691298867752
scalar tree_4_3_u05_r5_network.node[0].content_store 	hits[0] 	1160
scalar tree_4_3_u05_r5_network.node[0].content_store 	misses[0] 	186873
scalar tree_4_3_u05_r5_network.node[0].content_store 	decision_yes[0] 	18738
scalar tree_4_3_u05_r5_network.node[0].content_store 	decision_no[0] 	168135
scalar tree_4_3_u05_r5_network.node[0].content_store 	decision_ratio[0] 	0.10027130725145
scalar tree_4_3_u05_r5_network.node[1].core_layer 	interests[1] 	98486
scalar tree_4_3_u05_r5_network.node[1].core_layer 	data[1] 	97539
scalar tree_4_3_u05_r5_network.node[1].content_store 	p_hit[1] 	0.0096054261519404
scalar tree_4_3_u05_r5_network.node[1].content_store 	hits[1] 	946
scalar tree_4_3_u05_r5_network.node[1].content_store 	misses[1] 	97540
scalar tree_4_3_u05_r5_network.node[1].content_store 	decision_yes[1] 	9792
scalar tree_4_3_u05_r5_network.node[1].content_store 	decision_no[1] 	87747
scalar tree_4_3_u05_r5_network.node[1].content_store 	decision_ratio[1] 	0.10039061298558
scalar tree_4_3_u05_r5_network.node[2].core_layer 	interests[2] 	73538
scalar tree_4_3_u05_r5_network.node[2].core_layer 	data[2] 	72225
scalar tree_4_3_u05_r5_network.node[2].content_store 	p_hit[2] 	0.017854714569338
scalar tree_4_3_u05_r5_network.node[2].content_store 	hits[2] 	1313
scalar tree_4_3_u05_r5_network.node[2].content_store 	misses[2] 	72225
scalar tree_4_3_u05_r5_network.node[2].content_store 	decision_yes[2] 	7284
scalar tree_4_3_u05_r5_network.node[2].content_store 	decision_no[2] 	64940
scalar tree_4_3_u05_r5_network.node[2].content_store 	decision_ratio[2] 	0.10085290208241
scalar tree_4_3_u05_r5_network.node[3].core_layer 	interests[3] 	48118
scalar tree_4_3_u05_r5_network.node[3].core_layer 	data[3] 	46198
scalar tree_4_3_u05_r5_network.node[3].content_store 	p_hit[3] 	0.039901907809967
scalar tree_4_3_u05_r5_network.node[3].content_store 	hits[3] 	1920
scalar tree_4_3_u05_r5_network.node[3].content_store 	misses[3] 	46198
scalar tree_4_3_u05_r5_network.node[3].content_store 	decision_yes[3] 	4677
scalar tree_4_3_u05_r5_network.node[3].content_store 	decision_no[3] 	41521
scalar tree_4_3_u05_r5_network.node[3].content_store 	decision_ratio[3] 	0.10123814883761
scalar tree_4_3_u05_r5_network.node[4].core_layer 	interests[4] 	36219
scalar tree_4_3_u05_r5_network.node[4].core_layer 	data[4] 	34548
scalar tree_4_3_u05_r5_network.node[4].content_store 	p_hit[4] 	0.046108396145669
scalar tree_4_3_u05_r5_network.node[4].content_store 	hits[4] 	1670
scalar tree_4_3_u05_r5_network.node[4].content_store 	misses[4] 	34549
scalar tree_4_3_u05_r5_network.node[4].content_store 	decision_yes[4] 	3487
scalar tree_4_3_u05_r5_network.node[4].content_store 	decision_no[4] 	31061
scalar tree_4_3_u05_r5_network.node[4].content_store 	decision_ratio[4] 	0.10093203658678
scalar tree_4_3_u05_r5_network.node[5].core_layer 	interests[5] 	44385
scalar tree_4_3_u05_r5_network.node[5].core_layer 	data[5] 	40653
scalar tree_4_3_u05_r5_network.node[5].content_store 	p_hit[5] 	0.08403740002253
scalar tree_4_3_u05_r5_network.node[5].content_store 	hits[5] 	3730
scalar tree_4_3_u05_r5_network.node[5].content_store 	misses[5] 	40655
scalar tree_4_3_u05_r5_network.node[5].content_store 	decision_yes[5] 	3944
scalar tree_4_3_u05_r5_network.node[5].content_store 	decision_no[5] 	36709
scalar tree_4_3_u05_r5_network.node[5].content_store 	decision_ratio[5] 	0.097016210365779
scalar tree_4_3_u05_r5_network.node[6].core_layer 	interests[6] 	13447
scalar tree_4_3_u05_r5_network.node[6].core_layer 	data[6] 	10305
scalar tree_4_3_u05_r5_network.node[6].content_store 	p_hit[6] 	0.23365806499591
scalar tree_4_3_u05_r5_network.node[6].content_store 	hits[6] 	3142
scalar tree_4_3_u05_r5_network.node[6].content_store 	misses[6] 	10305
scalar tree_4_3_u05_r5_network.node[6].content_store 	decision_yes[6] 	1046
scalar tree_4_3_u05_r5_network.node[6].content_store 	decision_no[6] 	9259
scalar tree_4_3_u05_r5_network.node[6].content_store 	decision_ratio[6] 	0.10150412421155
scalar tree_4_3_u05_r5_network.node[7].core_layer 	interests[7] 	28851
scalar tree_4_3_u05_r5_network.node[7].core_layer 	data[7] 	27076
scalar tree_4_3_u05_r5_network.node[7].content_store 	p_hit[7] 	0.061522997469758
scalar tree_4_3_u05_r5_network.node[7].content_store 	hits[7] 	1775
scalar tree_4_3_u05_r5_network.node[7].content_store 	misses[7] 	27076
scalar tree_4_3_u05_r5_network.node[7].content_store 	decision_yes[7] 	2699
scalar tree_4_3_u05_r5_network.node[7].content_store 	decision_no[7] 	24377
scalar tree_4_3_u05_r5_network.node[7].content_store 	decision_ratio[7] 	0.09968237553553
scalar tree_4_3_u05_r5_network.node[8].core_layer 	interests[8] 	37154
scalar tree_4_3_u05_r5_network.node[8].core_layer 	data[8] 	35347
scalar tree_4_3_u05_r5_network.node[8].content_store 	p_hit[8] 	0.048581579372342
scalar tree_4_3_u05_r5_network.node[8].content_store 	hits[8] 	1805
scalar tree_4_3_u05_r5_network.node[8].content_store 	misses[8] 	35349
scalar tree_4_3_u05_r5_network.node[8].content_store 	decision_yes[8] 	3568
scalar tree_4_3_u05_r5_network.node[8].content_store 	decision_no[8] 	31779
scalar tree_4_3_u05_r5_network.node[8].content_store 	decision_ratio[8] 	0.10094208843749
scalar tree_4_3_u05_r5_network.node[9].core_layer 	interests[9] 	29834
scalar tree_4_3_u05_r5_network.node[9].core_layer 	data[9] 	24606
scalar tree_4_3_u05_r5_network.node[9].content_store 	p_hit[9] 	0.17523630756855
scalar tree_4_3_u05_r5_network.node[9].content_store 	hits[9] 	5228
scalar tree_4_3_u05_r5_network.node[9].content_store 	misses[9] 	24606
scalar tree_4_3_u05_r5_network.node[9].content_store 	decision_yes[9] 	2505
scalar tree_4_3_u05_r5_network.node[9].content_store 	decision_no[9] 	22101
scalar tree_4_3_u05_r5_network.node[9].content_store 	decision_ratio[9] 	0.10180443794197
scalar tree_4_3_u05_r5_network.node[10].core_layer 	interests[10] 	43326
scalar tree_4_3_u05_r5_network.node[10].core_layer 	data[10] 	39942
scalar tree_4_3_u05_r5_network.node[10].content_store 	p_hit[10] 	0.078082444721414
scalar tree_4_3_u05_r5_network.node[10].content_store 	hits[10] 	3383
scalar tree_4_3_u05_r5_network.node[10].content_store 	misses[10] 	39943
scalar tree_4_3_u05_r5_network.node[10].content_store 	decision_yes[10] 	3933
scalar tree_4_3_u05_r5_network.node[10].content_store 	decision_no[10] 	36008
scalar tree_4_3_u05_r5_network.node[10].content_store 	decision_ratio[10] 	0.098470243609324
scalar tree_4_3_u05_r5_network.node[11].core_layer 	interests[11] 	20469
scalar tree_4_3_u05_r5_network.node[11].core_layer 	data[11] 	18426
scalar tree_4_3_u05_r5_network.node[11].content_store 	p_hit[11] 	0.099760613610826
scalar tree_4_3_u05_r5_network.node[11].content_store 	hits[11] 	2042
scalar tree_4_3_u05_r5_network.node[11].content_store 	misses[11] 	18427
scalar tree_4_3_u05_r5_network.node[11].content_store 	decision_yes[11] 	1809
scalar tree_4_3_u05_r5_network.node[11].content_store 	decision_no[11] 	16617
scalar tree_4_3_u05_r5_network.node[11].content_store 	decision_ratio[11] 	0.098176489742755
scalar tree_4_3_u05_r5_network.node[12].core_layer 	interests[12] 	31343
scalar tree_4_3_u05_r5_network.node[12].core_layer 	data[12] 	29108
scalar tree_4_3_u05_r5_network.node[12].content_store 	p_hit[12] 	0.071275882972275
scalar tree_4_3_u05_r5_network.node[12].content_store 	hits[12] 	2234
scalar tree_4_3_u05_r5_network.node[12].content_store 	misses[12] 	29109
scalar tree_4_3_u05_r5_network.node[12].content_store 	decision_yes[12] 	2859
scalar tree_4_3_u05_r5_network.node[12].content_store 	decision_no[12] 	26249
scalar tree_4_3_u05_r5_network.node[12].content_store 	decision_ratio[12] 	0.098220420502955
scalar tree_4_3_u05_r5_network.node[13].core_layer 	interests[13] 	12458
scalar tree_4_3_u05_r5_network.node[13].core_layer 	data[13] 	9403
scalar tree_4_3_u05_r5_network.node[13].content_store 	p_hit[13] 	0.24522395248033
scalar tree_4_3_u05_r5_network.node[13].content_store 	hits[13] 	3055
scalar tree_4_3_u05_r5_network.node[13].content_store 	misses[13] 	9403
scalar tree_4_3_u05_r5_network.node[13].content_store 	decision_yes[13] 	1021
scalar tree_4_3_u05_r5_network.node[13].content_store 	decision_no[13] 	8382
scalar tree_4_3_u05_r5_network.node[13].content_store 	decision_ratio[13] 	0.10858236732958
scalar tree_4_3_u05_r5_network.node[14].core_layer 	interests[14] 	14335
scalar tree_4_3_u05_r5_network.node[14].core_layer 	data[14] 	9553
scalar tree_4_3_u05_r5_network.node[14].content_store 	p_hit[14] 	0.33358911754447
scalar tree_4_3_u05_r5_network.node[14].content_store 	hits[14] 	4782
scalar tree_4_3_u05_r5_network.node[14].content_store 	misses[14] 	9553
scalar tree_4_3_u05_r5_network.node[14].content_store 	decision_yes[14] 	982
scalar tree_4_3_u05_r5_network.node[14].content_store 	decision_no[14] 	8571
scalar tree_4_3_u05_r5_network.node[14].content_store 	decision_ratio[14] 	0.10279493352873
scalar tree_4_3_u05_r5_network.node[15].core_layer 	interests[15] 	13169
scalar tree_4_3_u05_r5_network.node[15].core_layer 	data[15] 	9511
scalar tree_4_3_u05_r5_network.node[15].content_store 	p_hit[15] 	0.27777355911611
scalar tree_4_3_u05_r5_network.node[15].content_store 	hits[15] 	3658
scalar tree_4_3_u05_r5_network.node[15].content_store 	misses[15] 	9511
scalar tree_4_3_u05_r5_network.node[15].content_store 	decision_yes[15] 	917
scalar tree_4_3_u05_r5_network.node[15].content_store 	decision_no[15] 	8594
scalar tree_4_3_u05_r5_network.node[15].content_store 	decision_ratio[15] 	0.096414677741562
scalar tree_4_3_u05_r5_network.node[16].core_layer 	interests[16] 	13534
scalar tree_4_3_u05_r5_network.node[16].core_layer 	data[16] 	9548
scalar tree_4_3_u05_r5_network.node[16].content_store 	p_hit[16] 	0.29451751145264
scalar tree_4_3_u05_r5_network.node[16].content_store 	hits[16] 	3986
scalar tree_4_3_u05_r5_network.node[16].content_store 	misses[16] 	9548
scalar tree_4_3_u05_r5_network.node[16].content_store 	decision_yes[16] 	957
scalar tree_4_3_u05_r5_network.node[16].content_store 	decision_no[16] 	8591
scalar tree_4_3_u05_r5_network.node[16].content_store 	decision_ratio[16] 	0.10023041474654
scalar tree_4_3_u05_r5_network.node[17].core_layer 	interests[17] 	13622
scalar tree_4_3_u05_r5_network.node[17].core_layer 	data[17] 	9642
scalar tree_4_3_u05_r5_network.node[17].content_store 	p_hit[17] 	0.29217442372633
scalar tree_4_3_u05_r5_network.node[17].content_store 	hits[17] 	3980
scalar tree_4_3_u05_r5_network.node[17].content_store 	misses[17] 	9642
scalar tree_4_3_u05_r5_network.node[17].content_store 	decision_yes[17] 	958
scalar tree_4_3_u05_r5_network.node[17].content_store 	decision_no[17] 	8684
scalar tree_4_3_u05_r5_network.node[17].content_store 	decision_ratio[17] 	0.099356979879693
scalar tree_4_3_u05_r5_network.node[18].core_layer 	interests[18] 	13353
scalar tree_4_3_u05_r5_network.node[18].core_layer 	data[18] 	9416
scalar tree_4_3_u05_r5_network.node[18].content_store 	p_hit[18] 	0.29484011083652
scalar tree_4_3_u05_r5_network.node[18].content_store 	hits[18] 	3937
scalar tree_4_3_u05_r5_network.node[18].content_store 	misses[18] 	9416
scalar tree_4_3_u05_r5_network.node[18].content_store 	decision_yes[18] 	942
scalar tree_4_3_u05_r5_network.node[18].content_store 	decision_no[18] 	8474
scalar tree_4_3_u05_r5_network.node[18].content_store 	decision_ratio[18] 	0.1000424808836
scalar tree_4_3_u05_r5_network.node[19].core_layer 	interests[19] 	13157
scalar tree_4_3_u05_r5_network.node[19].core_layer 	data[19] 	9341
scalar tree_4_3_u05_r5_network.node[19].content_store 	p_hit[19] 	0.29003572242913
scalar tree_4_3_u05_r5_network.node[19].content_store 	hits[19] 	3816
scalar tree_4_3_u05_r5_network.node[19].content_store 	misses[19] 	9341
scalar tree_4_3_u05_r5_network.node[19].content_store 	decision_yes[19] 	924
scalar tree_4_3_u05_r5_network.node[19].content_store 	decision_no[19] 	8417
scalar tree_4_3_u05_r5_network.node[19].content_store 	decision_ratio[19] 	0.098918745316347
scalar tree_4_3_u05_r5_network.node[20].core_layer 	interests[20] 	14312
scalar tree_4_3_u05_r5_network.node[20].core_layer 	data[20] 	9511
scalar tree_4_3_u05_r5_network.node[20].content_store 	p_hit[20] 	0.33545276690889
scalar tree_4_3_u05_r5_network.node[20].content_store 	hits[20] 	4801
scalar tree_4_3_u05_r5_network.node[20].content_store 	misses[20] 	9511
scalar tree_4_3_u05_r5_network.node[20].content_store 	decision_yes[20] 	974
scalar tree_4_3_u05_r5_network.node[20].content_store 	decision_no[20] 	8537
scalar tree_4_3_u05_r5_network.node[20].content_store 	decision_ratio[20] 	0.10240773840816
scalar tree_4_3_u05_r5_network.node[21].core_layer 	interests[21] 	12692
scalar tree_4_3_u05_r5_network.node[21].core_layer 	data[21] 	9510
scalar tree_4_3_u05_r5_network.node[21].content_store 	p_hit[21] 	0.25070910809959
scalar tree_4_3_u05_r5_network.node[21].content_store 	hits[21] 	3182
scalar tree_4_3_u05_r5_network.node[21].content_store 	misses[21] 	9510
scalar tree_4_3_u05_r5_network.node[21].content_store 	decision_yes[21] 	892
scalar tree_4_3_u05_r5_network.node[21].content_store 	decision_no[21] 	8618
scalar tree_4_3_u05_r5_network.node[21].content_store 	decision_ratio[21] 	0.093796004206099
scalar tree_4_3_u05_r5_network.node[22].core_layer 	interests[22] 	12963
scalar tree_4_3_u05_r5_network.node[22].core_layer 	data[22] 	9601
scalar tree_4_3_u05_r5_network.node[22].content_store 	p_hit[22] 	0.25935354470416
scalar tree_4_3_u05_r5_network.node[22].content_store 	hits[22] 	3362
scalar tree_4_3_u05_r5_network.node[22].content_store 	misses[22] 	9601
scalar tree_4_3_u05_r5_network.node[22].content_store 	decision_yes[22] 	926
scalar tree_4_3_u05_r5_network.node[22].content_store 	decision_no[22] 	8675
scalar tree_4_3_u05_r5_network.node[22].content_store 	decision_ratio[22] 	0.096448286636809
scalar tree_4_3_u05_r5_network.node[23].core_layer 	interests[23] 	12944
scalar tree_4_3_u05_r5_network.node[23].core_layer 	data[23] 	9470
scalar tree_4_3_u05_r5_network.node[23].content_store 	p_hit[23] 	0.2683868974042
scalar tree_4_3_u05_r5_network.node[23].content_store 	hits[23] 	3474
scalar tree_4_3_u05_r5_network.node[23].content_store 	misses[23] 	9470
scalar tree_4_3_u05_r5_network.node[23].content_store 	decision_yes[23] 	939
scalar tree_4_3_u05_r5_network.node[23].content_store 	decision_no[23] 	8531
scalar tree_4_3_u05_r5_network.node[23].content_store 	decision_ratio[23] 	0.099155227032735
scalar tree_4_3_u05_r5_network.node[24].core_layer 	interests[24] 	13993
scalar tree_4_3_u05_r5_network.node[24].core_layer 	data[24] 	9522
scalar tree_4_3_u05_r5_network.node[24].content_store 	p_hit[24] 	0.3195169013078
scalar tree_4_3_u05_r5_network.node[24].content_store 	hits[24] 	4471
scalar tree_4_3_u05_r5_network.node[24].content_store 	misses[24] 	9522
scalar tree_4_3_u05_r5_network.node[24].content_store 	decision_yes[24] 	918
scalar tree_4_3_u05_r5_network.node[24].content_store 	decision_no[24] 	8604
scalar tree_4_3_u05_r5_network.node[24].content_store 	decision_ratio[24] 	0.09640831758034
scalar tree_4_3_u05_r5_network.node[25].core_layer 	interests[25] 	12889
scalar tree_4_3_u05_r5_network.node[25].core_layer 	data[25] 	9554
scalar tree_4_3_u05_r5_network.node[25].content_store 	p_hit[25] 	0.25874776941578
scalar tree_4_3_u05_r5_network.node[25].content_store 	hits[25] 	3335
scalar tree_4_3_u05_r5_network.node[25].content_store 	misses[25] 	9554
scalar tree_4_3_u05_r5_network.node[25].content_store 	decision_yes[25] 	972
scalar tree_4_3_u05_r5_network.node[25].content_store 	decision_no[25] 	8582
scalar tree_4_3_u05_r5_network.node[25].content_store 	decision_ratio[25] 	0.10173749214988
scalar tree_4_3_u05_r5_network.node[26].core_layer 	interests[26] 	12939
scalar tree_4_3_u05_r5_network.node[26].core_layer 	data[26] 	9466
scalar tree_4_3_u05_r5_network.node[26].content_store 	p_hit[26] 	0.26841332405905
scalar tree_4_3_u05_r5_network.node[26].content_store 	hits[26] 	3473
scalar tree_4_3_u05_r5_network.node[26].content_store 	misses[26] 	9466
scalar tree_4_3_u05_r5_network.node[26].content_store 	decision_yes[26] 	902
scalar tree_4_3_u05_r5_network.node[26].content_store 	decision_no[26] 	8564
scalar tree_4_3_u05_r5_network.node[26].content_store 	decision_ratio[26] 	0.095288400591591
scalar tree_4_3_u05_r5_network.node[27].core_layer 	interests[27] 	14303
scalar tree_4_3_u05_r5_network.node[27].core_layer 	data[27] 	9627
scalar tree_4_3_u05_r5_network.node[27].content_store 	p_hit[27] 	0.32692442145005
scalar tree_4_3_u05_r5_network.node[27].content_store 	hits[27] 	4676
scalar tree_4_3_u05_r5_network.node[27].content_store 	misses[27] 	9627
scalar tree_4_3_u05_r5_network.node[27].content_store 	decision_yes[27] 	984
scalar tree_4_3_u05_r5_network.node[27].content_store 	decision_no[27] 	8643
scalar tree_4_3_u05_r5_network.node[27].content_store 	decision_ratio[27] 	0.10221252726706
scalar tree_4_3_u05_r5_network.node[28].core_layer 	interests[28] 	13262
scalar tree_4_3_u05_r5_network.node[28].core_layer 	data[28] 	9457
scalar tree_4_3_u05_r5_network.node[28].content_store 	p_hit[28] 	0.28690996833057
scalar tree_4_3_u05_r5_network.node[28].content_store 	hits[28] 	3805
scalar tree_4_3_u05_r5_network.node[28].content_store 	misses[28] 	9457
scalar tree_4_3_u05_r5_network.node[28].content_store 	decision_yes[28] 	897
scalar tree_4_3_u05_r5_network.node[28].content_store 	decision_no[28] 	8560
scalar tree_4_3_u05_r5_network.node[28].content_store 	decision_ratio[28] 	0.094850375383314
scalar tree_4_3_u05_r5_network.node[29].core_layer 	interests[29] 	14236
scalar tree_4_3_u05_r5_network.node[29].core_layer 	data[29] 	9480
scalar tree_4_3_u05_r5_network.node[29].content_store 	p_hit[29] 	0.33408260747401
scalar tree_4_3_u05_r5_network.node[29].content_store 	hits[29] 	4756
scalar tree_4_3_u05_r5_network.node[29].content_store 	misses[29] 	9480
scalar tree_4_3_u05_r5_network.node[29].content_store 	decision_yes[29] 	959
scalar tree_4_3_u05_r5_network.node[29].content_store 	decision_no[29] 	8521
scalar tree_4_3_u05_r5_network.node[29].content_store 	decision_ratio[29] 	0.10116033755274
scalar tree_4_3_u05_r5_network.node[30].core_layer 	interests[30] 	13725
scalar tree_4_3_u05_r5_network.node[30].core_layer 	data[30] 	9695
scalar tree_4_3_u05_r5_network.node[30].content_store 	p_hit[30] 	0.2936247723133
scalar tree_4_3_u05_r5_network.node[30].content_store 	hits[30] 	4030
scalar tree_4_3_u05_r5_network.node[30].content_store 	misses[30] 	9695
scalar tree_4_3_u05_r5_network.node[30].content_store 	decision_yes[30] 	964
scalar tree_4_3_u05_r5_network.node[30].content_store 	decision_no[30] 	8731
scalar tree_4_3_u05_r5_network.node[30].content_store 	decision_ratio[30] 	0.099432697266632
scalar tree_4_3_u05_r5_network.node[31].core_layer 	interests[31] 	13842
scalar tree_4_3_u05_r5_network.node[31].core_layer 	data[31] 	9689
scalar tree_4_3_u05_r5_network.node[31].content_store 	p_hit[31] 	0.29995665366277
scalar tree_4_3_u05_r5_network.node[31].content_store 	hits[31] 	4152
scalar tree_4_3_u05_r5_network.node[31].content_store 	misses[31] 	9690
scalar tree_4_3_u05_r5_network.node[31].content_store 	decision_yes[31] 	926
scalar tree_4_3_u05_r5_network.node[31].content_store 	decision_no[31] 	8763
scalar tree_4_3_u05_r5_network.node[31].content_store 	decision_ratio[31] 	0.095572298482816
scalar tree_4_3_u05_r5_network.node[32].core_layer 	interests[32] 	13720
scalar tree_4_3_u05_r5_network.node[32].core_layer 	data[32] 	9629
scalar tree_4_3_u05_r5_network.node[32].content_store 	p_hit[32] 	0.2981778425656
scalar tree_4_3_u05_r5_network.node[32].content_store 	hits[32] 	4091
scalar tree_4_3_u05_r5_network.node[32].content_store 	misses[32] 	9629
scalar tree_4_3_u05_r5_network.node[32].content_store 	decision_yes[32] 	919
scalar tree_4_3_u05_r5_network.node[32].content_store 	decision_no[32] 	8710
scalar tree_4_3_u05_r5_network.node[32].content_store 	decision_ratio[32] 	0.09544085574826
scalar tree_4_3_u05_r5_network.node[33].core_layer 	interests[33] 	13764
scalar tree_4_3_u05_r5_network.node[33].core_layer 	data[33] 	9620
scalar tree_4_3_u05_r5_network.node[33].content_store 	p_hit[33] 	0.30100261551874
scalar tree_4_3_u05_r5_network.node[33].content_store 	hits[33] 	4143
scalar tree_4_3_u05_r5_network.node[33].content_store 	misses[33] 	9621
scalar tree_4_3_u05_r5_network.node[33].content_store 	decision_yes[33] 	966
scalar tree_4_3_u05_r5_network.node[33].content_store 	decision_no[33] 	8654
scalar tree_4_3_u05_r5_network.node[33].content_store 	decision_ratio[33] 	0.1004158004158
scalar tree_4_3_u05_r5_network.node[34].core_layer 	interests[34] 	14387
scalar tree_4_3_u05_r5_network.node[34].core_layer 	data[34] 	9428
scalar tree_4_3_u05_r5_network.node[34].content_store 	p_hit[34] 	0.34468617501911
scalar tree_4_3_u05_r5_network.node[34].content_store 	hits[34] 	4959
scalar tree_4_3_u05_r5_network.node[34].content_store 	misses[34] 	9428
scalar tree_4_3_u05_r5_network.node[34].content_store 	decision_yes[34] 	958
scalar tree_4_3_u05_r5_network.node[34].content_store 	decision_no[34] 	8470
scalar tree_4_3_u05_r5_network.node[34].content_store 	decision_ratio[34] 	0.10161221892236
scalar tree_4_3_u05_r5_network.node[35].core_layer 	interests[35] 	12603
scalar tree_4_3_u05_r5_network.node[35].core_layer 	data[35] 	9470
scalar tree_4_3_u05_r5_network.node[35].content_store 	p_hit[35] 	0.24843291279854
scalar tree_4_3_u05_r5_network.node[35].content_store 	hits[35] 	3131
scalar tree_4_3_u05_r5_network.node[35].content_store 	misses[35] 	9472
scalar tree_4_3_u05_r5_network.node[35].content_store 	decision_yes[35] 	978
scalar tree_4_3_u05_r5_network.node[35].content_store 	decision_no[35] 	8492
scalar tree_4_3_u05_r5_network.node[35].content_store 	decision_ratio[35] 	0.10327349524815
scalar tree_4_3_u05_r5_network.node[36].core_layer 	interests[36] 	13601
scalar tree_4_3_u05_r5_network.node[36].core_layer 	data[36] 	9398
scalar tree_4_3_u05_r5_network.node[36].content_store 	p_hit[36] 	0.30902139548563
scalar tree_4_3_u05_r5_network.node[36].content_store 	hits[36] 	4203
scalar tree_4_3_u05_r5_network.node[36].content_store 	misses[36] 	9398
scalar tree_4_3_u05_r5_network.node[36].content_store 	decision_yes[36] 	926
scalar tree_4_3_u05_r5_network.node[36].content_store 	decision_no[36] 	8472
scalar tree_4_3_u05_r5_network.node[36].content_store 	decision_ratio[36] 	0.09853160246861
scalar tree_4_3_u05_r5_network.node[37].core_layer 	interests[37] 	13009
scalar tree_4_3_u05_r5_network.node[37].core_layer 	data[37] 	9613
scalar tree_4_3_u05_r5_network.node[37].content_store 	p_hit[37] 	0.26105004227842
scalar tree_4_3_u05_r5_network.node[37].content_store 	hits[37] 	3396
scalar tree_4_3_u05_r5_network.node[37].content_store 	misses[37] 	9613
scalar tree_4_3_u05_r5_network.node[37].content_store 	decision_yes[37] 	913
scalar tree_4_3_u05_r5_network.node[37].content_store 	decision_no[37] 	8700
scalar tree_4_3_u05_r5_network.node[37].content_store 	decision_ratio[37] 	0.094975553937376
scalar tree_4_3_u05_r5_network.node[38].core_layer 	interests[38] 	13057
scalar tree_4_3_u05_r5_network.node[38].core_layer 	data[38] 	9490
scalar tree_4_3_u05_r5_network.node[38].content_store 	p_hit[38] 	0.27318679635445
scalar tree_4_3_u05_r5_network.node[38].content_store 	hits[38] 	3567
scalar tree_4_3_u05_r5_network.node[38].content_store 	misses[38] 	9490
scalar tree_4_3_u05_r5_network.node[38].content_store 	decision_yes[38] 	937
scalar tree_4_3_u05_r5_network.node[38].content_store 	decision_no[38] 	8553
scalar tree_4_3_u05_r5_network.node[38].content_store 	decision_ratio[38] 	0.098735511064278
scalar tree_4_3_u05_r5_network.node[39].core_layer 	interests[39] 	12928
scalar tree_4_3_u05_r5_network.node[39].core_layer 	data[39] 	9454
scalar tree_4_3_u05_r5_network.node[39].content_store 	p_hit[39] 	0.26864170792079
scalar tree_4_3_u05_r5_network.node[39].content_store 	hits[39] 	3473
scalar tree_4_3_u05_r5_network.node[39].content_store 	misses[39] 	9455
scalar tree_4_3_u05_r5_network.node[39].content_store 	decision_yes[39] 	942
scalar tree_4_3_u05_r5_network.node[39].content_store 	decision_no[39] 	8512
scalar tree_4_3_u05_r5_network.node[39].content_store 	decision_ratio[39] 	0.099640363867146
scalar tree_4_3_u05_r5_network.client[13] 	hdistance[13] 	2.9398631308811
scalar tree_4_3_u05_r5_network.client[13] 	downloads[13] 	11690
scalar tree_4_3_u05_r5_network.client[13] 	avg_time[13] 	0.004670997909
scalar tree_4_3_u05_r5_network.client[14] 	hdistance[14] 	2.7888151817953
scalar tree_4_3_u05_r5_network.client[14] 	downloads[14] 	11909
scalar tree_4_3_u05_r5_network.client[14] 	avg_time[14] 	0.004455865257
scalar tree_4_3_u05_r5_network.client[15] 	hdistance[15] 	2.81598062954
scalar tree_4_3_u05_r5_network.client[15] 	downloads[15] 	11977
scalar tree_4_3_u05_r5_network.client[15] 	avg_time[15] 	0.004430154794
scalar tree_4_3_u05_r5_network.client[16] 	hdistance[16] 	2.8524136775059
scalar tree_4_3_u05_r5_network.client[16] 	downloads[16] 	11932
scalar tree_4_3_u05_r5_network.client[16] 	avg_time[16] 	0.004572940412
scalar tree_4_3_u05_r5_network.client[17] 	hdistance[17] 	2.8677133789878
scalar tree_4_3_u05_r5_network.client[17] 	downloads[17] 	11974
scalar tree_4_3_u05_r5_network.client[17] 	avg_time[17] 	0.004603304161
scalar tree_4_3_u05_r5_network.client[18] 	hdistance[18] 	2.8395072217502
scalar tree_4_3_u05_r5_network.client[18] 	downloads[18] 	11770
scalar tree_4_3_u05_r5_network.client[18] 	avg_time[18] 	0.004561726439
scalar tree_4_3_u05_r5_network.client[19] 	hdistance[19] 	2.7880466717032
scalar tree_4_3_u05_r5_network.client[19] 	downloads[19] 	11913
scalar tree_4_3_u05_r5_network.client[19] 	avg_time[19] 	0.004384120178
scalar tree_4_3_u05_r5_network.client[20] 	hdistance[20] 	2.767422334173
scalar tree_4_3_u05_r5_network.client[20] 	downloads[20] 	11910
scalar tree_4_3_u05_r5_network.client[20] 	avg_time[20] 	0.00440755368
scalar tree_4_3_u05_r5_network.client[21] 	hdistance[21] 	2.8713085433824
scalar tree_4_3_u05_r5_network.client[21] 	downloads[21] 	12021
scalar tree_4_3_u05_r5_network.client[21] 	avg_time[21] 	0.004537722623
scalar tree_4_3_u05_r5_network.client[22] 	hdistance[22] 	2.9249605710965
scalar tree_4_3_u05_r5_network.client[22] 	downloads[22] 	12047
scalar tree_4_3_u05_r5_network.client[22] 	avg_time[22] 	0.004657920114
scalar tree_4_3_u05_r5_network.client[23] 	hdistance[23] 	2.8984687083888
scalar tree_4_3_u05_r5_network.client[23] 	downloads[23] 	12016
scalar tree_4_3_u05_r5_network.client[23] 	avg_time[23] 	0.004609684079
scalar tree_4_3_u05_r5_network.client[24] 	hdistance[24] 	2.8252904757866
scalar tree_4_3_u05_r5_network.client[24] 	downloads[24] 	11791
scalar tree_4_3_u05_r5_network.client[24] 	avg_time[24] 	0.004520054719
scalar tree_4_3_u05_r5_network.client[25] 	hdistance[25] 	2.9228578607923
scalar tree_4_3_u05_r5_network.client[25] 	downloads[25] 	11939
scalar tree_4_3_u05_r5_network.client[25] 	avg_time[25] 	0.004641613592
scalar tree_4_3_u05_r5_network.client[26] 	hdistance[26] 	2.8925268682829
scalar tree_4_3_u05_r5_network.client[26] 	downloads[26] 	12003
scalar tree_4_3_u05_r5_network.client[26] 	avg_time[26] 	0.00458953323
scalar tree_4_3_u05_r5_network.client[27] 	hdistance[27] 	2.8003997002248
scalar tree_4_3_u05_r5_network.client[27] 	downloads[27] 	12009
scalar tree_4_3_u05_r5_network.client[27] 	avg_time[27] 	0.004472475989
scalar tree_4_3_u05_r5_network.client[28] 	hdistance[28] 	2.8150435739064
scalar tree_4_3_u05_r5_network.client[28] 	downloads[28] 	11819
scalar tree_4_3_u05_r5_network.client[28] 	avg_time[28] 	0.00451966877
scalar tree_4_3_u05_r5_network.client[29] 	hdistance[29] 	2.7592901183136
scalar tree_4_3_u05_r5_network.client[29] 	downloads[29] 	12002
scalar tree_4_3_u05_r5_network.client[29] 	avg_time[29] 	0.004402429949
scalar tree_4_3_u05_r5_network.client[30] 	hdistance[30] 	2.807610648375
scalar tree_4_3_u05_r5_network.client[30] 	downloads[30] 	12246
scalar tree_4_3_u05_r5_network.client[30] 	avg_time[30] 	0.004497302184
scalar tree_4_3_u05_r5_network.client[31] 	hdistance[31] 	2.8642780483778
scalar tree_4_3_u05_r5_network.client[31] 	downloads[31] 	12113
scalar tree_4_3_u05_r5_network.client[31] 	avg_time[31] 	0.004612642911
scalar tree_4_3_u05_r5_network.client[32] 	hdistance[32] 	2.8528896672505
scalar tree_4_3_u05_r5_network.client[32] 	downloads[32] 	11991
scalar tree_4_3_u05_r5_network.client[32] 	avg_time[32] 	0.004599613383
scalar tree_4_3_u05_r5_network.client[33] 	hdistance[33] 	2.8604554521277
scalar tree_4_3_u05_r5_network.client[33] 	downloads[33] 	12032
scalar tree_4_3_u05_r5_network.client[33] 	avg_time[33] 	0.004599654164
scalar tree_4_3_u05_r5_network.client[34] 	hdistance[34] 	2.7497087701781
scalar tree_4_3_u05_r5_network.client[34] 	downloads[34] 	12018
scalar tree_4_3_u05_r5_network.client[34] 	avg_time[34] 	0.004393406882
scalar tree_4_3_u05_r5_network.client[35] 	hdistance[35] 	2.9170871173898
scalar tree_4_3_u05_r5_network.client[35] 	downloads[35] 	11892
scalar tree_4_3_u05_r5_network.client[35] 	avg_time[35] 	0.004641592897
scalar tree_4_3_u05_r5_network.client[36] 	hdistance[36] 	2.8085852680808
scalar tree_4_3_u05_r5_network.client[36] 	downloads[36] 	11974
scalar tree_4_3_u05_r5_network.client[36] 	avg_time[36] 	0.004421744111
scalar tree_4_3_u05_r5_network.client[37] 	hdistance[37] 	2.8875082836316
scalar tree_4_3_u05_r5_network.client[37] 	downloads[37] 	12072
scalar tree_4_3_u05_r5_network.client[37] 	avg_time[37] 	0.004584987028
scalar tree_4_3_u05_r5_network.client[38] 	hdistance[38] 	2.8940783986655
scalar tree_4_3_u05_r5_network.client[38] 	downloads[38] 	11990
scalar tree_4_3_u05_r5_network.client[38] 	avg_time[38] 	0.004585476045
scalar tree_4_3_u05_r5_network.client[39] 	hdistance[39] 	2.908363513855
scalar tree_4_3_u05_r5_network.client[39] 	downloads[39] 	11873
scalar tree_4_3_u05_r5_network.client[39] 	avg_time[39] 	0.004613928235
