version 2
run General-114-20160819-08:42:17-13837
attr a 0.9
attr cd fix0.1
attr configname General
attr cr lru
attr datetime 20160819-08:42:17
attr experiment General
attr fsize 1
attr inifile hw5115/scenario_A/NRR-FIX0.1.ini
attr iterationvars "$name=tree_4_3, $un=05, $rep=15, $cd=fix0.1, $cr=lru, $fsize=1, $a=0.9, $sl=nrr, $ttl=1000, $variance=0.05"
attr iterationvars2 "$name=tree_4_3, $un=05, $rep=15, $cd=fix0.1, $cr=lru, $fsize=1, $a=0.9, $sl=nrr, $ttl=1000, $variance=0.05, $repetition=0"
attr measurement "$name=tree_4_3, $un=05, $rep=15, $cd=fix0.1, $cr=lru, $fsize=1, $a=0.9, $sl=nrr, $ttl=1000, $variance=0.05"
attr name tree_4_3
attr network networks.${name}_u${un}_r${rep}_network
attr processid 13837
attr rep 15
attr repetition 0
attr replication #0
attr resultdir results
attr runnumber 114
attr seedset 15
attr sl nrr
attr ttl 1000
attr un 05
attr variance 0.05

scalar . 	a 	0.9
scalar . 	fsize 	1
scalar . 	rep 	15
scalar . 	ttl 	1000
scalar . 	un 	05
scalar . 	variance 	0.05
scalar tree_4_3_u05_r15_network.content_distribution 	repo-0 	0
scalar tree_4_3_u05_r15_network.content_distribution 	client-0 	13
scalar tree_4_3_u05_r15_network.content_distribution 	client-1 	14
scalar tree_4_3_u05_r15_network.content_distribution 	client-2 	15
scalar tree_4_3_u05_r15_network.content_distribution 	client-3 	16
scalar tree_4_3_u05_r15_network.content_distribution 	client-4 	17
scalar tree_4_3_u05_r15_network.content_distribution 	client-5 	18
scalar tree_4_3_u05_r15_network.content_distribution 	client-6 	19
scalar tree_4_3_u05_r15_network.content_distribution 	client-7 	20
scalar tree_4_3_u05_r15_network.content_distribution 	client-8 	21
scalar tree_4_3_u05_r15_network.content_distribution 	client-9 	22
scalar tree_4_3_u05_r15_network.content_distribution 	client-10 	23
scalar tree_4_3_u05_r15_network.content_distribution 	client-11 	24
scalar tree_4_3_u05_r15_network.content_distribution 	client-12 	25
scalar tree_4_3_u05_r15_network.content_distribution 	client-13 	26
scalar tree_4_3_u05_r15_network.content_distribution 	client-14 	27
scalar tree_4_3_u05_r15_network.content_distribution 	client-15 	28
scalar tree_4_3_u05_r15_network.content_distribution 	client-16 	29
scalar tree_4_3_u05_r15_network.content_distribution 	client-17 	30
scalar tree_4_3_u05_r15_network.content_distribution 	client-18 	31
scalar tree_4_3_u05_r15_network.content_distribution 	client-19 	32
scalar tree_4_3_u05_r15_network.content_distribution 	client-20 	33
scalar tree_4_3_u05_r15_network.content_distribution 	client-21 	34
scalar tree_4_3_u05_r15_network.content_distribution 	client-22 	35
scalar tree_4_3_u05_r15_network.content_distribution 	client-23 	36
scalar tree_4_3_u05_r15_network.content_distribution 	client-24 	37
scalar tree_4_3_u05_r15_network.content_distribution 	client-25 	38
scalar tree_4_3_u05_r15_network.content_distribution 	client-26 	39
scalar tree_4_3_u05_r15_network.content_distribution 	repo-0_card 	100000
scalar tree_4_3_u05_r15_network.content_distribution 	repo-0_price 	0
scalar tree_4_3_u05_r15_network.statistics 	stabilization_time 	830.1
scalar tree_4_3_u05_r15_network.statistics 	p_hit 	0.2219308407996
scalar tree_4_3_u05_r15_network.statistics 	interests 	26699.175
scalar tree_4_3_u05_r15_network.statistics 	data 	18568.025
scalar tree_4_3_u05_r15_network.statistics 	hdistance 	2.845032743584
scalar tree_4_3_u05_r15_network.statistics 	avg_time 	0.004567323957
scalar tree_4_3_u05_r15_network.statistics 	downloads 	325231
scalar tree_4_3_u05_r15_network.statistics 	total_cost 	0
scalar tree_4_3_u05_r15_network.statistics 	total_replicas 	100000
scalar tree_4_3_u05_r15_network.statistics 	inner_hit 	0.43865129707808
scalar tree_4_3_u05_r15_network.node[0].core_layer 	interests[0] 	183534
scalar tree_4_3_u05_r15_network.node[0].core_layer 	repo_load[0] 	182568
scalar tree_4_3_u05_r15_network.node[0].core_layer 	data[0] 	0
scalar tree_4_3_u05_r15_network.node[0].core_layer 	repo_int[0] 	182568
scalar tree_4_3_u05_r15_network.node[0].content_store 	p_hit[0] 	0.0052633299552127
scalar tree_4_3_u05_r15_network.node[0].content_store 	hits[0] 	966
scalar tree_4_3_u05_r15_network.node[0].content_store 	misses[0] 	182568
scalar tree_4_3_u05_r15_network.node[0].content_store 	decision_yes[0] 	18384
scalar tree_4_3_u05_r15_network.node[0].content_store 	decision_no[0] 	164184
scalar tree_4_3_u05_r15_network.node[0].content_store 	decision_ratio[0] 	0.10069672669909
scalar tree_4_3_u05_r15_network.node[1].core_layer 	interests[1] 	114820
scalar tree_4_3_u05_r15_network.node[1].core_layer 	data[1] 	113695
scalar tree_4_3_u05_r15_network.node[1].content_store 	p_hit[1] 	0.0097631074725658
scalar tree_4_3_u05_r15_network.node[1].content_store 	hits[1] 	1121
scalar tree_4_3_u05_r15_network.node[1].content_store 	misses[1] 	113699
scalar tree_4_3_u05_r15_network.node[1].content_store 	decision_yes[1] 	11261
scalar tree_4_3_u05_r15_network.node[1].content_store 	decision_no[1] 	102433
scalar tree_4_3_u05_r15_network.node[1].content_store 	decision_ratio[1] 	0.099046563582951
scalar tree_4_3_u05_r15_network.node[2].core_layer 	interests[2] 	76406
scalar tree_4_3_u05_r15_network.node[2].core_layer 	data[2] 	74614
scalar tree_4_3_u05_r15_network.node[2].content_store 	p_hit[2] 	0.023414391539931
scalar tree_4_3_u05_r15_network.node[2].content_store 	hits[2] 	1789
scalar tree_4_3_u05_r15_network.node[2].content_store 	misses[2] 	74617
scalar tree_4_3_u05_r15_network.node[2].content_store 	decision_yes[2] 	7406
scalar tree_4_3_u05_r15_network.node[2].content_store 	decision_no[2] 	67208
scalar tree_4_3_u05_r15_network.node[2].content_store 	decision_ratio[2] 	0.099257511995068
scalar tree_4_3_u05_r15_network.node[3].core_layer 	interests[3] 	33985
scalar tree_4_3_u05_r15_network.node[3].core_layer 	data[3] 	30884
scalar tree_4_3_u05_r15_network.node[3].content_store 	p_hit[3] 	0.09124613800206
scalar tree_4_3_u05_r15_network.node[3].content_store 	hits[3] 	3101
scalar tree_4_3_u05_r15_network.node[3].content_store 	misses[3] 	30884
scalar tree_4_3_u05_r15_network.node[3].content_store 	decision_yes[3] 	3067
scalar tree_4_3_u05_r15_network.node[3].content_store 	decision_no[3] 	27817
scalar tree_4_3_u05_r15_network.node[3].content_store 	decision_ratio[3] 	0.099307084574537
scalar tree_4_3_u05_r15_network.node[4].core_layer 	interests[4] 	28965
scalar tree_4_3_u05_r15_network.node[4].core_layer 	data[4] 	27059
scalar tree_4_3_u05_r15_network.node[4].content_store 	p_hit[4] 	0.065803556015881
scalar tree_4_3_u05_r15_network.node[4].content_store 	hits[4] 	1906
scalar tree_4_3_u05_r15_network.node[4].content_store 	misses[4] 	27059
scalar tree_4_3_u05_r15_network.node[4].content_store 	decision_yes[4] 	2627
scalar tree_4_3_u05_r15_network.node[4].content_store 	decision_no[4] 	24432
scalar tree_4_3_u05_r15_network.node[4].content_store 	decision_ratio[4] 	0.097084149451199
scalar tree_4_3_u05_r15_network.node[5].core_layer 	interests[5] 	44865
scalar tree_4_3_u05_r15_network.node[5].core_layer 	data[5] 	40794
scalar tree_4_3_u05_r15_network.node[5].content_store 	p_hit[5] 	0.090649726958654
scalar tree_4_3_u05_r15_network.node[5].content_store 	hits[5] 	4067
scalar tree_4_3_u05_r15_network.node[5].content_store 	misses[5] 	40798
scalar tree_4_3_u05_r15_network.node[5].content_store 	decision_yes[5] 	4111
scalar tree_4_3_u05_r15_network.node[5].content_store 	decision_no[5] 	36683
scalar tree_4_3_u05_r15_network.node[5].content_store 	decision_ratio[5] 	0.10077462371917
scalar tree_4_3_u05_r15_network.node[6].core_layer 	interests[6] 	24407
scalar tree_4_3_u05_r15_network.node[6].core_layer 	data[6] 	20412
scalar tree_4_3_u05_r15_network.node[6].content_store 	p_hit[6] 	0.16364157823575
scalar tree_4_3_u05_r15_network.node[6].content_store 	hits[6] 	3994
scalar tree_4_3_u05_r15_network.node[6].content_store 	misses[6] 	20413
scalar tree_4_3_u05_r15_network.node[6].content_store 	decision_yes[6] 	1966
scalar tree_4_3_u05_r15_network.node[6].content_store 	decision_no[6] 	18446
scalar tree_4_3_u05_r15_network.node[6].content_store 	decision_ratio[6] 	0.096315892612189
scalar tree_4_3_u05_r15_network.node[7].core_layer 	interests[7] 	32297
scalar tree_4_3_u05_r15_network.node[7].core_layer 	data[7] 	28737
scalar tree_4_3_u05_r15_network.node[7].content_store 	p_hit[7] 	0.11022695606403
scalar tree_4_3_u05_r15_network.node[7].content_store 	hits[7] 	3560
scalar tree_4_3_u05_r15_network.node[7].content_store 	misses[7] 	28737
scalar tree_4_3_u05_r15_network.node[7].content_store 	decision_yes[7] 	2927
scalar tree_4_3_u05_r15_network.node[7].content_store 	decision_no[7] 	25810
scalar tree_4_3_u05_r15_network.node[7].content_store 	decision_ratio[7] 	0.10185475171382
scalar tree_4_3_u05_r15_network.node[8].core_layer 	interests[8] 	39397
scalar tree_4_3_u05_r15_network.node[8].core_layer 	data[8] 	36981
scalar tree_4_3_u05_r15_network.node[8].content_store 	p_hit[8] 	0.061324466329924
scalar tree_4_3_u05_r15_network.node[8].content_store 	hits[8] 	2416
scalar tree_4_3_u05_r15_network.node[8].content_store 	misses[8] 	36981
scalar tree_4_3_u05_r15_network.node[8].content_store 	decision_yes[8] 	3723
scalar tree_4_3_u05_r15_network.node[8].content_store 	decision_no[8] 	33258
scalar tree_4_3_u05_r15_network.node[8].content_store 	decision_ratio[8] 	0.10067331873124
scalar tree_4_3_u05_r15_network.node[9].core_layer 	interests[9] 	26936
scalar tree_4_3_u05_r15_network.node[9].core_layer 	data[9] 	22423
scalar tree_4_3_u05_r15_network.node[9].content_store 	p_hit[9] 	0.16754529254529
scalar tree_4_3_u05_r15_network.node[9].content_store 	hits[9] 	4513
scalar tree_4_3_u05_r15_network.node[9].content_store 	misses[9] 	22423
scalar tree_4_3_u05_r15_network.node[9].content_store 	decision_yes[9] 	2300
scalar tree_4_3_u05_r15_network.node[9].content_store 	decision_no[9] 	20123
scalar tree_4_3_u05_r15_network.node[9].content_store 	decision_ratio[9] 	0.10257325068011
scalar tree_4_3_u05_r15_network.node[10].core_layer 	interests[10] 	32087
scalar tree_4_3_u05_r15_network.node[10].core_layer 	data[10] 	28923
scalar tree_4_3_u05_r15_network.node[10].content_store 	p_hit[10] 	0.098606912456758
scalar tree_4_3_u05_r15_network.node[10].content_store 	hits[10] 	3164
scalar tree_4_3_u05_r15_network.node[10].content_store 	misses[10] 	28923
scalar tree_4_3_u05_r15_network.node[10].content_store 	decision_yes[10] 	2924
scalar tree_4_3_u05_r15_network.node[10].content_store 	decision_no[10] 	25999
scalar tree_4_3_u05_r15_network.node[10].content_store 	decision_ratio[10] 	0.10109601355323
scalar tree_4_3_u05_r15_network.node[11].core_layer 	interests[11] 	32677
scalar tree_4_3_u05_r15_network.node[11].core_layer 	data[11] 	29300
scalar tree_4_3_u05_r15_network.node[11].content_store 	p_hit[11] 	0.1033142577348
scalar tree_4_3_u05_r15_network.node[11].content_store 	hits[11] 	3376
scalar tree_4_3_u05_r15_network.node[11].content_store 	misses[11] 	29301
scalar tree_4_3_u05_r15_network.node[11].content_store 	decision_yes[11] 	3036
scalar tree_4_3_u05_r15_network.node[11].content_store 	decision_no[11] 	26264
scalar tree_4_3_u05_r15_network.node[11].content_store 	decision_ratio[11] 	0.10361774744027
scalar tree_4_3_u05_r15_network.node[12].core_layer 	interests[12] 	32981
scalar tree_4_3_u05_r15_network.node[12].core_layer 	data[12] 	29952
scalar tree_4_3_u05_r15_network.node[12].content_store 	p_hit[12] 	0.091749795336709
scalar tree_4_3_u05_r15_network.node[12].content_store 	hits[12] 	3026
scalar tree_4_3_u05_r15_network.node[12].content_store 	misses[12] 	29955
scalar tree_4_3_u05_r15_network.node[12].content_store 	decision_yes[12] 	2977
scalar tree_4_3_u05_r15_network.node[12].content_store 	decision_no[12] 	26975
scalar tree_4_3_u05_r15_network.node[12].content_store 	decision_ratio[12] 	0.099392361111111
scalar tree_4_3_u05_r15_network.node[13].core_layer 	interests[13] 	13077
scalar tree_4_3_u05_r15_network.node[13].core_layer 	data[13] 	9639
scalar tree_4_3_u05_r15_network.node[13].content_store 	p_hit[13] 	0.26282786571844
scalar tree_4_3_u05_r15_network.node[13].content_store 	hits[13] 	3437
scalar tree_4_3_u05_r15_network.node[13].content_store 	misses[13] 	9640
scalar tree_4_3_u05_r15_network.node[13].content_store 	decision_yes[13] 	927
scalar tree_4_3_u05_r15_network.node[13].content_store 	decision_no[13] 	8712
scalar tree_4_3_u05_r15_network.node[13].content_store 	decision_ratio[13] 	0.096171802054155
scalar tree_4_3_u05_r15_network.node[14].core_layer 	interests[14] 	14307
scalar tree_4_3_u05_r15_network.node[14].core_layer 	data[14] 	9470
scalar tree_4_3_u05_r15_network.node[14].content_store 	p_hit[14] 	0.33808625148529
scalar tree_4_3_u05_r15_network.node[14].content_store 	hits[14] 	4837
scalar tree_4_3_u05_r15_network.node[14].content_store 	misses[14] 	9470
scalar tree_4_3_u05_r15_network.node[14].content_store 	decision_yes[14] 	903
scalar tree_4_3_u05_r15_network.node[14].content_store 	decision_no[14] 	8567
scalar tree_4_3_u05_r15_network.node[14].content_store 	decision_ratio[14] 	0.095353748680042
scalar tree_4_3_u05_r15_network.node[15].core_layer 	interests[15] 	12752
scalar tree_4_3_u05_r15_network.node[15].core_layer 	data[15] 	9478
scalar tree_4_3_u05_r15_network.node[15].content_store 	p_hit[15] 	0.25674404015056
scalar tree_4_3_u05_r15_network.node[15].content_store 	hits[15] 	3274
scalar tree_4_3_u05_r15_network.node[15].content_store 	misses[15] 	9478
scalar tree_4_3_u05_r15_network.node[15].content_store 	decision_yes[15] 	918
scalar tree_4_3_u05_r15_network.node[15].content_store 	decision_no[15] 	8560
scalar tree_4_3_u05_r15_network.node[15].content_store 	decision_ratio[15] 	0.09685587676725
scalar tree_4_3_u05_r15_network.node[16].core_layer 	interests[16] 	13527
scalar tree_4_3_u05_r15_network.node[16].core_layer 	data[16] 	9571
scalar tree_4_3_u05_r15_network.node[16].content_store 	p_hit[16] 	0.29245213277149
scalar tree_4_3_u05_r15_network.node[16].content_store 	hits[16] 	3956
scalar tree_4_3_u05_r15_network.node[16].content_store 	misses[16] 	9571
scalar tree_4_3_u05_r15_network.node[16].content_store 	decision_yes[16] 	940
scalar tree_4_3_u05_r15_network.node[16].content_store 	decision_no[16] 	8631
scalar tree_4_3_u05_r15_network.node[16].content_store 	decision_ratio[16] 	0.098213352836694
scalar tree_4_3_u05_r15_network.node[17].core_layer 	interests[17] 	13581
scalar tree_4_3_u05_r15_network.node[17].core_layer 	data[17] 	9617
scalar tree_4_3_u05_r15_network.node[17].content_store 	p_hit[17] 	0.2918047271924
scalar tree_4_3_u05_r15_network.node[17].content_store 	hits[17] 	3963
scalar tree_4_3_u05_r15_network.node[17].content_store 	misses[17] 	9618
scalar tree_4_3_u05_r15_network.node[17].content_store 	decision_yes[17] 	976
scalar tree_4_3_u05_r15_network.node[17].content_store 	decision_no[17] 	8641
scalar tree_4_3_u05_r15_network.node[17].content_store 	decision_ratio[17] 	0.10148695019237
scalar tree_4_3_u05_r15_network.node[18].core_layer 	interests[18] 	13665
scalar tree_4_3_u05_r15_network.node[18].core_layer 	data[18] 	9581
scalar tree_4_3_u05_r15_network.node[18].content_store 	p_hit[18] 	0.29871935601903
scalar tree_4_3_u05_r15_network.node[18].content_store 	hits[18] 	4082
scalar tree_4_3_u05_r15_network.node[18].content_store 	misses[18] 	9583
scalar tree_4_3_u05_r15_network.node[18].content_store 	decision_yes[18] 	964
scalar tree_4_3_u05_r15_network.node[18].content_store 	decision_no[18] 	8617
scalar tree_4_3_u05_r15_network.node[18].content_store 	decision_ratio[18] 	0.10061580210834
scalar tree_4_3_u05_r15_network.node[19].core_layer 	interests[19] 	13194
scalar tree_4_3_u05_r15_network.node[19].core_layer 	data[19] 	9669
scalar tree_4_3_u05_r15_network.node[19].content_store 	p_hit[19] 	0.26709110201607
scalar tree_4_3_u05_r15_network.node[19].content_store 	hits[19] 	3524
scalar tree_4_3_u05_r15_network.node[19].content_store 	misses[19] 	9670
scalar tree_4_3_u05_r15_network.node[19].content_store 	decision_yes[19] 	974
scalar tree_4_3_u05_r15_network.node[19].content_store 	decision_no[19] 	8695
scalar tree_4_3_u05_r15_network.node[19].content_store 	decision_ratio[19] 	0.10073430551246
scalar tree_4_3_u05_r15_network.node[20].core_layer 	interests[20] 	14677
scalar tree_4_3_u05_r15_network.node[20].core_layer 	data[20] 	9518
scalar tree_4_3_u05_r15_network.node[20].content_store 	p_hit[20] 	0.35150235061661
scalar tree_4_3_u05_r15_network.node[20].content_store 	hits[20] 	5159
scalar tree_4_3_u05_r15_network.node[20].content_store 	misses[20] 	9518
scalar tree_4_3_u05_r15_network.node[20].content_store 	decision_yes[20] 	931
scalar tree_4_3_u05_r15_network.node[20].content_store 	decision_no[20] 	8587
scalar tree_4_3_u05_r15_network.node[20].content_store 	decision_ratio[20] 	0.097814666946838
scalar tree_4_3_u05_r15_network.node[21].core_layer 	interests[21] 	13019
scalar tree_4_3_u05_r15_network.node[21].core_layer 	data[21] 	9420
scalar tree_4_3_u05_r15_network.node[21].content_store 	p_hit[21] 	0.27644212305093
scalar tree_4_3_u05_r15_network.node[21].content_store 	hits[21] 	3599
scalar tree_4_3_u05_r15_network.node[21].content_store 	misses[21] 	9420
scalar tree_4_3_u05_r15_network.node[21].content_store 	decision_yes[21] 	978
scalar tree_4_3_u05_r15_network.node[21].content_store 	decision_no[21] 	8442
scalar tree_4_3_u05_r15_network.node[21].content_store 	decision_ratio[21] 	0.10382165605096
scalar tree_4_3_u05_r15_network.node[22].core_layer 	interests[22] 	13224
scalar tree_4_3_u05_r15_network.node[22].core_layer 	data[22] 	9400
scalar tree_4_3_u05_r15_network.node[22].content_store 	p_hit[22] 	0.28917120387175
scalar tree_4_3_u05_r15_network.node[22].content_store 	hits[22] 	3824
scalar tree_4_3_u05_r15_network.node[22].content_store 	misses[22] 	9400
scalar tree_4_3_u05_r15_network.node[22].content_store 	decision_yes[22] 	937
scalar tree_4_3_u05_r15_network.node[22].content_store 	decision_no[22] 	8463
scalar tree_4_3_u05_r15_network.node[22].content_store 	decision_ratio[22] 	0.09968085106383
scalar tree_4_3_u05_r15_network.node[23].core_layer 	interests[23] 	13463
scalar tree_4_3_u05_r15_network.node[23].core_layer 	data[23] 	9643
scalar tree_4_3_u05_r15_network.node[23].content_store 	p_hit[23] 	0.28374062244671
scalar tree_4_3_u05_r15_network.node[23].content_store 	hits[23] 	3820
scalar tree_4_3_u05_r15_network.node[23].content_store 	misses[23] 	9643
scalar tree_4_3_u05_r15_network.node[23].content_store 	decision_yes[23] 	963
scalar tree_4_3_u05_r15_network.node[23].content_store 	decision_no[23] 	8680
scalar tree_4_3_u05_r15_network.node[23].content_store 	decision_ratio[23] 	0.099865187182412
scalar tree_4_3_u05_r15_network.node[24].core_layer 	interests[24] 	14310
scalar tree_4_3_u05_r15_network.node[24].core_layer 	data[24] 	9612
scalar tree_4_3_u05_r15_network.node[24].content_store 	p_hit[24] 	0.32830188679245
scalar tree_4_3_u05_r15_network.node[24].content_store 	hits[24] 	4698
scalar tree_4_3_u05_r15_network.node[24].content_store 	misses[24] 	9612
scalar tree_4_3_u05_r15_network.node[24].content_store 	decision_yes[24] 	935
scalar tree_4_3_u05_r15_network.node[24].content_store 	decision_no[24] 	8677
scalar tree_4_3_u05_r15_network.node[24].content_store 	decision_ratio[24] 	0.097274240532668
scalar tree_4_3_u05_r15_network.node[25].core_layer 	interests[25] 	13123
scalar tree_4_3_u05_r15_network.node[25].core_layer 	data[25] 	9621
scalar tree_4_3_u05_r15_network.node[25].content_store 	p_hit[25] 	0.26685971195611
scalar tree_4_3_u05_r15_network.node[25].content_store 	hits[25] 	3502
scalar tree_4_3_u05_r15_network.node[25].content_store 	misses[25] 	9621
scalar tree_4_3_u05_r15_network.node[25].content_store 	decision_yes[25] 	989
scalar tree_4_3_u05_r15_network.node[25].content_store 	decision_no[25] 	8632
scalar tree_4_3_u05_r15_network.node[25].content_store 	decision_ratio[25] 	0.10279596715518
scalar tree_4_3_u05_r15_network.node[26].core_layer 	interests[26] 	13098
scalar tree_4_3_u05_r15_network.node[26].core_layer 	data[26] 	9619
scalar tree_4_3_u05_r15_network.node[26].content_store 	p_hit[26] 	0.26561307069782
scalar tree_4_3_u05_r15_network.node[26].content_store 	hits[26] 	3479
scalar tree_4_3_u05_r15_network.node[26].content_store 	misses[26] 	9619
scalar tree_4_3_u05_r15_network.node[26].content_store 	decision_yes[26] 	932
scalar tree_4_3_u05_r15_network.node[26].content_store 	decision_no[26] 	8687
scalar tree_4_3_u05_r15_network.node[26].content_store 	decision_ratio[26] 	0.096891568770142
scalar tree_4_3_u05_r15_network.node[27].core_layer 	interests[27] 	13084
scalar tree_4_3_u05_r15_network.node[27].core_layer 	data[27] 	9589
scalar tree_4_3_u05_r15_network.node[27].content_store 	p_hit[27] 	0.26712014674411
scalar tree_4_3_u05_r15_network.node[27].content_store 	hits[27] 	3495
scalar tree_4_3_u05_r15_network.node[27].content_store 	misses[27] 	9589
scalar tree_4_3_u05_r15_network.node[27].content_store 	decision_yes[27] 	951
scalar tree_4_3_u05_r15_network.node[27].content_store 	decision_no[27] 	8638
scalar tree_4_3_u05_r15_network.node[27].content_store 	decision_ratio[27] 	0.099176139326311
scalar tree_4_3_u05_r15_network.node[28].core_layer 	interests[28] 	13404
scalar tree_4_3_u05_r15_network.node[28].core_layer 	data[28] 	9630
scalar tree_4_3_u05_r15_network.node[28].content_store 	p_hit[28] 	0.28155774395703
scalar tree_4_3_u05_r15_network.node[28].content_store 	hits[28] 	3774
scalar tree_4_3_u05_r15_network.node[28].content_store 	misses[28] 	9630
scalar tree_4_3_u05_r15_network.node[28].content_store 	decision_yes[28] 	973
scalar tree_4_3_u05_r15_network.node[28].content_store 	decision_no[28] 	8657
scalar tree_4_3_u05_r15_network.node[28].content_store 	decision_ratio[28] 	0.10103842159917
scalar tree_4_3_u05_r15_network.node[29].core_layer 	interests[29] 	14315
scalar tree_4_3_u05_r15_network.node[29].core_layer 	data[29] 	9430
scalar tree_4_3_u05_r15_network.node[29].content_store 	p_hit[29] 	0.34125043660496
scalar tree_4_3_u05_r15_network.node[29].content_store 	hits[29] 	4885
scalar tree_4_3_u05_r15_network.node[29].content_store 	misses[29] 	9430
scalar tree_4_3_u05_r15_network.node[29].content_store 	decision_yes[29] 	918
scalar tree_4_3_u05_r15_network.node[29].content_store 	decision_no[29] 	8512
scalar tree_4_3_u05_r15_network.node[29].content_store 	decision_ratio[29] 	0.097348886532344
scalar tree_4_3_u05_r15_network.node[30].core_layer 	interests[30] 	13322
scalar tree_4_3_u05_r15_network.node[30].core_layer 	data[30] 	9798
scalar tree_4_3_u05_r15_network.node[30].content_store 	p_hit[30] 	0.2645248461192
scalar tree_4_3_u05_r15_network.node[30].content_store 	hits[30] 	3524
scalar tree_4_3_u05_r15_network.node[30].content_store 	misses[30] 	9798
scalar tree_4_3_u05_r15_network.node[30].content_store 	decision_yes[30] 	940
scalar tree_4_3_u05_r15_network.node[30].content_store 	decision_no[30] 	8858
scalar tree_4_3_u05_r15_network.node[30].content_store 	decision_ratio[30] 	0.095937946519698
scalar tree_4_3_u05_r15_network.node[31].core_layer 	interests[31] 	13233
scalar tree_4_3_u05_r15_network.node[31].core_layer 	data[31] 	9583
scalar tree_4_3_u05_r15_network.node[31].content_store 	p_hit[31] 	0.27582558754629
scalar tree_4_3_u05_r15_network.node[31].content_store 	hits[31] 	3650
scalar tree_4_3_u05_r15_network.node[31].content_store 	misses[31] 	9583
scalar tree_4_3_u05_r15_network.node[31].content_store 	decision_yes[31] 	957
scalar tree_4_3_u05_r15_network.node[31].content_store 	decision_no[31] 	8626
scalar tree_4_3_u05_r15_network.node[31].content_store 	decision_ratio[31] 	0.099864343107586
scalar tree_4_3_u05_r15_network.node[32].core_layer 	interests[32] 	13207
scalar tree_4_3_u05_r15_network.node[32].core_layer 	data[32] 	9629
scalar tree_4_3_u05_r15_network.node[32].content_store 	p_hit[32] 	0.27091693798743
scalar tree_4_3_u05_r15_network.node[32].content_store 	hits[32] 	3578
scalar tree_4_3_u05_r15_network.node[32].content_store 	misses[32] 	9629
scalar tree_4_3_u05_r15_network.node[32].content_store 	decision_yes[32] 	970
scalar tree_4_3_u05_r15_network.node[32].content_store 	decision_no[32] 	8659
scalar tree_4_3_u05_r15_network.node[32].content_store 	decision_ratio[32] 	0.10073735590404
scalar tree_4_3_u05_r15_network.node[33].core_layer 	interests[33] 	14342
scalar tree_4_3_u05_r15_network.node[33].core_layer 	data[33] 	9499
scalar tree_4_3_u05_r15_network.node[33].content_store 	p_hit[33] 	0.33767954260215
scalar tree_4_3_u05_r15_network.node[33].content_store 	hits[33] 	4843
scalar tree_4_3_u05_r15_network.node[33].content_store 	misses[33] 	9499
scalar tree_4_3_u05_r15_network.node[33].content_store 	decision_yes[33] 	919
scalar tree_4_3_u05_r15_network.node[33].content_store 	decision_no[33] 	8580
scalar tree_4_3_u05_r15_network.node[33].content_store 	decision_ratio[33] 	0.096747026002737
scalar tree_4_3_u05_r15_network.node[34].core_layer 	interests[34] 	13340
scalar tree_4_3_u05_r15_network.node[34].core_layer 	data[34] 	9641
scalar tree_4_3_u05_r15_network.node[34].content_store 	p_hit[34] 	0.27721139430285
scalar tree_4_3_u05_r15_network.node[34].content_store 	hits[34] 	3698
scalar tree_4_3_u05_r15_network.node[34].content_store 	misses[34] 	9642
scalar tree_4_3_u05_r15_network.node[34].content_store 	decision_yes[34] 	977
scalar tree_4_3_u05_r15_network.node[34].content_store 	decision_no[34] 	8664
scalar tree_4_3_u05_r15_network.node[34].content_store 	decision_ratio[34] 	0.1013380354735
scalar tree_4_3_u05_r15_network.node[35].core_layer 	interests[35] 	13403
scalar tree_4_3_u05_r15_network.node[35].core_layer 	data[35] 	9716
scalar tree_4_3_u05_r15_network.node[35].content_store 	p_hit[35] 	0.27508766694024
scalar tree_4_3_u05_r15_network.node[35].content_store 	hits[35] 	3687
scalar tree_4_3_u05_r15_network.node[35].content_store 	misses[35] 	9716
scalar tree_4_3_u05_r15_network.node[35].content_store 	decision_yes[35] 	983
scalar tree_4_3_u05_r15_network.node[35].content_store 	decision_no[35] 	8733
scalar tree_4_3_u05_r15_network.node[35].content_store 	decision_ratio[35] 	0.10117332235488
scalar tree_4_3_u05_r15_network.node[36].core_layer 	interests[36] 	14536
scalar tree_4_3_u05_r15_network.node[36].core_layer 	data[36] 	9637
scalar tree_4_3_u05_r15_network.node[36].content_store 	p_hit[36] 	0.3370253164557
scalar tree_4_3_u05_r15_network.node[36].content_store 	hits[36] 	4899
scalar tree_4_3_u05_r15_network.node[36].content_store 	misses[36] 	9637
scalar tree_4_3_u05_r15_network.node[36].content_store 	decision_yes[36] 	908
scalar tree_4_3_u05_r15_network.node[36].content_store 	decision_no[36] 	8729
scalar tree_4_3_u05_r15_network.node[36].content_store 	decision_ratio[36] 	0.094220193006122
scalar tree_4_3_u05_r15_network.node[37].core_layer 	interests[37] 	13020
scalar tree_4_3_u05_r15_network.node[37].core_layer 	data[37] 	9488
scalar tree_4_3_u05_r15_network.node[37].content_store 	p_hit[37] 	0.27127496159754
scalar tree_4_3_u05_r15_network.node[37].content_store 	hits[37] 	3532
scalar tree_4_3_u05_r15_network.node[37].content_store 	misses[37] 	9488
scalar tree_4_3_u05_r15_network.node[37].content_store 	decision_yes[37] 	945
scalar tree_4_3_u05_r15_network.node[37].content_store 	decision_no[37] 	8543
scalar tree_4_3_u05_r15_network.node[37].content_store 	decision_ratio[37] 	0.099599494097808
scalar tree_4_3_u05_r15_network.node[38].core_layer 	interests[38] 	13230
scalar tree_4_3_u05_r15_network.node[38].core_layer 	data[38] 	9723
scalar tree_4_3_u05_r15_network.node[38].content_store 	p_hit[38] 	0.26507936507937
scalar tree_4_3_u05_r15_network.node[38].content_store 	hits[38] 	3507
scalar tree_4_3_u05_r15_network.node[38].content_store 	misses[38] 	9723
scalar tree_4_3_u05_r15_network.node[38].content_store 	decision_yes[38] 	984
scalar tree_4_3_u05_r15_network.node[38].content_store 	decision_no[38] 	8739
scalar tree_4_3_u05_r15_network.node[38].content_store 	decision_ratio[38] 	0.10120333230484
scalar tree_4_3_u05_r15_network.node[39].core_layer 	interests[39] 	13157
scalar tree_4_3_u05_r15_network.node[39].core_layer 	data[39] 	9726
scalar tree_4_3_u05_r15_network.node[39].content_store 	p_hit[39] 	0.26077373261382
scalar tree_4_3_u05_r15_network.node[39].content_store 	hits[39] 	3431
scalar tree_4_3_u05_r15_network.node[39].content_store 	misses[39] 	9726
scalar tree_4_3_u05_r15_network.node[39].content_store 	decision_yes[39] 	939
scalar tree_4_3_u05_r15_network.node[39].content_store 	decision_no[39] 	8787
scalar tree_4_3_u05_r15_network.node[39].content_store 	decision_ratio[39] 	0.096545342381246
scalar tree_4_3_u05_r15_network.client[13] 	hdistance[13] 	2.9112896613921
scalar tree_4_3_u05_r15_network.client[13] 	downloads[13] 	12197
scalar tree_4_3_u05_r15_network.client[13] 	avg_time[13] 	0.004636496209
scalar tree_4_3_u05_r15_network.client[14] 	hdistance[14] 	2.7903537517856
scalar tree_4_3_u05_r15_network.client[14] 	downloads[14] 	11901
scalar tree_4_3_u05_r15_network.client[14] 	avg_time[14] 	0.00447373871
scalar tree_4_3_u05_r15_network.client[15] 	hdistance[15] 	2.8988359433883
scalar tree_4_3_u05_r15_network.client[15] 	downloads[15] 	11941
scalar tree_4_3_u05_r15_network.client[15] 	avg_time[15] 	0.004621887962
scalar tree_4_3_u05_r15_network.client[16] 	hdistance[16] 	2.8302012306669
scalar tree_4_3_u05_r15_network.client[16] 	downloads[16] 	12026
scalar tree_4_3_u05_r15_network.client[16] 	avg_time[16] 	0.004548877978
scalar tree_4_3_u05_r15_network.client[17] 	hdistance[17] 	2.8573103332775
scalar tree_4_3_u05_r15_network.client[17] 	downloads[17] 	11942
scalar tree_4_3_u05_r15_network.client[17] 	avg_time[17] 	0.004602703858
scalar tree_4_3_u05_r15_network.client[18] 	hdistance[18] 	2.8356027897708
scalar tree_4_3_u05_r15_network.client[18] 	downloads[18] 	12044
scalar tree_4_3_u05_r15_network.client[18] 	avg_time[18] 	0.004560109937
scalar tree_4_3_u05_r15_network.client[19] 	hdistance[19] 	2.8505180069068
scalar tree_4_3_u05_r15_network.client[19] 	downloads[19] 	12162
scalar tree_4_3_u05_r15_network.client[19] 	avg_time[19] 	0.004605055753
scalar tree_4_3_u05_r15_network.client[20] 	hdistance[20] 	2.7404421542553
scalar tree_4_3_u05_r15_network.client[20] 	downloads[20] 	12032
scalar tree_4_3_u05_r15_network.client[20] 	avg_time[20] 	0.004400096751
scalar tree_4_3_u05_r15_network.client[21] 	hdistance[21] 	2.8640302902819
scalar tree_4_3_u05_r15_network.client[21] 	downloads[21] 	11885
scalar tree_4_3_u05_r15_network.client[21] 	avg_time[21] 	0.004619970715
scalar tree_4_3_u05_r15_network.client[22] 	hdistance[22] 	2.8484492875105
scalar tree_4_3_u05_r15_network.client[22] 	downloads[22] 	11930
scalar tree_4_3_u05_r15_network.client[22] 	avg_time[22] 	0.004599661744
scalar tree_4_3_u05_r15_network.client[23] 	hdistance[23] 	2.859427540392
scalar tree_4_3_u05_r15_network.client[23] 	downloads[23] 	12193
scalar tree_4_3_u05_r15_network.client[23] 	avg_time[23] 	0.004616392334
scalar tree_4_3_u05_r15_network.client[24] 	hdistance[24] 	2.7544628099173
scalar tree_4_3_u05_r15_network.client[24] 	downloads[24] 	12100
scalar tree_4_3_u05_r15_network.client[24] 	avg_time[24] 	0.004427434969
scalar tree_4_3_u05_r15_network.client[25] 	hdistance[25] 	2.8967490462763
scalar tree_4_3_u05_r15_network.client[25] 	downloads[25] 	12058
scalar tree_4_3_u05_r15_network.client[25] 	avg_time[25] 	0.004624644529
scalar tree_4_3_u05_r15_network.client[26] 	hdistance[26] 	2.8989865426151
scalar tree_4_3_u05_r15_network.client[26] 	downloads[26] 	12038
scalar tree_4_3_u05_r15_network.client[26] 	avg_time[26] 	0.004626872949
scalar tree_4_3_u05_r15_network.client[27] 	hdistance[27] 	2.9209864116759
scalar tree_4_3_u05_r15_network.client[27] 	downloads[27] 	11922
scalar tree_4_3_u05_r15_network.client[27] 	avg_time[27] 	0.004668676748
scalar tree_4_3_u05_r15_network.client[28] 	hdistance[28] 	2.8402117277314
scalar tree_4_3_u05_r15_network.client[28] 	downloads[28] 	12091
scalar tree_4_3_u05_r15_network.client[28] 	avg_time[28] 	0.004573481408
scalar tree_4_3_u05_r15_network.client[29] 	hdistance[29] 	2.7504825849769
scalar tree_4_3_u05_r15_network.client[29] 	downloads[29] 	11915
scalar tree_4_3_u05_r15_network.client[29] 	avg_time[29] 	0.004408054077
scalar tree_4_3_u05_r15_network.client[30] 	hdistance[30] 	2.8680647291942
scalar tree_4_3_u05_r15_network.client[30] 	downloads[30] 	12112
scalar tree_4_3_u05_r15_network.client[30] 	avg_time[30] 	0.004628629753
scalar tree_4_3_u05_r15_network.client[31] 	hdistance[31] 	2.8704628704629
scalar tree_4_3_u05_r15_network.client[31] 	downloads[31] 	12012
scalar tree_4_3_u05_r15_network.client[31] 	avg_time[31] 	0.004634529159
scalar tree_4_3_u05_r15_network.client[32] 	hdistance[32] 	2.8775238886581
scalar tree_4_3_u05_r15_network.client[32] 	downloads[32] 	12035
scalar tree_4_3_u05_r15_network.client[32] 	avg_time[32] 	0.004643453575
scalar tree_4_3_u05_r15_network.client[33] 	hdistance[33] 	2.7780453375405
scalar tree_4_3_u05_r15_network.client[33] 	downloads[33] 	12043
scalar tree_4_3_u05_r15_network.client[33] 	avg_time[33] 	0.004434938455
scalar tree_4_3_u05_r15_network.client[34] 	hdistance[34] 	2.8789988397149
scalar tree_4_3_u05_r15_network.client[34] 	downloads[34] 	12066
scalar tree_4_3_u05_r15_network.client[34] 	avg_time[34] 	0.004658683586
scalar tree_4_3_u05_r15_network.client[35] 	hdistance[35] 	2.8652266754271
scalar tree_4_3_u05_r15_network.client[35] 	downloads[35] 	12176
scalar tree_4_3_u05_r15_network.client[35] 	avg_time[35] 	0.004633538307
scalar tree_4_3_u05_r15_network.client[36] 	hdistance[36] 	2.7593323466535
scalar tree_4_3_u05_r15_network.client[36] 	downloads[36] 	12162
scalar tree_4_3_u05_r15_network.client[36] 	avg_time[36] 	0.004428709341
scalar tree_4_3_u05_r15_network.client[37] 	hdistance[37] 	2.8463855421687
scalar tree_4_3_u05_r15_network.client[37] 	downloads[37] 	11952
scalar tree_4_3_u05_r15_network.client[37] 	avg_time[37] 	0.004534468237
scalar tree_4_3_u05_r15_network.client[38] 	hdistance[38] 	2.8548984124373
scalar tree_4_3_u05_r15_network.client[38] 	downloads[38] 	12157
scalar tree_4_3_u05_r15_network.client[38] 	avg_time[38] 	0.004538062297
scalar tree_4_3_u05_r15_network.client[39] 	hdistance[39] 	2.8686053216904
scalar tree_4_3_u05_r15_network.client[39] 	downloads[39] 	12139
scalar tree_4_3_u05_r15_network.client[39] 	avg_time[39] 	0.004568577516
