version 2
run General-119-20160819-08:47:33-13837
attr a 0.9
attr cd fix0.1
attr configname General
attr cr lru
attr datetime 20160819-08:47:33
attr experiment General
attr fsize 1
attr inifile hw5115/scenario_A/NRR-FIX0.1.ini
attr iterationvars "$name=tree_4_3, $un=05, $rep=20, $cd=fix0.1, $cr=lru, $fsize=1, $a=0.9, $sl=nrr, $ttl=1000, $variance=0.05"
attr iterationvars2 "$name=tree_4_3, $un=05, $rep=20, $cd=fix0.1, $cr=lru, $fsize=1, $a=0.9, $sl=nrr, $ttl=1000, $variance=0.05, $repetition=0"
attr measurement "$name=tree_4_3, $un=05, $rep=20, $cd=fix0.1, $cr=lru, $fsize=1, $a=0.9, $sl=nrr, $ttl=1000, $variance=0.05"
attr name tree_4_3
attr network networks.${name}_u${un}_r${rep}_network
attr processid 13837
attr rep 20
attr repetition 0
attr replication #0
attr resultdir results
attr runnumber 119
attr seedset 20
attr sl nrr
attr ttl 1000
attr un 05
attr variance 0.05

scalar . 	a 	0.9
scalar . 	fsize 	1
scalar . 	rep 	20
scalar . 	ttl 	1000
scalar . 	un 	05
scalar . 	variance 	0.05
scalar tree_4_3_u05_r20_network.content_distribution 	repo-0 	0
scalar tree_4_3_u05_r20_network.content_distribution 	client-0 	13
scalar tree_4_3_u05_r20_network.content_distribution 	client-1 	14
scalar tree_4_3_u05_r20_network.content_distribution 	client-2 	15
scalar tree_4_3_u05_r20_network.content_distribution 	client-3 	16
scalar tree_4_3_u05_r20_network.content_distribution 	client-4 	17
scalar tree_4_3_u05_r20_network.content_distribution 	client-5 	18
scalar tree_4_3_u05_r20_network.content_distribution 	client-6 	19
scalar tree_4_3_u05_r20_network.content_distribution 	client-7 	20
scalar tree_4_3_u05_r20_network.content_distribution 	client-8 	21
scalar tree_4_3_u05_r20_network.content_distribution 	client-9 	22
scalar tree_4_3_u05_r20_network.content_distribution 	client-10 	23
scalar tree_4_3_u05_r20_network.content_distribution 	client-11 	24
scalar tree_4_3_u05_r20_network.content_distribution 	client-12 	25
scalar tree_4_3_u05_r20_network.content_distribution 	client-13 	26
scalar tree_4_3_u05_r20_network.content_distribution 	client-14 	27
scalar tree_4_3_u05_r20_network.content_distribution 	client-15 	28
scalar tree_4_3_u05_r20_network.content_distribution 	client-16 	29
scalar tree_4_3_u05_r20_network.content_distribution 	client-17 	30
scalar tree_4_3_u05_r20_network.content_distribution 	client-18 	31
scalar tree_4_3_u05_r20_network.content_distribution 	client-19 	32
scalar tree_4_3_u05_r20_network.content_distribution 	client-20 	33
scalar tree_4_3_u05_r20_network.content_distribution 	client-21 	34
scalar tree_4_3_u05_r20_network.content_distribution 	client-22 	35
scalar tree_4_3_u05_r20_network.content_distribution 	client-23 	36
scalar tree_4_3_u05_r20_network.content_distribution 	client-24 	37
scalar tree_4_3_u05_r20_network.content_distribution 	client-25 	38
scalar tree_4_3_u05_r20_network.content_distribution 	client-26 	39
scalar tree_4_3_u05_r20_network.content_distribution 	repo-0_card 	100000
scalar tree_4_3_u05_r20_network.content_distribution 	repo-0_price 	0
scalar tree_4_3_u05_r20_network.statistics 	stabilization_time 	671.7
scalar tree_4_3_u05_r20_network.statistics 	p_hit 	0.22320082662507
scalar tree_4_3_u05_r20_network.statistics 	interests 	26574.8
scalar tree_4_3_u05_r20_network.statistics 	data 	18480.8
scalar tree_4_3_u05_r20_network.statistics 	hdistance 	2.8501825638502
scalar tree_4_3_u05_r20_network.statistics 	avg_time 	0.004566742287
scalar tree_4_3_u05_r20_network.statistics 	downloads 	323735
scalar tree_4_3_u05_r20_network.statistics 	total_cost 	0
scalar tree_4_3_u05_r20_network.statistics 	total_replicas 	100000
scalar tree_4_3_u05_r20_network.statistics 	inner_hit 	0.43327103958485
scalar tree_4_3_u05_r20_network.node[0].core_layer 	interests[0] 	184459
scalar tree_4_3_u05_r20_network.node[0].core_layer 	repo_load[0] 	183470
scalar tree_4_3_u05_r20_network.node[0].core_layer 	data[0] 	0
scalar tree_4_3_u05_r20_network.node[0].core_layer 	repo_int[0] 	183470
scalar tree_4_3_u05_r20_network.node[0].content_store 	p_hit[0] 	0.0053616250765753
scalar tree_4_3_u05_r20_network.node[0].content_store 	hits[0] 	989
scalar tree_4_3_u05_r20_network.node[0].content_store 	misses[0] 	183470
scalar tree_4_3_u05_r20_network.node[0].content_store 	decision_yes[0] 	18399
scalar tree_4_3_u05_r20_network.node[0].content_store 	decision_no[0] 	165071
scalar tree_4_3_u05_r20_network.node[0].content_store 	decision_ratio[0] 	0.10028342508312
scalar tree_4_3_u05_r20_network.node[1].core_layer 	interests[1] 	131933
scalar tree_4_3_u05_r20_network.node[1].core_layer 	data[1] 	130563
scalar tree_4_3_u05_r20_network.node[1].content_store 	p_hit[1] 	0.010338580946389
scalar tree_4_3_u05_r20_network.node[1].content_store 	hits[1] 	1364
scalar tree_4_3_u05_r20_network.node[1].content_store 	misses[1] 	130569
scalar tree_4_3_u05_r20_network.node[1].content_store 	decision_yes[1] 	13099
scalar tree_4_3_u05_r20_network.node[1].content_store 	decision_no[1] 	117464
scalar tree_4_3_u05_r20_network.node[1].content_store 	decision_ratio[1] 	0.10032704518125
scalar tree_4_3_u05_r20_network.node[2].core_layer 	interests[2] 	38976
scalar tree_4_3_u05_r20_network.node[2].core_layer 	data[2] 	38145
scalar tree_4_3_u05_r20_network.node[2].content_store 	p_hit[2] 	0.021295155993432
scalar tree_4_3_u05_r20_network.node[2].content_store 	hits[2] 	830
scalar tree_4_3_u05_r20_network.node[2].content_store 	misses[2] 	38146
scalar tree_4_3_u05_r20_network.node[2].content_store 	decision_yes[2] 	3781
scalar tree_4_3_u05_r20_network.node[2].content_store 	decision_no[2] 	34364
scalar tree_4_3_u05_r20_network.node[2].content_store 	decision_ratio[2] 	0.099121772185083
scalar tree_4_3_u05_r20_network.node[3].core_layer 	interests[3] 	51937
scalar tree_4_3_u05_r20_network.node[3].core_layer 	data[3] 	49145
scalar tree_4_3_u05_r20_network.node[3].content_store 	p_hit[3] 	0.05373818279839
scalar tree_4_3_u05_r20_network.node[3].content_store 	hits[3] 	2791
scalar tree_4_3_u05_r20_network.node[3].content_store 	misses[3] 	49146
scalar tree_4_3_u05_r20_network.node[3].content_store 	decision_yes[3] 	4925
scalar tree_4_3_u05_r20_network.node[3].content_store 	decision_no[3] 	44220
scalar tree_4_3_u05_r20_network.node[3].content_store 	decision_ratio[3] 	0.10021365347441
scalar tree_4_3_u05_r20_network.node[4].core_layer 	interests[4] 	29678
scalar tree_4_3_u05_r20_network.node[4].core_layer 	data[4] 	27600
scalar tree_4_3_u05_r20_network.node[4].content_store 	p_hit[4] 	0.070018195296179
scalar tree_4_3_u05_r20_network.node[4].content_store 	hits[4] 	2078
scalar tree_4_3_u05_r20_network.node[4].content_store 	misses[4] 	27600
scalar tree_4_3_u05_r20_network.node[4].content_store 	decision_yes[4] 	2765
scalar tree_4_3_u05_r20_network.node[4].content_store 	decision_no[4] 	24835
scalar tree_4_3_u05_r20_network.node[4].content_store 	decision_ratio[4] 	0.10018115942029
scalar tree_4_3_u05_r20_network.node[5].core_layer 	interests[5] 	38122
scalar tree_4_3_u05_r20_network.node[5].core_layer 	data[5] 	35676
scalar tree_4_3_u05_r20_network.node[5].content_store 	p_hit[5] 	0.064109962751167
scalar tree_4_3_u05_r20_network.node[5].content_store 	hits[5] 	2444
scalar tree_4_3_u05_r20_network.node[5].content_store 	misses[5] 	35678
scalar tree_4_3_u05_r20_network.node[5].content_store 	decision_yes[5] 	3547
scalar tree_4_3_u05_r20_network.node[5].content_store 	decision_no[5] 	32128
scalar tree_4_3_u05_r20_network.node[5].content_store 	decision_ratio[5] 	0.099425367904695
scalar tree_4_3_u05_r20_network.node[6].core_layer 	interests[6] 	30496
scalar tree_4_3_u05_r20_network.node[6].core_layer 	data[6] 	24731
scalar tree_4_3_u05_r20_network.node[6].content_store 	p_hit[6] 	0.18891002098636
scalar tree_4_3_u05_r20_network.node[6].content_store 	hits[6] 	5761
scalar tree_4_3_u05_r20_network.node[6].content_store 	misses[6] 	24735
scalar tree_4_3_u05_r20_network.node[6].content_store 	decision_yes[6] 	2459
scalar tree_4_3_u05_r20_network.node[6].content_store 	decision_no[6] 	22272
scalar tree_4_3_u05_r20_network.node[6].content_store 	decision_ratio[6] 	0.099429865351179
scalar tree_4_3_u05_r20_network.node[7].core_layer 	interests[7] 	41995
scalar tree_4_3_u05_r20_network.node[7].core_layer 	data[7] 	38794
scalar tree_4_3_u05_r20_network.node[7].content_store 	p_hit[7] 	0.076199547565186
scalar tree_4_3_u05_r20_network.node[7].content_store 	hits[7] 	3200
scalar tree_4_3_u05_r20_network.node[7].content_store 	misses[7] 	38795
scalar tree_4_3_u05_r20_network.node[7].content_store 	decision_yes[7] 	4006
scalar tree_4_3_u05_r20_network.node[7].content_store 	decision_no[7] 	34788
scalar tree_4_3_u05_r20_network.node[7].content_store 	decision_ratio[7] 	0.10326339124607
scalar tree_4_3_u05_r20_network.node[8].core_layer 	interests[8] 	18641
scalar tree_4_3_u05_r20_network.node[8].core_layer 	data[8] 	17149
scalar tree_4_3_u05_r20_network.node[8].content_store 	p_hit[8] 	0.079984979346602
scalar tree_4_3_u05_r20_network.node[8].content_store 	hits[8] 	1491
scalar tree_4_3_u05_r20_network.node[8].content_store 	misses[8] 	17150
scalar tree_4_3_u05_r20_network.node[8].content_store 	decision_yes[8] 	1708
scalar tree_4_3_u05_r20_network.node[8].content_store 	decision_no[8] 	15441
scalar tree_4_3_u05_r20_network.node[8].content_store 	decision_ratio[8] 	0.099597644177503
scalar tree_4_3_u05_r20_network.node[9].core_layer 	interests[9] 	35700
scalar tree_4_3_u05_r20_network.node[9].core_layer 	data[9] 	32277
scalar tree_4_3_u05_r20_network.node[9].content_store 	p_hit[9] 	0.095798319327731
scalar tree_4_3_u05_r20_network.node[9].content_store 	hits[9] 	3420
scalar tree_4_3_u05_r20_network.node[9].content_store 	misses[9] 	32280
scalar tree_4_3_u05_r20_network.node[9].content_store 	decision_yes[9] 	3188
scalar tree_4_3_u05_r20_network.node[9].content_store 	decision_no[9] 	29089
scalar tree_4_3_u05_r20_network.node[9].content_store 	decision_ratio[9] 	0.098770021997088
scalar tree_4_3_u05_r20_network.node[10].core_layer 	interests[10] 	43133
scalar tree_4_3_u05_r20_network.node[10].core_layer 	data[10] 	39603
scalar tree_4_3_u05_r20_network.node[10].content_store 	p_hit[10] 	0.081793522361069
scalar tree_4_3_u05_r20_network.node[10].content_store 	hits[10] 	3528
scalar tree_4_3_u05_r20_network.node[10].content_store 	misses[10] 	39605
scalar tree_4_3_u05_r20_network.node[10].content_store 	decision_yes[10] 	3988
scalar tree_4_3_u05_r20_network.node[10].content_store 	decision_no[10] 	35614
scalar tree_4_3_u05_r20_network.node[10].content_store 	decision_ratio[10] 	0.10070198474825
scalar tree_4_3_u05_r20_network.node[11].core_layer 	interests[11] 	39231
scalar tree_4_3_u05_r20_network.node[11].core_layer 	data[11] 	37199
scalar tree_4_3_u05_r20_network.node[11].content_store 	p_hit[11] 	0.051770283704214
scalar tree_4_3_u05_r20_network.node[11].content_store 	hits[11] 	2031
scalar tree_4_3_u05_r20_network.node[11].content_store 	misses[11] 	37200
scalar tree_4_3_u05_r20_network.node[11].content_store 	decision_yes[11] 	3667
scalar tree_4_3_u05_r20_network.node[11].content_store 	decision_no[11] 	33532
scalar tree_4_3_u05_r20_network.node[11].content_store 	decision_ratio[11] 	0.098577918761257
scalar tree_4_3_u05_r20_network.node[12].core_layer 	interests[12] 	14464
scalar tree_4_3_u05_r20_network.node[12].core_layer 	data[12] 	10288
scalar tree_4_3_u05_r20_network.node[12].content_store 	p_hit[12] 	0.28871681415929
scalar tree_4_3_u05_r20_network.node[12].content_store 	hits[12] 	4176
scalar tree_4_3_u05_r20_network.node[12].content_store 	misses[12] 	10288
scalar tree_4_3_u05_r20_network.node[12].content_store 	decision_yes[12] 	1007
scalar tree_4_3_u05_r20_network.node[12].content_store 	decision_no[12] 	9281
scalar tree_4_3_u05_r20_network.node[12].content_store 	decision_ratio[12] 	0.097881026438569
scalar tree_4_3_u05_r20_network.node[13].core_layer 	interests[13] 	12947
scalar tree_4_3_u05_r20_network.node[13].core_layer 	data[13] 	9691
scalar tree_4_3_u05_r20_network.node[13].content_store 	p_hit[13] 	0.2514095929559
scalar tree_4_3_u05_r20_network.node[13].content_store 	hits[13] 	3255
scalar tree_4_3_u05_r20_network.node[13].content_store 	misses[13] 	9692
scalar tree_4_3_u05_r20_network.node[13].content_store 	decision_yes[13] 	1000
scalar tree_4_3_u05_r20_network.node[13].content_store 	decision_no[13] 	8691
scalar tree_4_3_u05_r20_network.node[13].content_store 	decision_ratio[13] 	0.10318852543597
scalar tree_4_3_u05_r20_network.node[14].core_layer 	interests[14] 	13026
scalar tree_4_3_u05_r20_network.node[14].core_layer 	data[14] 	9670
scalar tree_4_3_u05_r20_network.node[14].content_store 	p_hit[14] 	0.25763856901581
scalar tree_4_3_u05_r20_network.node[14].content_store 	hits[14] 	3356
scalar tree_4_3_u05_r20_network.node[14].content_store 	misses[14] 	9670
scalar tree_4_3_u05_r20_network.node[14].content_store 	decision_yes[14] 	981
scalar tree_4_3_u05_r20_network.node[14].content_store 	decision_no[14] 	8689
scalar tree_4_3_u05_r20_network.node[14].content_store 	decision_ratio[14] 	0.10144777662875
scalar tree_4_3_u05_r20_network.node[15].core_layer 	interests[15] 	14580
scalar tree_4_3_u05_r20_network.node[15].core_layer 	data[15] 	9504
scalar tree_4_3_u05_r20_network.node[15].content_store 	p_hit[15] 	0.34814814814815
scalar tree_4_3_u05_r20_network.node[15].content_store 	hits[15] 	5076
scalar tree_4_3_u05_r20_network.node[15].content_store 	misses[15] 	9504
scalar tree_4_3_u05_r20_network.node[15].content_store 	decision_yes[15] 	924
scalar tree_4_3_u05_r20_network.node[15].content_store 	decision_no[15] 	8580
scalar tree_4_3_u05_r20_network.node[15].content_store 	decision_ratio[15] 	0.097222222222222
scalar tree_4_3_u05_r20_network.node[16].core_layer 	interests[16] 	12773
scalar tree_4_3_u05_r20_network.node[16].core_layer 	data[16] 	9344
scalar tree_4_3_u05_r20_network.node[16].content_store 	p_hit[16] 	0.26845690127613
scalar tree_4_3_u05_r20_network.node[16].content_store 	hits[16] 	3429
scalar tree_4_3_u05_r20_network.node[16].content_store 	misses[16] 	9344
scalar tree_4_3_u05_r20_network.node[16].content_store 	decision_yes[16] 	905
scalar tree_4_3_u05_r20_network.node[16].content_store 	decision_no[16] 	8439
scalar tree_4_3_u05_r20_network.node[16].content_store 	decision_ratio[16] 	0.096853595890411
scalar tree_4_3_u05_r20_network.node[17].core_layer 	interests[17] 	13174
scalar tree_4_3_u05_r20_network.node[17].core_layer 	data[17] 	9793
scalar tree_4_3_u05_r20_network.node[17].content_store 	p_hit[17] 	0.25656596326097
scalar tree_4_3_u05_r20_network.node[17].content_store 	hits[17] 	3380
scalar tree_4_3_u05_r20_network.node[17].content_store 	misses[17] 	9794
scalar tree_4_3_u05_r20_network.node[17].content_store 	decision_yes[17] 	931
scalar tree_4_3_u05_r20_network.node[17].content_store 	decision_no[17] 	8862
scalar tree_4_3_u05_r20_network.node[17].content_store 	decision_ratio[17] 	0.095067905646891
scalar tree_4_3_u05_r20_network.node[18].core_layer 	interests[18] 	14551
scalar tree_4_3_u05_r20_network.node[18].core_layer 	data[18] 	9555
scalar tree_4_3_u05_r20_network.node[18].content_store 	p_hit[18] 	0.34334410006185
scalar tree_4_3_u05_r20_network.node[18].content_store 	hits[18] 	4996
scalar tree_4_3_u05_r20_network.node[18].content_store 	misses[18] 	9555
scalar tree_4_3_u05_r20_network.node[18].content_store 	decision_yes[18] 	937
scalar tree_4_3_u05_r20_network.node[18].content_store 	decision_no[18] 	8618
scalar tree_4_3_u05_r20_network.node[18].content_store 	decision_ratio[18] 	0.098063840920984
scalar tree_4_3_u05_r20_network.node[19].core_layer 	interests[19] 	13426
scalar tree_4_3_u05_r20_network.node[19].core_layer 	data[19] 	9552
scalar tree_4_3_u05_r20_network.node[19].content_store 	p_hit[19] 	0.28847013257858
scalar tree_4_3_u05_r20_network.node[19].content_store 	hits[19] 	3873
scalar tree_4_3_u05_r20_network.node[19].content_store 	misses[19] 	9553
scalar tree_4_3_u05_r20_network.node[19].content_store 	decision_yes[19] 	917
scalar tree_4_3_u05_r20_network.node[19].content_store 	decision_no[19] 	8635
scalar tree_4_3_u05_r20_network.node[19].content_store 	decision_ratio[19] 	0.096000837520938
scalar tree_4_3_u05_r20_network.node[20].core_layer 	interests[20] 	14128
scalar tree_4_3_u05_r20_network.node[20].core_layer 	data[20] 	9343
scalar tree_4_3_u05_r20_network.node[20].content_store 	p_hit[20] 	0.33861834654587
scalar tree_4_3_u05_r20_network.node[20].content_store 	hits[20] 	4784
scalar tree_4_3_u05_r20_network.node[20].content_store 	misses[20] 	9344
scalar tree_4_3_u05_r20_network.node[20].content_store 	decision_yes[20] 	969
scalar tree_4_3_u05_r20_network.node[20].content_store 	decision_no[20] 	8374
scalar tree_4_3_u05_r20_network.node[20].content_store 	decision_ratio[20] 	0.10371401048914
scalar tree_4_3_u05_r20_network.node[21].core_layer 	interests[21] 	13516
scalar tree_4_3_u05_r20_network.node[21].core_layer 	data[21] 	9546
scalar tree_4_3_u05_r20_network.node[21].content_store 	p_hit[21] 	0.29365196803788
scalar tree_4_3_u05_r20_network.node[21].content_store 	hits[21] 	3969
scalar tree_4_3_u05_r20_network.node[21].content_store 	misses[21] 	9547
scalar tree_4_3_u05_r20_network.node[21].content_store 	decision_yes[21] 	942
scalar tree_4_3_u05_r20_network.node[21].content_store 	decision_no[21] 	8604
scalar tree_4_3_u05_r20_network.node[21].content_store 	decision_ratio[21] 	0.098680075424261
scalar tree_4_3_u05_r20_network.node[22].core_layer 	interests[22] 	13371
scalar tree_4_3_u05_r20_network.node[22].core_layer 	data[22] 	9600
scalar tree_4_3_u05_r20_network.node[22].content_store 	p_hit[22] 	0.28202827013686
scalar tree_4_3_u05_r20_network.node[22].content_store 	hits[22] 	3771
scalar tree_4_3_u05_r20_network.node[22].content_store 	misses[22] 	9600
scalar tree_4_3_u05_r20_network.node[22].content_store 	decision_yes[22] 	985
scalar tree_4_3_u05_r20_network.node[22].content_store 	decision_no[22] 	8615
scalar tree_4_3_u05_r20_network.node[22].content_store 	decision_ratio[22] 	0.10260416666667
scalar tree_4_3_u05_r20_network.node[23].core_layer 	interests[23] 	13364
scalar tree_4_3_u05_r20_network.node[23].core_layer 	data[23] 	9415
scalar tree_4_3_u05_r20_network.node[23].content_store 	p_hit[23] 	0.29542053277462
scalar tree_4_3_u05_r20_network.node[23].content_store 	hits[23] 	3948
scalar tree_4_3_u05_r20_network.node[23].content_store 	misses[23] 	9416
scalar tree_4_3_u05_r20_network.node[23].content_store 	decision_yes[23] 	919
scalar tree_4_3_u05_r20_network.node[23].content_store 	decision_no[23] 	8496
scalar tree_4_3_u05_r20_network.node[23].content_store 	decision_ratio[23] 	0.097610196494955
scalar tree_4_3_u05_r20_network.node[24].core_layer 	interests[24] 	13422
scalar tree_4_3_u05_r20_network.node[24].core_layer 	data[24] 	9552
scalar tree_4_3_u05_r20_network.node[24].content_store 	p_hit[24] 	0.28833258828789
scalar tree_4_3_u05_r20_network.node[24].content_store 	hits[24] 	3870
scalar tree_4_3_u05_r20_network.node[24].content_store 	misses[24] 	9552
scalar tree_4_3_u05_r20_network.node[24].content_store 	decision_yes[24] 	930
scalar tree_4_3_u05_r20_network.node[24].content_store 	decision_no[24] 	8622
scalar tree_4_3_u05_r20_network.node[24].content_store 	decision_ratio[24] 	0.097361809045226
scalar tree_4_3_u05_r20_network.node[25].core_layer 	interests[25] 	14050
scalar tree_4_3_u05_r20_network.node[25].core_layer 	data[25] 	9462
scalar tree_4_3_u05_r20_network.node[25].content_store 	p_hit[25] 	0.32654804270463
scalar tree_4_3_u05_r20_network.node[25].content_store 	hits[25] 	4588
scalar tree_4_3_u05_r20_network.node[25].content_store 	misses[25] 	9462
scalar tree_4_3_u05_r20_network.node[25].content_store 	decision_yes[25] 	959
scalar tree_4_3_u05_r20_network.node[25].content_store 	decision_no[25] 	8503
scalar tree_4_3_u05_r20_network.node[25].content_store 	decision_ratio[25] 	0.10135277953921
scalar tree_4_3_u05_r20_network.node[26].core_layer 	interests[26] 	12493
scalar tree_4_3_u05_r20_network.node[26].core_layer 	data[26] 	9473
scalar tree_4_3_u05_r20_network.node[26].content_store 	p_hit[26] 	0.24173537180821
scalar tree_4_3_u05_r20_network.node[26].content_store 	hits[26] 	3020
scalar tree_4_3_u05_r20_network.node[26].content_store 	misses[26] 	9473
scalar tree_4_3_u05_r20_network.node[26].content_store 	decision_yes[26] 	962
scalar tree_4_3_u05_r20_network.node[26].content_store 	decision_no[26] 	8511
scalar tree_4_3_u05_r20_network.node[26].content_store 	decision_ratio[26] 	0.10155177873958
scalar tree_4_3_u05_r20_network.node[27].core_layer 	interests[27] 	14026
scalar tree_4_3_u05_r20_network.node[27].core_layer 	data[27] 	9480
scalar tree_4_3_u05_r20_network.node[27].content_store 	p_hit[27] 	0.32404106659062
scalar tree_4_3_u05_r20_network.node[27].content_store 	hits[27] 	4545
scalar tree_4_3_u05_r20_network.node[27].content_store 	misses[27] 	9481
scalar tree_4_3_u05_r20_network.node[27].content_store 	decision_yes[27] 	974
scalar tree_4_3_u05_r20_network.node[27].content_store 	decision_no[27] 	8506
scalar tree_4_3_u05_r20_network.node[27].content_store 	decision_ratio[27] 	0.10274261603376
scalar tree_4_3_u05_r20_network.node[28].core_layer 	interests[28] 	13530
scalar tree_4_3_u05_r20_network.node[28].core_layer 	data[28] 	9653
scalar tree_4_3_u05_r20_network.node[28].content_store 	p_hit[28] 	0.28647450110865
scalar tree_4_3_u05_r20_network.node[28].content_store 	hits[28] 	3876
scalar tree_4_3_u05_r20_network.node[28].content_store 	misses[28] 	9654
scalar tree_4_3_u05_r20_network.node[28].content_store 	decision_yes[28] 	955
scalar tree_4_3_u05_r20_network.node[28].content_store 	decision_no[28] 	8698
scalar tree_4_3_u05_r20_network.node[28].content_store 	decision_ratio[28] 	0.09893297420491
scalar tree_4_3_u05_r20_network.node[29].core_layer 	interests[29] 	13612
scalar tree_4_3_u05_r20_network.node[29].core_layer 	data[29] 	9773
scalar tree_4_3_u05_r20_network.node[29].content_store 	p_hit[29] 	0.28181016749927
scalar tree_4_3_u05_r20_network.node[29].content_store 	hits[29] 	3836
scalar tree_4_3_u05_r20_network.node[29].content_store 	misses[29] 	9776
scalar tree_4_3_u05_r20_network.node[29].content_store 	decision_yes[29] 	940
scalar tree_4_3_u05_r20_network.node[29].content_store 	decision_no[29] 	8833
scalar tree_4_3_u05_r20_network.node[29].content_store 	decision_ratio[29] 	0.096183362324772
scalar tree_4_3_u05_r20_network.node[30].core_layer 	interests[30] 	13463
scalar tree_4_3_u05_r20_network.node[30].core_layer 	data[30] 	9665
scalar tree_4_3_u05_r20_network.node[30].content_store 	p_hit[30] 	0.28203223650004
scalar tree_4_3_u05_r20_network.node[30].content_store 	hits[30] 	3797
scalar tree_4_3_u05_r20_network.node[30].content_store 	misses[30] 	9666
scalar tree_4_3_u05_r20_network.node[30].content_store 	decision_yes[30] 	1009
scalar tree_4_3_u05_r20_network.node[30].content_store 	decision_no[30] 	8656
scalar tree_4_3_u05_r20_network.node[30].content_store 	decision_ratio[30] 	0.10439730988101
scalar tree_4_3_u05_r20_network.node[31].core_layer 	interests[31] 	13432
scalar tree_4_3_u05_r20_network.node[31].core_layer 	data[31] 	9384
scalar tree_4_3_u05_r20_network.node[31].content_store 	p_hit[31] 	0.30129541393687
scalar tree_4_3_u05_r20_network.node[31].content_store 	hits[31] 	4047
scalar tree_4_3_u05_r20_network.node[31].content_store 	misses[31] 	9385
scalar tree_4_3_u05_r20_network.node[31].content_store 	decision_yes[31] 	886
scalar tree_4_3_u05_r20_network.node[31].content_store 	decision_no[31] 	8498
scalar tree_4_3_u05_r20_network.node[31].content_store 	decision_ratio[31] 	0.094416027280477
scalar tree_4_3_u05_r20_network.node[32].core_layer 	interests[32] 	13591
scalar tree_4_3_u05_r20_network.node[32].core_layer 	data[32] 	9590
scalar tree_4_3_u05_r20_network.node[32].content_store 	p_hit[32] 	0.294312412626
scalar tree_4_3_u05_r20_network.node[32].content_store 	hits[32] 	4000
scalar tree_4_3_u05_r20_network.node[32].content_store 	misses[32] 	9591
scalar tree_4_3_u05_r20_network.node[32].content_store 	decision_yes[32] 	934
scalar tree_4_3_u05_r20_network.node[32].content_store 	decision_no[32] 	8656
scalar tree_4_3_u05_r20_network.node[32].content_store 	decision_ratio[32] 	0.097393117831074
scalar tree_4_3_u05_r20_network.node[33].core_layer 	interests[33] 	13643
scalar tree_4_3_u05_r20_network.node[33].core_layer 	data[33] 	9646
scalar tree_4_3_u05_r20_network.node[33].content_store 	p_hit[33] 	0.29297075423294
scalar tree_4_3_u05_r20_network.node[33].content_store 	hits[33] 	3997
scalar tree_4_3_u05_r20_network.node[33].content_store 	misses[33] 	9646
scalar tree_4_3_u05_r20_network.node[33].content_store 	decision_yes[33] 	1027
scalar tree_4_3_u05_r20_network.node[33].content_store 	decision_no[33] 	8619
scalar tree_4_3_u05_r20_network.node[33].content_store 	decision_ratio[33] 	0.10646900269542
scalar tree_4_3_u05_r20_network.node[34].core_layer 	interests[34] 	13005
scalar tree_4_3_u05_r20_network.node[34].core_layer 	data[34] 	9607
scalar tree_4_3_u05_r20_network.node[34].content_store 	p_hit[34] 	0.26120722798923
scalar tree_4_3_u05_r20_network.node[34].content_store 	hits[34] 	3397
scalar tree_4_3_u05_r20_network.node[34].content_store 	misses[34] 	9608
scalar tree_4_3_u05_r20_network.node[34].content_store 	decision_yes[34] 	953
scalar tree_4_3_u05_r20_network.node[34].content_store 	decision_no[34] 	8654
scalar tree_4_3_u05_r20_network.node[34].content_store 	decision_ratio[34] 	0.099198501092953
scalar tree_4_3_u05_r20_network.node[35].core_layer 	interests[35] 	12902
scalar tree_4_3_u05_r20_network.node[35].core_layer 	data[35] 	9419
scalar tree_4_3_u05_r20_network.node[35].content_store 	p_hit[35] 	0.26988063866067
scalar tree_4_3_u05_r20_network.node[35].content_store 	hits[35] 	3482
scalar tree_4_3_u05_r20_network.node[35].content_store 	misses[35] 	9420
scalar tree_4_3_u05_r20_network.node[35].content_store 	decision_yes[35] 	924
scalar tree_4_3_u05_r20_network.node[35].content_store 	decision_no[35] 	8495
scalar tree_4_3_u05_r20_network.node[35].content_store 	decision_ratio[35] 	0.098099585943306
scalar tree_4_3_u05_r20_network.node[36].core_layer 	interests[36] 	13532
scalar tree_4_3_u05_r20_network.node[36].core_layer 	data[36] 	9500
scalar tree_4_3_u05_r20_network.node[36].content_store 	p_hit[36] 	0.29796039018623
scalar tree_4_3_u05_r20_network.node[36].content_store 	hits[36] 	4032
scalar tree_4_3_u05_r20_network.node[36].content_store 	misses[36] 	9500
scalar tree_4_3_u05_r20_network.node[36].content_store 	decision_yes[36] 	965
scalar tree_4_3_u05_r20_network.node[36].content_store 	decision_no[36] 	8535
scalar tree_4_3_u05_r20_network.node[36].content_store 	decision_ratio[36] 	0.10157894736842
scalar tree_4_3_u05_r20_network.node[37].core_layer 	interests[37] 	14281
scalar tree_4_3_u05_r20_network.node[37].core_layer 	data[37] 	9591
scalar tree_4_3_u05_r20_network.node[37].content_store 	p_hit[37] 	0.32833835165605
scalar tree_4_3_u05_r20_network.node[37].content_store 	hits[37] 	4689
scalar tree_4_3_u05_r20_network.node[37].content_store 	misses[37] 	9592
scalar tree_4_3_u05_r20_network.node[37].content_store 	decision_yes[37] 	972
scalar tree_4_3_u05_r20_network.node[37].content_store 	decision_no[37] 	8619
scalar tree_4_3_u05_r20_network.node[37].content_store 	decision_ratio[37] 	0.10134501094776
scalar tree_4_3_u05_r20_network.node[38].core_layer 	interests[38] 	13648
scalar tree_4_3_u05_r20_network.node[38].core_layer 	data[38] 	9680
scalar tree_4_3_u05_r20_network.node[38].content_store 	p_hit[38] 	0.29073856975381
scalar tree_4_3_u05_r20_network.node[38].content_store 	hits[38] 	3968
scalar tree_4_3_u05_r20_network.node[38].content_store 	misses[38] 	9680
scalar tree_4_3_u05_r20_network.node[38].content_store 	decision_yes[38] 	1010
scalar tree_4_3_u05_r20_network.node[38].content_store 	decision_no[38] 	8670
scalar tree_4_3_u05_r20_network.node[38].content_store 	decision_ratio[38] 	0.10433884297521
scalar tree_4_3_u05_r20_network.node[39].core_layer 	interests[39] 	12741
scalar tree_4_3_u05_r20_network.node[39].core_layer 	data[39] 	9574
scalar tree_4_3_u05_r20_network.node[39].content_store 	p_hit[39] 	0.24856761635664
scalar tree_4_3_u05_r20_network.node[39].content_store 	hits[39] 	3167
scalar tree_4_3_u05_r20_network.node[39].content_store 	misses[39] 	9574
scalar tree_4_3_u05_r20_network.node[39].content_store 	decision_yes[39] 	964
scalar tree_4_3_u05_r20_network.node[39].content_store 	decision_no[39] 	8610
scalar tree_4_3_u05_r20_network.node[39].content_store 	decision_ratio[39] 	0.10068936703572
scalar tree_4_3_u05_r20_network.client[13] 	hdistance[13] 	2.9419557837211
scalar tree_4_3_u05_r20_network.client[13] 	downloads[13] 	12077
scalar tree_4_3_u05_r20_network.client[13] 	avg_time[13] 	0.004713720847
scalar tree_4_3_u05_r20_network.client[14] 	hdistance[14] 	2.9404525933267
scalar tree_4_3_u05_r20_network.client[14] 	downloads[14] 	12108
scalar tree_4_3_u05_r20_network.client[14] 	avg_time[14] 	0.004703829154
scalar tree_4_3_u05_r20_network.client[15] 	hdistance[15] 	2.7410042187112
scalar tree_4_3_u05_r20_network.client[15] 	downloads[15] 	12089
scalar tree_4_3_u05_r20_network.client[15] 	avg_time[15] 	0.004397383036
scalar tree_4_3_u05_r20_network.client[16] 	hdistance[16] 	2.8803134849646
scalar tree_4_3_u05_r20_network.client[16] 	downloads[16] 	11739
scalar tree_4_3_u05_r20_network.client[16] 	avg_time[16] 	0.004612996481
scalar tree_4_3_u05_r20_network.client[17] 	hdistance[17] 	2.9302997770254
scalar tree_4_3_u05_r20_network.client[17] 	downloads[17] 	12109
scalar tree_4_3_u05_r20_network.client[17] 	avg_time[17] 	0.004681638743
scalar tree_4_3_u05_r20_network.client[18] 	hdistance[18] 	2.745207733443
scalar tree_4_3_u05_r20_network.client[18] 	downloads[18] 	12155
scalar tree_4_3_u05_r20_network.client[18] 	avg_time[18] 	0.004388822191
scalar tree_4_3_u05_r20_network.client[19] 	hdistance[19] 	2.8167310599698
scalar tree_4_3_u05_r20_network.client[19] 	downloads[19] 	11906
scalar tree_4_3_u05_r20_network.client[19] 	avg_time[19] 	0.004542412608
scalar tree_4_3_u05_r20_network.client[20] 	hdistance[20] 	2.758927814064
scalar tree_4_3_u05_r20_network.client[20] 	downloads[20] 	11789
scalar tree_4_3_u05_r20_network.client[20] 	avg_time[20] 	0.00442024624
scalar tree_4_3_u05_r20_network.client[21] 	hdistance[21] 	2.8551473078226
scalar tree_4_3_u05_r20_network.client[21] 	downloads[21] 	11812
scalar tree_4_3_u05_r20_network.client[21] 	avg_time[21] 	0.004599502189
scalar tree_4_3_u05_r20_network.client[22] 	hdistance[22] 	2.8656356531138
scalar tree_4_3_u05_r20_network.client[22] 	downloads[22] 	12027
scalar tree_4_3_u05_r20_network.client[22] 	avg_time[22] 	0.004617474573
scalar tree_4_3_u05_r20_network.client[23] 	hdistance[23] 	2.8736522911051
scalar tree_4_3_u05_r20_network.client[23] 	downloads[23] 	11872
scalar tree_4_3_u05_r20_network.client[23] 	avg_time[23] 	0.004610744933
scalar tree_4_3_u05_r20_network.client[24] 	hdistance[24] 	2.8566552901024
scalar tree_4_3_u05_r20_network.client[24] 	downloads[24] 	12013
scalar tree_4_3_u05_r20_network.client[24] 	avg_time[24] 	0.004590883807
scalar tree_4_3_u05_r20_network.client[25] 	hdistance[25] 	2.8018297800906
scalar tree_4_3_u05_r20_network.client[25] 	downloads[25] 	11914
scalar tree_4_3_u05_r20_network.client[25] 	avg_time[25] 	0.004483475924
scalar tree_4_3_u05_r20_network.client[26] 	hdistance[26] 	2.9345989796772
scalar tree_4_3_u05_r20_network.client[26] 	downloads[26] 	11957
scalar tree_4_3_u05_r20_network.client[26] 	avg_time[26] 	0.004605165566
scalar tree_4_3_u05_r20_network.client[27] 	hdistance[27] 	2.7794927415318
scalar tree_4_3_u05_r20_network.client[27] 	downloads[27] 	11986
scalar tree_4_3_u05_r20_network.client[27] 	avg_time[27] 	0.004446517953
scalar tree_4_3_u05_r20_network.client[28] 	hdistance[28] 	2.8635044365204
scalar tree_4_3_u05_r20_network.client[28] 	downloads[28] 	12059
scalar tree_4_3_u05_r20_network.client[28] 	avg_time[28] 	0.004609444014
scalar tree_4_3_u05_r20_network.client[29] 	hdistance[29] 	2.8879452506596
scalar tree_4_3_u05_r20_network.client[29] 	downloads[29] 	12128
scalar tree_4_3_u05_r20_network.client[29] 	avg_time[29] 	0.004649264069
scalar tree_4_3_u05_r20_network.client[30] 	hdistance[30] 	2.8840591755319
scalar tree_4_3_u05_r20_network.client[30] 	downloads[30] 	12032
scalar tree_4_3_u05_r20_network.client[30] 	avg_time[30] 	0.004636011508
scalar tree_4_3_u05_r20_network.client[31] 	hdistance[31] 	2.8396842909276
scalar tree_4_3_u05_r20_network.client[31] 	downloads[31] 	11783
scalar tree_4_3_u05_r20_network.client[31] 	avg_time[31] 	0.00459159624
scalar tree_4_3_u05_r20_network.client[32] 	hdistance[32] 	2.8638251910934
scalar tree_4_3_u05_r20_network.client[32] 	downloads[32] 	12036
scalar tree_4_3_u05_r20_network.client[32] 	avg_time[32] 	0.004620707105
scalar tree_4_3_u05_r20_network.client[33] 	hdistance[33] 	2.8491450180862
scalar tree_4_3_u05_r20_network.client[33] 	downloads[33] 	12164
scalar tree_4_3_u05_r20_network.client[33] 	avg_time[33] 	0.004602265949
scalar tree_4_3_u05_r20_network.client[34] 	hdistance[34] 	2.911424047996
scalar tree_4_3_u05_r20_network.client[34] 	downloads[34] 	12001
scalar tree_4_3_u05_r20_network.client[34] 	avg_time[34] 	0.004653989589
scalar tree_4_3_u05_r20_network.client[35] 	hdistance[35] 	2.8754827875735
scalar tree_4_3_u05_r20_network.client[35] 	downloads[35] 	11910
scalar tree_4_3_u05_r20_network.client[35] 	avg_time[35] 	0.004604846611
scalar tree_4_3_u05_r20_network.client[36] 	hdistance[36] 	2.8028121861399
scalar tree_4_3_u05_r20_network.client[36] 	downloads[36] 	11948
scalar tree_4_3_u05_r20_network.client[36] 	avg_time[36] 	0.004447268538
scalar tree_4_3_u05_r20_network.client[37] 	hdistance[37] 	2.7837365926665
scalar tree_4_3_u05_r20_network.client[37] 	downloads[37] 	12027
scalar tree_4_3_u05_r20_network.client[37] 	avg_time[37] 	0.004459170833
scalar tree_4_3_u05_r20_network.client[38] 	hdistance[38] 	2.8145613456464
scalar tree_4_3_u05_r20_network.client[38] 	downloads[38] 	12128
scalar tree_4_3_u05_r20_network.client[38] 	avg_time[38] 	0.004462440396
scalar tree_4_3_u05_r20_network.client[39] 	hdistance[39] 	2.8568443924453
scalar tree_4_3_u05_r20_network.client[39] 	downloads[39] 	11966
scalar tree_4_3_u05_r20_network.client[39] 	avg_time[39] 	0.004550222658
