version 2
run General-18-20160819-07:00:15-13837
attr a 0.9
attr cd fix0.1
attr configname General
attr cr lru
attr datetime 20160819-07:00:15
attr experiment General
attr fsize 1
attr inifile hw5115/scenario_A/NRR-FIX0.1.ini
attr iterationvars "$name=tree_4_3, $un=00, $rep=19, $cd=fix0.1, $cr=lru, $fsize=1, $a=0.9, $sl=nrr, $ttl=1000, $variance=0.05"
attr iterationvars2 "$name=tree_4_3, $un=00, $rep=19, $cd=fix0.1, $cr=lru, $fsize=1, $a=0.9, $sl=nrr, $ttl=1000, $variance=0.05, $repetition=0"
attr measurement "$name=tree_4_3, $un=00, $rep=19, $cd=fix0.1, $cr=lru, $fsize=1, $a=0.9, $sl=nrr, $ttl=1000, $variance=0.05"
attr name tree_4_3
attr network networks.${name}_u${un}_r${rep}_network
attr processid 13837
attr rep 19
attr repetition 0
attr replication #0
attr resultdir results
attr runnumber 18
attr seedset 19
attr sl nrr
attr ttl 1000
attr un 00
attr variance 0.05

scalar . 	a 	0.9
scalar . 	fsize 	1
scalar . 	rep 	19
scalar . 	ttl 	1000
scalar . 	un 	00
scalar . 	variance 	0.05
scalar tree_4_3_u00_r19_network.content_distribution 	repo-0 	0
scalar tree_4_3_u00_r19_network.content_distribution 	client-0 	13
scalar tree_4_3_u00_r19_network.content_distribution 	client-1 	14
scalar tree_4_3_u00_r19_network.content_distribution 	client-2 	15
scalar tree_4_3_u00_r19_network.content_distribution 	client-3 	16
scalar tree_4_3_u00_r19_network.content_distribution 	client-4 	17
scalar tree_4_3_u00_r19_network.content_distribution 	client-5 	18
scalar tree_4_3_u00_r19_network.content_distribution 	client-6 	19
scalar tree_4_3_u00_r19_network.content_distribution 	client-7 	20
scalar tree_4_3_u00_r19_network.content_distribution 	client-8 	21
scalar tree_4_3_u00_r19_network.content_distribution 	client-9 	22
scalar tree_4_3_u00_r19_network.content_distribution 	client-10 	23
scalar tree_4_3_u00_r19_network.content_distribution 	client-11 	24
scalar tree_4_3_u00_r19_network.content_distribution 	client-12 	25
scalar tree_4_3_u00_r19_network.content_distribution 	client-13 	26
scalar tree_4_3_u00_r19_network.content_distribution 	client-14 	27
scalar tree_4_3_u00_r19_network.content_distribution 	client-15 	28
scalar tree_4_3_u00_r19_network.content_distribution 	client-16 	29
scalar tree_4_3_u00_r19_network.content_distribution 	client-17 	30
scalar tree_4_3_u00_r19_network.content_distribution 	client-18 	31
scalar tree_4_3_u00_r19_network.content_distribution 	client-19 	32
scalar tree_4_3_u00_r19_network.content_distribution 	client-20 	33
scalar tree_4_3_u00_r19_network.content_distribution 	client-21 	34
scalar tree_4_3_u00_r19_network.content_distribution 	client-22 	35
scalar tree_4_3_u00_r19_network.content_distribution 	client-23 	36
scalar tree_4_3_u00_r19_network.content_distribution 	client-24 	37
scalar tree_4_3_u00_r19_network.content_distribution 	client-25 	38
scalar tree_4_3_u00_r19_network.content_distribution 	client-26 	39
scalar tree_4_3_u00_r19_network.content_distribution 	repo-0_card 	100000
scalar tree_4_3_u00_r19_network.content_distribution 	repo-0_price 	0
scalar tree_4_3_u00_r19_network.statistics 	stabilization_time 	741.2
scalar tree_4_3_u00_r19_network.statistics 	p_hit 	0.20123083767001
scalar tree_4_3_u00_r19_network.statistics 	interests 	26703.975
scalar tree_4_3_u00_r19_network.statistics 	data 	18588.65
scalar tree_4_3_u00_r19_network.statistics 	hdistance 	2.9211689994234
scalar tree_4_3_u00_r19_network.statistics 	avg_time 	0.004581167291
scalar tree_4_3_u00_r19_network.statistics 	downloads 	324606
scalar tree_4_3_u00_r19_network.statistics 	total_cost 	0
scalar tree_4_3_u00_r19_network.statistics 	total_replicas 	100000
scalar tree_4_3_u00_r19_network.statistics 	inner_hit 	0.36946636845899
scalar tree_4_3_u00_r19_network.node[0].core_layer 	interests[0] 	206366
scalar tree_4_3_u00_r19_network.node[0].core_layer 	repo_load[0] 	204675
scalar tree_4_3_u00_r19_network.node[0].core_layer 	data[0] 	0
scalar tree_4_3_u00_r19_network.node[0].core_layer 	repo_int[0] 	204675
scalar tree_4_3_u00_r19_network.node[0].content_store 	p_hit[0] 	0.0081941792737176
scalar tree_4_3_u00_r19_network.node[0].content_store 	hits[0] 	1691
scalar tree_4_3_u00_r19_network.node[0].content_store 	misses[0] 	204675
scalar tree_4_3_u00_r19_network.node[0].content_store 	decision_yes[0] 	20408
scalar tree_4_3_u00_r19_network.node[0].content_store 	decision_no[0] 	184267
scalar tree_4_3_u00_r19_network.node[0].content_store 	decision_ratio[0] 	0.099709295224136
scalar tree_4_3_u00_r19_network.node[1].core_layer 	interests[1] 	76636
scalar tree_4_3_u00_r19_network.node[1].core_layer 	data[1] 	75646
scalar tree_4_3_u00_r19_network.node[1].content_store 	p_hit[1] 	0.012892113367086
scalar tree_4_3_u00_r19_network.node[1].content_store 	hits[1] 	988
scalar tree_4_3_u00_r19_network.node[1].content_store 	misses[1] 	75648
scalar tree_4_3_u00_r19_network.node[1].content_store 	decision_yes[1] 	7712
scalar tree_4_3_u00_r19_network.node[1].content_store 	decision_no[1] 	67934
scalar tree_4_3_u00_r19_network.node[1].content_store 	decision_ratio[1] 	0.10194854982418
scalar tree_4_3_u00_r19_network.node[2].core_layer 	interests[2] 	77567
scalar tree_4_3_u00_r19_network.node[2].core_layer 	data[2] 	76453
scalar tree_4_3_u00_r19_network.node[2].content_store 	p_hit[2] 	0.01434888547965
scalar tree_4_3_u00_r19_network.node[2].content_store 	hits[2] 	1113
scalar tree_4_3_u00_r19_network.node[2].content_store 	misses[2] 	76454
scalar tree_4_3_u00_r19_network.node[2].content_store 	decision_yes[2] 	7534
scalar tree_4_3_u00_r19_network.node[2].content_store 	decision_no[2] 	68919
scalar tree_4_3_u00_r19_network.node[2].content_store 	decision_ratio[2] 	0.098544203628373
scalar tree_4_3_u00_r19_network.node[3].core_layer 	interests[3] 	76344
scalar tree_4_3_u00_r19_network.node[3].core_layer 	data[3] 	75280
scalar tree_4_3_u00_r19_network.node[3].content_store 	p_hit[3] 	0.013897621293094
scalar tree_4_3_u00_r19_network.node[3].content_store 	hits[3] 	1061
scalar tree_4_3_u00_r19_network.node[3].content_store 	misses[3] 	75283
scalar tree_4_3_u00_r19_network.node[3].content_store 	decision_yes[3] 	7583
scalar tree_4_3_u00_r19_network.node[3].content_store 	decision_no[3] 	67696
scalar tree_4_3_u00_r19_network.node[3].content_store 	decision_ratio[3] 	0.1007319438356
scalar tree_4_3_u00_r19_network.node[4].core_layer 	interests[4] 	30800
scalar tree_4_3_u00_r19_network.node[4].core_layer 	data[4] 	28886
scalar tree_4_3_u00_r19_network.node[4].content_store 	p_hit[4] 	0.06211038961039
scalar tree_4_3_u00_r19_network.node[4].content_store 	hits[4] 	1913
scalar tree_4_3_u00_r19_network.node[4].content_store 	misses[4] 	28887
scalar tree_4_3_u00_r19_network.node[4].content_store 	decision_yes[4] 	2924
scalar tree_4_3_u00_r19_network.node[4].content_store 	decision_no[4] 	25962
scalar tree_4_3_u00_r19_network.node[4].content_store 	decision_ratio[4] 	0.1012255071661
scalar tree_4_3_u00_r19_network.node[5].core_layer 	interests[5] 	30941
scalar tree_4_3_u00_r19_network.node[5].core_layer 	data[5] 	28889
scalar tree_4_3_u00_r19_network.node[5].content_store 	p_hit[5] 	0.066287450308652
scalar tree_4_3_u00_r19_network.node[5].content_store 	hits[5] 	2051
scalar tree_4_3_u00_r19_network.node[5].content_store 	misses[5] 	28890
scalar tree_4_3_u00_r19_network.node[5].content_store 	decision_yes[5] 	2959
scalar tree_4_3_u00_r19_network.node[5].content_store 	decision_no[5] 	25930
scalar tree_4_3_u00_r19_network.node[5].content_store 	decision_ratio[5] 	0.10242652912873
scalar tree_4_3_u00_r19_network.node[6].core_layer 	interests[6] 	30638
scalar tree_4_3_u00_r19_network.node[6].core_layer 	data[6] 	28704
scalar tree_4_3_u00_r19_network.node[6].content_store 	p_hit[6] 	0.063091585612638
scalar tree_4_3_u00_r19_network.node[6].content_store 	hits[6] 	1933
scalar tree_4_3_u00_r19_network.node[6].content_store 	misses[6] 	28705
scalar tree_4_3_u00_r19_network.node[6].content_store 	decision_yes[6] 	2855
scalar tree_4_3_u00_r19_network.node[6].content_store 	decision_no[6] 	25849
scalar tree_4_3_u00_r19_network.node[6].content_store 	decision_ratio[6] 	0.099463489409142
scalar tree_4_3_u00_r19_network.node[7].core_layer 	interests[7] 	30847
scalar tree_4_3_u00_r19_network.node[7].core_layer 	data[7] 	28766
scalar tree_4_3_u00_r19_network.node[7].content_store 	p_hit[7] 	0.067429571757383
scalar tree_4_3_u00_r19_network.node[7].content_store 	hits[7] 	2080
scalar tree_4_3_u00_r19_network.node[7].content_store 	misses[7] 	28767
scalar tree_4_3_u00_r19_network.node[7].content_store 	decision_yes[7] 	2958
scalar tree_4_3_u00_r19_network.node[7].content_store 	decision_no[7] 	25808
scalar tree_4_3_u00_r19_network.node[7].content_store 	decision_ratio[7] 	0.10282972954182
scalar tree_4_3_u00_r19_network.node[8].core_layer 	interests[8] 	31111
scalar tree_4_3_u00_r19_network.node[8].core_layer 	data[8] 	29143
scalar tree_4_3_u00_r19_network.node[8].content_store 	p_hit[8] 	0.063225225804378
scalar tree_4_3_u00_r19_network.node[8].content_store 	hits[8] 	1967
scalar tree_4_3_u00_r19_network.node[8].content_store 	misses[8] 	29144
scalar tree_4_3_u00_r19_network.node[8].content_store 	decision_yes[8] 	2969
scalar tree_4_3_u00_r19_network.node[8].content_store 	decision_no[8] 	26174
scalar tree_4_3_u00_r19_network.node[8].content_store 	decision_ratio[8] 	0.10187695158357
scalar tree_4_3_u00_r19_network.node[9].core_layer 	interests[9] 	31497
scalar tree_4_3_u00_r19_network.node[9].core_layer 	data[9] 	29482
scalar tree_4_3_u00_r19_network.node[9].content_store 	p_hit[9] 	0.063942597707718
scalar tree_4_3_u00_r19_network.node[9].content_store 	hits[9] 	2014
scalar tree_4_3_u00_r19_network.node[9].content_store 	misses[9] 	29483
scalar tree_4_3_u00_r19_network.node[9].content_store 	decision_yes[9] 	3009
scalar tree_4_3_u00_r19_network.node[9].content_store 	decision_no[9] 	26473
scalar tree_4_3_u00_r19_network.node[9].content_store 	decision_ratio[9] 	0.10206227528662
scalar tree_4_3_u00_r19_network.node[10].core_layer 	interests[10] 	30845
scalar tree_4_3_u00_r19_network.node[10].core_layer 	data[10] 	28925
scalar tree_4_3_u00_r19_network.node[10].content_store 	p_hit[10] 	0.062214297292916
scalar tree_4_3_u00_r19_network.node[10].content_store 	hits[10] 	1919
scalar tree_4_3_u00_r19_network.node[10].content_store 	misses[10] 	28926
scalar tree_4_3_u00_r19_network.node[10].content_store 	decision_yes[10] 	2899
scalar tree_4_3_u00_r19_network.node[10].content_store 	decision_no[10] 	26026
scalar tree_4_3_u00_r19_network.node[10].content_store 	decision_ratio[10] 	0.10022471910112
scalar tree_4_3_u00_r19_network.node[11].core_layer 	interests[11] 	30470
scalar tree_4_3_u00_r19_network.node[11].core_layer 	data[11] 	28449
scalar tree_4_3_u00_r19_network.node[11].content_store 	p_hit[11] 	0.066327535280604
scalar tree_4_3_u00_r19_network.node[11].content_store 	hits[11] 	2021
scalar tree_4_3_u00_r19_network.node[11].content_store 	misses[11] 	28449
scalar tree_4_3_u00_r19_network.node[11].content_store 	decision_yes[11] 	2848
scalar tree_4_3_u00_r19_network.node[11].content_store 	decision_no[11] 	25601
scalar tree_4_3_u00_r19_network.node[11].content_store 	decision_ratio[11] 	0.10010896692327
scalar tree_4_3_u00_r19_network.node[12].core_layer 	interests[12] 	30358
scalar tree_4_3_u00_r19_network.node[12].core_layer 	data[12] 	28429
scalar tree_4_3_u00_r19_network.node[12].content_store 	p_hit[12] 	0.063508795045787
scalar tree_4_3_u00_r19_network.node[12].content_store 	hits[12] 	1928
scalar tree_4_3_u00_r19_network.node[12].content_store 	misses[12] 	28430
scalar tree_4_3_u00_r19_network.node[12].content_store 	decision_yes[12] 	2864
scalar tree_4_3_u00_r19_network.node[12].content_store 	decision_no[12] 	25565
scalar tree_4_3_u00_r19_network.node[12].content_store 	decision_ratio[12] 	0.10074219986633
scalar tree_4_3_u00_r19_network.node[13].core_layer 	interests[13] 	13118
scalar tree_4_3_u00_r19_network.node[13].core_layer 	data[13] 	9488
scalar tree_4_3_u00_r19_network.node[13].content_store 	p_hit[13] 	0.27671901204452
scalar tree_4_3_u00_r19_network.node[13].content_store 	hits[13] 	3630
scalar tree_4_3_u00_r19_network.node[13].content_store 	misses[13] 	9488
scalar tree_4_3_u00_r19_network.node[13].content_store 	decision_yes[13] 	996
scalar tree_4_3_u00_r19_network.node[13].content_store 	decision_no[13] 	8492
scalar tree_4_3_u00_r19_network.node[13].content_store 	decision_ratio[13] 	0.10497470489039
scalar tree_4_3_u00_r19_network.node[14].core_layer 	interests[14] 	13046
scalar tree_4_3_u00_r19_network.node[14].core_layer 	data[14] 	9503
scalar tree_4_3_u00_r19_network.node[14].content_store 	p_hit[14] 	0.27150084317032
scalar tree_4_3_u00_r19_network.node[14].content_store 	hits[14] 	3542
scalar tree_4_3_u00_r19_network.node[14].content_store 	misses[14] 	9504
scalar tree_4_3_u00_r19_network.node[14].content_store 	decision_yes[14] 	981
scalar tree_4_3_u00_r19_network.node[14].content_store 	decision_no[14] 	8522
scalar tree_4_3_u00_r19_network.node[14].content_store 	decision_ratio[14] 	0.10323055877091
scalar tree_4_3_u00_r19_network.node[15].core_layer 	interests[15] 	13110
scalar tree_4_3_u00_r19_network.node[15].core_layer 	data[15] 	9513
scalar tree_4_3_u00_r19_network.node[15].content_store 	p_hit[15] 	0.27437070938215
scalar tree_4_3_u00_r19_network.node[15].content_store 	hits[15] 	3597
scalar tree_4_3_u00_r19_network.node[15].content_store 	misses[15] 	9513
scalar tree_4_3_u00_r19_network.node[15].content_store 	decision_yes[15] 	922
scalar tree_4_3_u00_r19_network.node[15].content_store 	decision_no[15] 	8591
scalar tree_4_3_u00_r19_network.node[15].content_store 	decision_ratio[15] 	0.096920004204772
scalar tree_4_3_u00_r19_network.node[16].core_layer 	interests[16] 	13071
scalar tree_4_3_u00_r19_network.node[16].core_layer 	data[16] 	9516
scalar tree_4_3_u00_r19_network.node[16].content_store 	p_hit[16] 	0.27182311988371
scalar tree_4_3_u00_r19_network.node[16].content_store 	hits[16] 	3553
scalar tree_4_3_u00_r19_network.node[16].content_store 	misses[16] 	9518
scalar tree_4_3_u00_r19_network.node[16].content_store 	decision_yes[16] 	973
scalar tree_4_3_u00_r19_network.node[16].content_store 	decision_no[16] 	8543
scalar tree_4_3_u00_r19_network.node[16].content_store 	decision_ratio[16] 	0.10224884405212
scalar tree_4_3_u00_r19_network.node[17].core_layer 	interests[17] 	13107
scalar tree_4_3_u00_r19_network.node[17].core_layer 	data[17] 	9613
scalar tree_4_3_u00_r19_network.node[17].content_store 	p_hit[17] 	0.26657511253529
scalar tree_4_3_u00_r19_network.node[17].content_store 	hits[17] 	3494
scalar tree_4_3_u00_r19_network.node[17].content_store 	misses[17] 	9613
scalar tree_4_3_u00_r19_network.node[17].content_store 	decision_yes[17] 	991
scalar tree_4_3_u00_r19_network.node[17].content_store 	decision_no[17] 	8622
scalar tree_4_3_u00_r19_network.node[17].content_store 	decision_ratio[17] 	0.10308956621242
scalar tree_4_3_u00_r19_network.node[18].core_layer 	interests[18] 	13108
scalar tree_4_3_u00_r19_network.node[18].core_layer 	data[18] 	9458
scalar tree_4_3_u00_r19_network.node[18].content_store 	p_hit[18] 	0.27845590479097
scalar tree_4_3_u00_r19_network.node[18].content_store 	hits[18] 	3650
scalar tree_4_3_u00_r19_network.node[18].content_store 	misses[18] 	9458
scalar tree_4_3_u00_r19_network.node[18].content_store 	decision_yes[18] 	1001
scalar tree_4_3_u00_r19_network.node[18].content_store 	decision_no[18] 	8457
scalar tree_4_3_u00_r19_network.node[18].content_store 	decision_ratio[18] 	0.10583632903362
scalar tree_4_3_u00_r19_network.node[19].core_layer 	interests[19] 	13212
scalar tree_4_3_u00_r19_network.node[19].core_layer 	data[19] 	9462
scalar tree_4_3_u00_r19_network.node[19].content_store 	p_hit[19] 	0.28375719043294
scalar tree_4_3_u00_r19_network.node[19].content_store 	hits[19] 	3749
scalar tree_4_3_u00_r19_network.node[19].content_store 	misses[19] 	9463
scalar tree_4_3_u00_r19_network.node[19].content_store 	decision_yes[19] 	958
scalar tree_4_3_u00_r19_network.node[19].content_store 	decision_no[19] 	8504
scalar tree_4_3_u00_r19_network.node[19].content_store 	decision_ratio[19] 	0.10124709363771
scalar tree_4_3_u00_r19_network.node[20].core_layer 	interests[20] 	13025
scalar tree_4_3_u00_r19_network.node[20].core_layer 	data[20] 	9368
scalar tree_4_3_u00_r19_network.node[20].content_store 	p_hit[20] 	0.28076775431862
scalar tree_4_3_u00_r19_network.node[20].content_store 	hits[20] 	3657
scalar tree_4_3_u00_r19_network.node[20].content_store 	misses[20] 	9368
scalar tree_4_3_u00_r19_network.node[20].content_store 	decision_yes[20] 	998
scalar tree_4_3_u00_r19_network.node[20].content_store 	decision_no[20] 	8370
scalar tree_4_3_u00_r19_network.node[20].content_store 	decision_ratio[20] 	0.10653287788215
scalar tree_4_3_u00_r19_network.node[21].core_layer 	interests[21] 	13067
scalar tree_4_3_u00_r19_network.node[21].core_layer 	data[21] 	9362
scalar tree_4_3_u00_r19_network.node[21].content_store 	p_hit[21] 	0.28353868523762
scalar tree_4_3_u00_r19_network.node[21].content_store 	hits[21] 	3705
scalar tree_4_3_u00_r19_network.node[21].content_store 	misses[21] 	9362
scalar tree_4_3_u00_r19_network.node[21].content_store 	decision_yes[21] 	895
scalar tree_4_3_u00_r19_network.node[21].content_store 	decision_no[21] 	8467
scalar tree_4_3_u00_r19_network.node[21].content_store 	decision_ratio[21] 	0.095599230933561
scalar tree_4_3_u00_r19_network.node[22].core_layer 	interests[22] 	12925
scalar tree_4_3_u00_r19_network.node[22].core_layer 	data[22] 	9360
scalar tree_4_3_u00_r19_network.node[22].content_store 	p_hit[22] 	0.27582205029014
scalar tree_4_3_u00_r19_network.node[22].content_store 	hits[22] 	3565
scalar tree_4_3_u00_r19_network.node[22].content_store 	misses[22] 	9360
scalar tree_4_3_u00_r19_network.node[22].content_store 	decision_yes[22] 	934
scalar tree_4_3_u00_r19_network.node[22].content_store 	decision_no[22] 	8426
scalar tree_4_3_u00_r19_network.node[22].content_store 	decision_ratio[22] 	0.099786324786325
scalar tree_4_3_u00_r19_network.node[23].core_layer 	interests[23] 	13025
scalar tree_4_3_u00_r19_network.node[23].core_layer 	data[23] 	9530
scalar tree_4_3_u00_r19_network.node[23].content_store 	p_hit[23] 	0.26833013435701
scalar tree_4_3_u00_r19_network.node[23].content_store 	hits[23] 	3495
scalar tree_4_3_u00_r19_network.node[23].content_store 	misses[23] 	9530
scalar tree_4_3_u00_r19_network.node[23].content_store 	decision_yes[23] 	927
scalar tree_4_3_u00_r19_network.node[23].content_store 	decision_no[23] 	8603
scalar tree_4_3_u00_r19_network.node[23].content_store 	decision_ratio[23] 	0.097271773347324
scalar tree_4_3_u00_r19_network.node[24].core_layer 	interests[24] 	13282
scalar tree_4_3_u00_r19_network.node[24].core_layer 	data[24] 	9557
scalar tree_4_3_u00_r19_network.node[24].content_store 	p_hit[24] 	0.28045475079054
scalar tree_4_3_u00_r19_network.node[24].content_store 	hits[24] 	3725
scalar tree_4_3_u00_r19_network.node[24].content_store 	misses[24] 	9557
scalar tree_4_3_u00_r19_network.node[24].content_store 	decision_yes[24] 	949
scalar tree_4_3_u00_r19_network.node[24].content_store 	decision_no[24] 	8608
scalar tree_4_3_u00_r19_network.node[24].content_store 	decision_ratio[24] 	0.099298943183007
scalar tree_4_3_u00_r19_network.node[25].core_layer 	interests[25] 	13350
scalar tree_4_3_u00_r19_network.node[25].core_layer 	data[25] 	9585
scalar tree_4_3_u00_r19_network.node[25].content_store 	p_hit[25] 	0.28202247191011
scalar tree_4_3_u00_r19_network.node[25].content_store 	hits[25] 	3765
scalar tree_4_3_u00_r19_network.node[25].content_store 	misses[25] 	9585
scalar tree_4_3_u00_r19_network.node[25].content_store 	decision_yes[25] 	931
scalar tree_4_3_u00_r19_network.node[25].content_store 	decision_no[25] 	8654
scalar tree_4_3_u00_r19_network.node[25].content_store 	decision_ratio[25] 	0.097130933750652
scalar tree_4_3_u00_r19_network.node[26].core_layer 	interests[26] 	13266
scalar tree_4_3_u00_r19_network.node[26].core_layer 	data[26] 	9624
scalar tree_4_3_u00_r19_network.node[26].content_store 	p_hit[26] 	0.27453640886477
scalar tree_4_3_u00_r19_network.node[26].content_store 	hits[26] 	3642
scalar tree_4_3_u00_r19_network.node[26].content_store 	misses[26] 	9624
scalar tree_4_3_u00_r19_network.node[26].content_store 	decision_yes[26] 	950
scalar tree_4_3_u00_r19_network.node[26].content_store 	decision_no[26] 	8674
scalar tree_4_3_u00_r19_network.node[26].content_store 	decision_ratio[26] 	0.098711554447215
scalar tree_4_3_u00_r19_network.node[27].core_layer 	interests[27] 	13009
scalar tree_4_3_u00_r19_network.node[27].core_layer 	data[27] 	9568
scalar tree_4_3_u00_r19_network.node[27].content_store 	p_hit[27] 	0.26450918594819
scalar tree_4_3_u00_r19_network.node[27].content_store 	hits[27] 	3441
scalar tree_4_3_u00_r19_network.node[27].content_store 	misses[27] 	9568
scalar tree_4_3_u00_r19_network.node[27].content_store 	decision_yes[27] 	949
scalar tree_4_3_u00_r19_network.node[27].content_store 	decision_no[27] 	8619
scalar tree_4_3_u00_r19_network.node[27].content_store 	decision_ratio[27] 	0.099184782608696
scalar tree_4_3_u00_r19_network.node[28].core_layer 	interests[28] 	13345
scalar tree_4_3_u00_r19_network.node[28].core_layer 	data[28] 	9773
scalar tree_4_3_u00_r19_network.node[28].content_store 	p_hit[28] 	0.26766579243162
scalar tree_4_3_u00_r19_network.node[28].content_store 	hits[28] 	3572
scalar tree_4_3_u00_r19_network.node[28].content_store 	misses[28] 	9773
scalar tree_4_3_u00_r19_network.node[28].content_store 	decision_yes[28] 	994
scalar tree_4_3_u00_r19_network.node[28].content_store 	decision_no[28] 	8779
scalar tree_4_3_u00_r19_network.node[28].content_store 	decision_ratio[28] 	0.10170878952215
scalar tree_4_3_u00_r19_network.node[29].core_layer 	interests[29] 	13201
scalar tree_4_3_u00_r19_network.node[29].core_layer 	data[29] 	9596
scalar tree_4_3_u00_r19_network.node[29].content_store 	p_hit[29] 	0.27308537232028
scalar tree_4_3_u00_r19_network.node[29].content_store 	hits[29] 	3605
scalar tree_4_3_u00_r19_network.node[29].content_store 	misses[29] 	9596
scalar tree_4_3_u00_r19_network.node[29].content_store 	decision_yes[29] 	951
scalar tree_4_3_u00_r19_network.node[29].content_store 	decision_no[29] 	8645
scalar tree_4_3_u00_r19_network.node[29].content_store 	decision_ratio[29] 	0.099103793247186
scalar tree_4_3_u00_r19_network.node[30].core_layer 	interests[30] 	13376
scalar tree_4_3_u00_r19_network.node[30].core_layer 	data[30] 	9715
scalar tree_4_3_u00_r19_network.node[30].content_store 	p_hit[30] 	0.27369916267943
scalar tree_4_3_u00_r19_network.node[30].content_store 	hits[30] 	3661
scalar tree_4_3_u00_r19_network.node[30].content_store 	misses[30] 	9715
scalar tree_4_3_u00_r19_network.node[30].content_store 	decision_yes[30] 	987
scalar tree_4_3_u00_r19_network.node[30].content_store 	decision_no[30] 	8728
scalar tree_4_3_u00_r19_network.node[30].content_store 	decision_ratio[30] 	0.10159547092126
scalar tree_4_3_u00_r19_network.node[31].core_layer 	interests[31] 	13014
scalar tree_4_3_u00_r19_network.node[31].core_layer 	data[31] 	9547
scalar tree_4_3_u00_r19_network.node[31].content_store 	p_hit[31] 	0.26632856923313
scalar tree_4_3_u00_r19_network.node[31].content_store 	hits[31] 	3466
scalar tree_4_3_u00_r19_network.node[31].content_store 	misses[31] 	9548
scalar tree_4_3_u00_r19_network.node[31].content_store 	decision_yes[31] 	931
scalar tree_4_3_u00_r19_network.node[31].content_store 	decision_no[31] 	8616
scalar tree_4_3_u00_r19_network.node[31].content_store 	decision_ratio[31] 	0.097517544778464
scalar tree_4_3_u00_r19_network.node[32].core_layer 	interests[32] 	13205
scalar tree_4_3_u00_r19_network.node[32].core_layer 	data[32] 	9598
scalar tree_4_3_u00_r19_network.node[32].content_store 	p_hit[32] 	0.27315410829231
scalar tree_4_3_u00_r19_network.node[32].content_store 	hits[32] 	3607
scalar tree_4_3_u00_r19_network.node[32].content_store 	misses[32] 	9598
scalar tree_4_3_u00_r19_network.node[32].content_store 	decision_yes[32] 	939
scalar tree_4_3_u00_r19_network.node[32].content_store 	decision_no[32] 	8659
scalar tree_4_3_u00_r19_network.node[32].content_store 	decision_ratio[32] 	0.097832881850385
scalar tree_4_3_u00_r19_network.node[33].core_layer 	interests[33] 	13167
scalar tree_4_3_u00_r19_network.node[33].core_layer 	data[33] 	9450
scalar tree_4_3_u00_r19_network.node[33].content_store 	p_hit[33] 	0.28222070327333
scalar tree_4_3_u00_r19_network.node[33].content_store 	hits[33] 	3716
scalar tree_4_3_u00_r19_network.node[33].content_store 	misses[33] 	9451
scalar tree_4_3_u00_r19_network.node[33].content_store 	decision_yes[33] 	943
scalar tree_4_3_u00_r19_network.node[33].content_store 	decision_no[33] 	8507
scalar tree_4_3_u00_r19_network.node[33].content_store 	decision_ratio[33] 	0.09978835978836
scalar tree_4_3_u00_r19_network.node[34].core_layer 	interests[34] 	12872
scalar tree_4_3_u00_r19_network.node[34].core_layer 	data[34] 	9360
scalar tree_4_3_u00_r19_network.node[34].content_store 	p_hit[34] 	0.27284027346178
scalar tree_4_3_u00_r19_network.node[34].content_store 	hits[34] 	3512
scalar tree_4_3_u00_r19_network.node[34].content_store 	misses[34] 	9360
scalar tree_4_3_u00_r19_network.node[34].content_store 	decision_yes[34] 	1017
scalar tree_4_3_u00_r19_network.node[34].content_store 	decision_no[34] 	8343
scalar tree_4_3_u00_r19_network.node[34].content_store 	decision_ratio[34] 	0.10865384615385
scalar tree_4_3_u00_r19_network.node[35].core_layer 	interests[35] 	12976
scalar tree_4_3_u00_r19_network.node[35].core_layer 	data[35] 	9437
scalar tree_4_3_u00_r19_network.node[35].content_store 	p_hit[35] 	0.27281134401973
scalar tree_4_3_u00_r19_network.node[35].content_store 	hits[35] 	3540
scalar tree_4_3_u00_r19_network.node[35].content_store 	misses[35] 	9436
scalar tree_4_3_u00_r19_network.node[35].content_store 	decision_yes[35] 	938
scalar tree_4_3_u00_r19_network.node[35].content_store 	decision_no[35] 	8499
scalar tree_4_3_u00_r19_network.node[35].content_store 	decision_ratio[35] 	0.099395994489774
scalar tree_4_3_u00_r19_network.node[36].core_layer 	interests[36] 	12991
scalar tree_4_3_u00_r19_network.node[36].core_layer 	data[36] 	9387
scalar tree_4_3_u00_r19_network.node[36].content_store 	p_hit[36] 	0.27742283119082
scalar tree_4_3_u00_r19_network.node[36].content_store 	hits[36] 	3604
scalar tree_4_3_u00_r19_network.node[36].content_store 	misses[36] 	9387
scalar tree_4_3_u00_r19_network.node[36].content_store 	decision_yes[36] 	975
scalar tree_4_3_u00_r19_network.node[36].content_store 	decision_no[36] 	8412
scalar tree_4_3_u00_r19_network.node[36].content_store 	decision_ratio[36] 	0.10386705017578
scalar tree_4_3_u00_r19_network.node[37].core_layer 	interests[37] 	12956
scalar tree_4_3_u00_r19_network.node[37].core_layer 	data[37] 	9397
scalar tree_4_3_u00_r19_network.node[37].content_store 	p_hit[37] 	0.27469898116703
scalar tree_4_3_u00_r19_network.node[37].content_store 	hits[37] 	3559
scalar tree_4_3_u00_r19_network.node[37].content_store 	misses[37] 	9397
scalar tree_4_3_u00_r19_network.node[37].content_store 	decision_yes[37] 	969
scalar tree_4_3_u00_r19_network.node[37].content_store 	decision_no[37] 	8428
scalar tree_4_3_u00_r19_network.node[37].content_store 	decision_ratio[37] 	0.10311801638821
scalar tree_4_3_u00_r19_network.node[38].core_layer 	interests[38] 	12931
scalar tree_4_3_u00_r19_network.node[38].core_layer 	data[38] 	9365
scalar tree_4_3_u00_r19_network.node[38].content_store 	p_hit[38] 	0.27569406851752
scalar tree_4_3_u00_r19_network.node[38].content_store 	hits[38] 	3565
scalar tree_4_3_u00_r19_network.node[38].content_store 	misses[38] 	9366
scalar tree_4_3_u00_r19_network.node[38].content_store 	decision_yes[38] 	924
scalar tree_4_3_u00_r19_network.node[38].content_store 	decision_no[38] 	8441
scalar tree_4_3_u00_r19_network.node[38].content_store 	decision_ratio[38] 	0.098665242925788
scalar tree_4_3_u00_r19_network.node[39].core_layer 	interests[39] 	12984
scalar tree_4_3_u00_r19_network.node[39].core_layer 	data[39] 	9362
scalar tree_4_3_u00_r19_network.node[39].content_store 	p_hit[39] 	0.27895871842267
scalar tree_4_3_u00_r19_network.node[39].content_store 	hits[39] 	3622
scalar tree_4_3_u00_r19_network.node[39].content_store 	misses[39] 	9362
scalar tree_4_3_u00_r19_network.node[39].content_store 	decision_yes[39] 	942
scalar tree_4_3_u00_r19_network.node[39].content_store 	decision_no[39] 	8420
scalar tree_4_3_u00_r19_network.node[39].content_store 	decision_ratio[39] 	0.10061952574236
scalar tree_4_3_u00_r19_network.client[13] 	hdistance[13] 	2.9174036375772
scalar tree_4_3_u00_r19_network.client[13] 	downloads[13] 	11986
scalar tree_4_3_u00_r19_network.client[13] 	avg_time[13] 	0.004578617925
scalar tree_4_3_u00_r19_network.client[14] 	hdistance[14] 	2.9413824731093
scalar tree_4_3_u00_r19_network.client[14] 	downloads[14] 	11993
scalar tree_4_3_u00_r19_network.client[14] 	avg_time[14] 	0.004609262927
scalar tree_4_3_u00_r19_network.client[15] 	hdistance[15] 	2.9185407296352
scalar tree_4_3_u00_r19_network.client[15] 	downloads[15] 	12006
scalar tree_4_3_u00_r19_network.client[15] 	avg_time[15] 	0.004588702637
scalar tree_4_3_u00_r19_network.client[16] 	hdistance[16] 	2.9221124304575
scalar tree_4_3_u00_r19_network.client[16] 	downloads[16] 	12043
scalar tree_4_3_u00_r19_network.client[16] 	avg_time[16] 	0.004588219719
scalar tree_4_3_u00_r19_network.client[17] 	hdistance[17] 	2.9469173808137
scalar tree_4_3_u00_r19_network.client[17] 	downloads[17] 	12019
scalar tree_4_3_u00_r19_network.client[17] 	avg_time[17] 	0.004623176967
scalar tree_4_3_u00_r19_network.client[18] 	hdistance[18] 	2.9193213008401
scalar tree_4_3_u00_r19_network.client[18] 	downloads[18] 	12023
scalar tree_4_3_u00_r19_network.client[18] 	avg_time[18] 	0.004574815371
scalar tree_4_3_u00_r19_network.client[19] 	hdistance[19] 	2.9117085719028
scalar tree_4_3_u00_r19_network.client[19] 	downloads[19] 	12051
scalar tree_4_3_u00_r19_network.client[19] 	avg_time[19] 	0.00455808653
scalar tree_4_3_u00_r19_network.client[20] 	hdistance[20] 	2.9093655589124
scalar tree_4_3_u00_r19_network.client[20] 	downloads[20] 	11916
scalar tree_4_3_u00_r19_network.client[20] 	avg_time[20] 	0.004567680318
scalar tree_4_3_u00_r19_network.client[21] 	hdistance[21] 	2.8943238731219
scalar tree_4_3_u00_r19_network.client[21] 	downloads[21] 	11980
scalar tree_4_3_u00_r19_network.client[21] 	avg_time[21] 	0.004539396043
scalar tree_4_3_u00_r19_network.client[22] 	hdistance[22] 	2.9093818426815
scalar tree_4_3_u00_r19_network.client[22] 	downloads[22] 	11874
scalar tree_4_3_u00_r19_network.client[22] 	avg_time[22] 	0.004568040211
scalar tree_4_3_u00_r19_network.client[23] 	hdistance[23] 	2.9259568778205
scalar tree_4_3_u00_r19_network.client[23] 	downloads[23] 	11966
scalar tree_4_3_u00_r19_network.client[23] 	avg_time[23] 	0.00459067057
scalar tree_4_3_u00_r19_network.client[24] 	hdistance[24] 	2.9187112763321
scalar tree_4_3_u00_r19_network.client[24] 	downloads[24] 	12105
scalar tree_4_3_u00_r19_network.client[24] 	avg_time[24] 	0.004574357049
scalar tree_4_3_u00_r19_network.client[25] 	hdistance[25] 	2.9023891343479
scalar tree_4_3_u00_r19_network.client[25] 	downloads[25] 	12222
scalar tree_4_3_u00_r19_network.client[25] 	avg_time[25] 	0.004549260677
scalar tree_4_3_u00_r19_network.client[26] 	hdistance[26] 	2.9371706192358
scalar tree_4_3_u00_r19_network.client[26] 	downloads[26] 	12144
scalar tree_4_3_u00_r19_network.client[26] 	avg_time[26] 	0.004606222286
scalar tree_4_3_u00_r19_network.client[27] 	hdistance[27] 	2.9387379857919
scalar tree_4_3_u00_r19_network.client[27] 	downloads[27] 	11965
scalar tree_4_3_u00_r19_network.client[27] 	avg_time[27] 	0.00461763177
scalar tree_4_3_u00_r19_network.client[28] 	hdistance[28] 	2.9365066427582
scalar tree_4_3_u00_r19_network.client[28] 	downloads[28] 	12269
scalar tree_4_3_u00_r19_network.client[28] 	avg_time[28] 	0.004605099212
scalar tree_4_3_u00_r19_network.client[29] 	hdistance[29] 	2.928101349128
scalar tree_4_3_u00_r19_network.client[29] 	downloads[29] 	12156
scalar tree_4_3_u00_r19_network.client[29] 	avg_time[29] 	0.004595768795
scalar tree_4_3_u00_r19_network.client[30] 	hdistance[30] 	2.944263097764
scalar tree_4_3_u00_r19_network.client[30] 	downloads[30] 	12254
scalar tree_4_3_u00_r19_network.client[30] 	avg_time[30] 	0.004619549749
scalar tree_4_3_u00_r19_network.client[31] 	hdistance[31] 	2.935639447863
scalar tree_4_3_u00_r19_network.client[31] 	downloads[31] 	12026
scalar tree_4_3_u00_r19_network.client[31] 	avg_time[31] 	0.004594043237
scalar tree_4_3_u00_r19_network.client[32] 	hdistance[32] 	2.935619487264
scalar tree_4_3_u00_r19_network.client[32] 	downloads[32] 	12131
scalar tree_4_3_u00_r19_network.client[32] 	avg_time[32] 	0.004595990706
scalar tree_4_3_u00_r19_network.client[33] 	hdistance[33] 	2.8937401802696
scalar tree_4_3_u00_r19_network.client[33] 	downloads[33] 	12093
scalar tree_4_3_u00_r19_network.client[33] 	avg_time[33] 	0.004539809461
scalar tree_4_3_u00_r19_network.client[34] 	hdistance[34] 	2.9158641662443
scalar tree_4_3_u00_r19_network.client[34] 	downloads[34] 	11838
scalar tree_4_3_u00_r19_network.client[34] 	avg_time[34] 	0.004573235759
scalar tree_4_3_u00_r19_network.client[35] 	hdistance[35] 	2.9216130114017
scalar tree_4_3_u00_r19_network.client[35] 	downloads[35] 	11928
scalar tree_4_3_u00_r19_network.client[35] 	avg_time[35] 	0.004583833369
scalar tree_4_3_u00_r19_network.client[36] 	hdistance[36] 	2.9110329228449
scalar tree_4_3_u00_r19_network.client[36] 	downloads[36] 	11937
scalar tree_4_3_u00_r19_network.client[36] 	avg_time[36] 	0.004561109534
scalar tree_4_3_u00_r19_network.client[37] 	hdistance[37] 	2.9164146505376
scalar tree_4_3_u00_r19_network.client[37] 	downloads[37] 	11904
scalar tree_4_3_u00_r19_network.client[37] 	avg_time[37] 	0.004568017685
scalar tree_4_3_u00_r19_network.client[38] 	hdistance[38] 	2.913340646359
scalar tree_4_3_u00_r19_network.client[38] 	downloads[38] 	11851
scalar tree_4_3_u00_r19_network.client[38] 	avg_time[38] 	0.004566831082
scalar tree_4_3_u00_r19_network.client[39] 	hdistance[39] 	2.9060036894181
scalar tree_4_3_u00_r19_network.client[39] 	downloads[39] 	11926
scalar tree_4_3_u00_r19_network.client[39] 	avg_time[39] 	0.00455408727
