version 2
run General-4-20160819-06:45:41-13837
attr a 0.9
attr cd fix0.1
attr configname General
attr cr lru
attr datetime 20160819-06:45:41
attr experiment General
attr fsize 1
attr inifile hw5115/scenario_A/NRR-FIX0.1.ini
attr iterationvars "$name=tree_4_3, $un=00, $rep=5, $cd=fix0.1, $cr=lru, $fsize=1, $a=0.9, $sl=nrr, $ttl=1000, $variance=0.05"
attr iterationvars2 "$name=tree_4_3, $un=00, $rep=5, $cd=fix0.1, $cr=lru, $fsize=1, $a=0.9, $sl=nrr, $ttl=1000, $variance=0.05, $repetition=0"
attr measurement "$name=tree_4_3, $un=00, $rep=5, $cd=fix0.1, $cr=lru, $fsize=1, $a=0.9, $sl=nrr, $ttl=1000, $variance=0.05"
attr name tree_4_3
attr network networks.${name}_u${un}_r${rep}_network
attr processid 13837
attr rep 5
attr repetition 0
attr replication #0
attr resultdir results
attr runnumber 4
attr seedset 5
attr sl nrr
attr ttl 1000
attr un 00
attr variance 0.05

scalar . 	a 	0.9
scalar . 	fsize 	1
scalar . 	rep 	5
scalar . 	ttl 	1000
scalar . 	un 	00
scalar . 	variance 	0.05
scalar tree_4_3_u00_r5_network.content_distribution 	repo-0 	0
scalar tree_4_3_u00_r5_network.content_distribution 	client-0 	13
scalar tree_4_3_u00_r5_network.content_distribution 	client-1 	14
scalar tree_4_3_u00_r5_network.content_distribution 	client-2 	15
scalar tree_4_3_u00_r5_network.content_distribution 	client-3 	16
scalar tree_4_3_u00_r5_network.content_distribution 	client-4 	17
scalar tree_4_3_u00_r5_network.content_distribution 	client-5 	18
scalar tree_4_3_u00_r5_network.content_distribution 	client-6 	19
scalar tree_4_3_u00_r5_network.content_distribution 	client-7 	20
scalar tree_4_3_u00_r5_network.content_distribution 	client-8 	21
scalar tree_4_3_u00_r5_network.content_distribution 	client-9 	22
scalar tree_4_3_u00_r5_network.content_distribution 	client-10 	23
scalar tree_4_3_u00_r5_network.content_distribution 	client-11 	24
scalar tree_4_3_u00_r5_network.content_distribution 	client-12 	25
scalar tree_4_3_u00_r5_network.content_distribution 	client-13 	26
scalar tree_4_3_u00_r5_network.content_distribution 	client-14 	27
scalar tree_4_3_u00_r5_network.content_distribution 	client-15 	28
scalar tree_4_3_u00_r5_network.content_distribution 	client-16 	29
scalar tree_4_3_u00_r5_network.content_distribution 	client-17 	30
scalar tree_4_3_u00_r5_network.content_distribution 	client-18 	31
scalar tree_4_3_u00_r5_network.content_distribution 	client-19 	32
scalar tree_4_3_u00_r5_network.content_distribution 	client-20 	33
scalar tree_4_3_u00_r5_network.content_distribution 	client-21 	34
scalar tree_4_3_u00_r5_network.content_distribution 	client-22 	35
scalar tree_4_3_u00_r5_network.content_distribution 	client-23 	36
scalar tree_4_3_u00_r5_network.content_distribution 	client-24 	37
scalar tree_4_3_u00_r5_network.content_distribution 	client-25 	38
scalar tree_4_3_u00_r5_network.content_distribution 	client-26 	39
scalar tree_4_3_u00_r5_network.content_distribution 	repo-0_card 	100000
scalar tree_4_3_u00_r5_network.content_distribution 	repo-0_price 	0
scalar tree_4_3_u00_r5_network.statistics 	stabilization_time 	752.9
scalar tree_4_3_u00_r5_network.statistics 	p_hit 	0.20278169572106
scalar tree_4_3_u00_r5_network.statistics 	interests 	26583.8
scalar tree_4_3_u00_r5_network.statistics 	data 	18487.9
scalar tree_4_3_u00_r5_network.statistics 	hdistance 	2.9105498396924
scalar tree_4_3_u00_r5_network.statistics 	avg_time 	0.004567491668
scalar tree_4_3_u00_r5_network.statistics 	downloads 	323816
scalar tree_4_3_u00_r5_network.statistics 	total_cost 	0
scalar tree_4_3_u00_r5_network.statistics 	total_replicas 	100000
scalar tree_4_3_u00_r5_network.statistics 	inner_hit 	0.37323356474047
scalar tree_4_3_u00_r5_network.node[0].core_layer 	interests[0] 	204676
scalar tree_4_3_u00_r5_network.node[0].core_layer 	repo_load[0] 	202957
scalar tree_4_3_u00_r5_network.node[0].core_layer 	data[0] 	0
scalar tree_4_3_u00_r5_network.node[0].core_layer 	repo_int[0] 	202957
scalar tree_4_3_u00_r5_network.node[0].content_store 	p_hit[0] 	0.0083986398014423
scalar tree_4_3_u00_r5_network.node[0].content_store 	hits[0] 	1719
scalar tree_4_3_u00_r5_network.node[0].content_store 	misses[0] 	202957
scalar tree_4_3_u00_r5_network.node[0].content_store 	decision_yes[0] 	20425
scalar tree_4_3_u00_r5_network.node[0].content_store 	decision_no[0] 	182532
scalar tree_4_3_u00_r5_network.node[0].content_store 	decision_ratio[0] 	0.10063708076095
scalar tree_4_3_u00_r5_network.node[1].core_layer 	interests[1] 	76444
scalar tree_4_3_u00_r5_network.node[1].core_layer 	data[1] 	75376
scalar tree_4_3_u00_r5_network.node[1].content_store 	p_hit[1] 	0.013905604102349
scalar tree_4_3_u00_r5_network.node[1].content_store 	hits[1] 	1063
scalar tree_4_3_u00_r5_network.node[1].content_store 	misses[1] 	75381
scalar tree_4_3_u00_r5_network.node[1].content_store 	decision_yes[1] 	7681
scalar tree_4_3_u00_r5_network.node[1].content_store 	decision_no[1] 	67694
scalar tree_4_3_u00_r5_network.node[1].content_store 	decision_ratio[1] 	0.10190381426202
scalar tree_4_3_u00_r5_network.node[2].core_layer 	interests[2] 	76131
scalar tree_4_3_u00_r5_network.node[2].core_layer 	data[2] 	75018
scalar tree_4_3_u00_r5_network.node[2].content_store 	p_hit[2] 	0.01459326686895
scalar tree_4_3_u00_r5_network.node[2].content_store 	hits[2] 	1111
scalar tree_4_3_u00_r5_network.node[2].content_store 	misses[2] 	75020
scalar tree_4_3_u00_r5_network.node[2].content_store 	decision_yes[2] 	7497
scalar tree_4_3_u00_r5_network.node[2].content_store 	decision_no[2] 	67521
scalar tree_4_3_u00_r5_network.node[2].content_store 	decision_ratio[2] 	0.099936015356314
scalar tree_4_3_u00_r5_network.node[3].core_layer 	interests[3] 	76339
scalar tree_4_3_u00_r5_network.node[3].core_layer 	data[3] 	75142
scalar tree_4_3_u00_r5_network.node[3].content_store 	p_hit[3] 	0.015640760292904
scalar tree_4_3_u00_r5_network.node[3].content_store 	hits[3] 	1194
scalar tree_4_3_u00_r5_network.node[3].content_store 	misses[3] 	75145
scalar tree_4_3_u00_r5_network.node[3].content_store 	decision_yes[3] 	7454
scalar tree_4_3_u00_r5_network.node[3].content_store 	decision_no[3] 	67686
scalar tree_4_3_u00_r5_network.node[3].content_store 	decision_ratio[3] 	0.099201490550972
scalar tree_4_3_u00_r5_network.node[4].core_layer 	interests[4] 	30855
scalar tree_4_3_u00_r5_network.node[4].core_layer 	data[4] 	28933
scalar tree_4_3_u00_r5_network.node[4].content_store 	p_hit[4] 	0.062258953168044
scalar tree_4_3_u00_r5_network.node[4].content_store 	hits[4] 	1921
scalar tree_4_3_u00_r5_network.node[4].content_store 	misses[4] 	28934
scalar tree_4_3_u00_r5_network.node[4].content_store 	decision_yes[4] 	2806
scalar tree_4_3_u00_r5_network.node[4].content_store 	decision_no[4] 	26127
scalar tree_4_3_u00_r5_network.node[4].content_store 	decision_ratio[4] 	0.096982684132306
scalar tree_4_3_u00_r5_network.node[5].core_layer 	interests[5] 	30506
scalar tree_4_3_u00_r5_network.node[5].core_layer 	data[5] 	28379
scalar tree_4_3_u00_r5_network.node[5].content_store 	p_hit[5] 	0.06972398872353
scalar tree_4_3_u00_r5_network.node[5].content_store 	hits[5] 	2127
scalar tree_4_3_u00_r5_network.node[5].content_store 	misses[5] 	28379
scalar tree_4_3_u00_r5_network.node[5].content_store 	decision_yes[5] 	2802
scalar tree_4_3_u00_r5_network.node[5].content_store 	decision_no[5] 	25577
scalar tree_4_3_u00_r5_network.node[5].content_store 	decision_ratio[5] 	0.098734980090912
scalar tree_4_3_u00_r5_network.node[6].core_layer 	interests[6] 	30697
scalar tree_4_3_u00_r5_network.node[6].core_layer 	data[6] 	28774
scalar tree_4_3_u00_r5_network.node[6].content_store 	p_hit[6] 	0.062611981626869
scalar tree_4_3_u00_r5_network.node[6].content_store 	hits[6] 	1922
scalar tree_4_3_u00_r5_network.node[6].content_store 	misses[6] 	28775
scalar tree_4_3_u00_r5_network.node[6].content_store 	decision_yes[6] 	2876
scalar tree_4_3_u00_r5_network.node[6].content_store 	decision_no[6] 	25897
scalar tree_4_3_u00_r5_network.node[6].content_store 	decision_ratio[6] 	0.099954818753693
scalar tree_4_3_u00_r5_network.node[7].core_layer 	interests[7] 	30523
scalar tree_4_3_u00_r5_network.node[7].core_layer 	data[7] 	28574
scalar tree_4_3_u00_r5_network.node[7].content_store 	p_hit[7] 	0.063853487533991
scalar tree_4_3_u00_r5_network.node[7].content_store 	hits[7] 	1949
scalar tree_4_3_u00_r5_network.node[7].content_store 	misses[7] 	28574
scalar tree_4_3_u00_r5_network.node[7].content_store 	decision_yes[7] 	2818
scalar tree_4_3_u00_r5_network.node[7].content_store 	decision_no[7] 	25756
scalar tree_4_3_u00_r5_network.node[7].content_store 	decision_ratio[7] 	0.098621124098831
scalar tree_4_3_u00_r5_network.node[8].core_layer 	interests[8] 	30849
scalar tree_4_3_u00_r5_network.node[8].core_layer 	data[8] 	28870
scalar tree_4_3_u00_r5_network.node[8].content_store 	p_hit[8] 	0.064118772083374
scalar tree_4_3_u00_r5_network.node[8].content_store 	hits[8] 	1978
scalar tree_4_3_u00_r5_network.node[8].content_store 	misses[8] 	28871
scalar tree_4_3_u00_r5_network.node[8].content_store 	decision_yes[8] 	2867
scalar tree_4_3_u00_r5_network.node[8].content_store 	decision_no[8] 	26003
scalar tree_4_3_u00_r5_network.node[8].content_store 	decision_ratio[8] 	0.099307239348805
scalar tree_4_3_u00_r5_network.node[9].core_layer 	interests[9] 	30718
scalar tree_4_3_u00_r5_network.node[9].core_layer 	data[9] 	28689
scalar tree_4_3_u00_r5_network.node[9].content_store 	p_hit[9] 	0.065987368969334
scalar tree_4_3_u00_r5_network.node[9].content_store 	hits[9] 	2027
scalar tree_4_3_u00_r5_network.node[9].content_store 	misses[9] 	28691
scalar tree_4_3_u00_r5_network.node[9].content_store 	decision_yes[9] 	2871
scalar tree_4_3_u00_r5_network.node[9].content_store 	decision_no[9] 	25818
scalar tree_4_3_u00_r5_network.node[9].content_store 	decision_ratio[9] 	0.10007319878699
scalar tree_4_3_u00_r5_network.node[10].core_layer 	interests[10] 	31016
scalar tree_4_3_u00_r5_network.node[10].core_layer 	data[10] 	28912
scalar tree_4_3_u00_r5_network.node[10].content_store 	p_hit[10] 	0.067771472788238
scalar tree_4_3_u00_r5_network.node[10].content_store 	hits[10] 	2102
scalar tree_4_3_u00_r5_network.node[10].content_store 	misses[10] 	28914
scalar tree_4_3_u00_r5_network.node[10].content_store 	decision_yes[10] 	2915
scalar tree_4_3_u00_r5_network.node[10].content_store 	decision_no[10] 	25997
scalar tree_4_3_u00_r5_network.node[10].content_store 	decision_ratio[10] 	0.10082318760376
scalar tree_4_3_u00_r5_network.node[11].core_layer 	interests[11] 	30515
scalar tree_4_3_u00_r5_network.node[11].core_layer 	data[11] 	28551
scalar tree_4_3_u00_r5_network.node[11].content_store 	p_hit[11] 	0.064329018515484
scalar tree_4_3_u00_r5_network.node[11].content_store 	hits[11] 	1963
scalar tree_4_3_u00_r5_network.node[11].content_store 	misses[11] 	28552
scalar tree_4_3_u00_r5_network.node[11].content_store 	decision_yes[11] 	2844
scalar tree_4_3_u00_r5_network.node[11].content_store 	decision_no[11] 	25707
scalar tree_4_3_u00_r5_network.node[11].content_store 	decision_ratio[11] 	0.099611222023747
scalar tree_4_3_u00_r5_network.node[12].core_layer 	interests[12] 	30710
scalar tree_4_3_u00_r5_network.node[12].core_layer 	data[12] 	28775
scalar tree_4_3_u00_r5_network.node[12].content_store 	p_hit[12] 	0.062976229241289
scalar tree_4_3_u00_r5_network.node[12].content_store 	hits[12] 	1934
scalar tree_4_3_u00_r5_network.node[12].content_store 	misses[12] 	28776
scalar tree_4_3_u00_r5_network.node[12].content_store 	decision_yes[12] 	2788
scalar tree_4_3_u00_r5_network.node[12].content_store 	decision_no[12] 	25987
scalar tree_4_3_u00_r5_network.node[12].content_store 	decision_ratio[12] 	0.096889661164205
scalar tree_4_3_u00_r5_network.node[13].core_layer 	interests[13] 	12952
scalar tree_4_3_u00_r5_network.node[13].core_layer 	data[13] 	9410
scalar tree_4_3_u00_r5_network.node[13].content_store 	p_hit[13] 	0.27347127856702
scalar tree_4_3_u00_r5_network.node[13].content_store 	hits[13] 	3542
scalar tree_4_3_u00_r5_network.node[13].content_store 	misses[13] 	9410
scalar tree_4_3_u00_r5_network.node[13].content_store 	decision_yes[13] 	927
scalar tree_4_3_u00_r5_network.node[13].content_store 	decision_no[13] 	8483
scalar tree_4_3_u00_r5_network.node[13].content_store 	decision_ratio[13] 	0.098512221041445
scalar tree_4_3_u00_r5_network.node[14].core_layer 	interests[14] 	13235
scalar tree_4_3_u00_r5_network.node[14].core_layer 	data[14] 	9853
scalar tree_4_3_u00_r5_network.node[14].content_store 	p_hit[14] 	0.25545901020023
scalar tree_4_3_u00_r5_network.node[14].content_store 	hits[14] 	3381
scalar tree_4_3_u00_r5_network.node[14].content_store 	misses[14] 	9854
scalar tree_4_3_u00_r5_network.node[14].content_store 	decision_yes[14] 	976
scalar tree_4_3_u00_r5_network.node[14].content_store 	decision_no[14] 	8877
scalar tree_4_3_u00_r5_network.node[14].content_store 	decision_ratio[14] 	0.099056125038059
scalar tree_4_3_u00_r5_network.node[15].core_layer 	interests[15] 	13221
scalar tree_4_3_u00_r5_network.node[15].core_layer 	data[15] 	9288
scalar tree_4_3_u00_r5_network.node[15].content_store 	p_hit[15] 	0.29740564253839
scalar tree_4_3_u00_r5_network.node[15].content_store 	hits[15] 	3932
scalar tree_4_3_u00_r5_network.node[15].content_store 	misses[15] 	9289
scalar tree_4_3_u00_r5_network.node[15].content_store 	decision_yes[15] 	959
scalar tree_4_3_u00_r5_network.node[15].content_store 	decision_no[15] 	8329
scalar tree_4_3_u00_r5_network.node[15].content_store 	decision_ratio[15] 	0.10325150732127
scalar tree_4_3_u00_r5_network.node[16].core_layer 	interests[16] 	12806
scalar tree_4_3_u00_r5_network.node[16].core_layer 	data[16] 	9383
scalar tree_4_3_u00_r5_network.node[16].content_store 	p_hit[16] 	0.26729657972825
scalar tree_4_3_u00_r5_network.node[16].content_store 	hits[16] 	3423
scalar tree_4_3_u00_r5_network.node[16].content_store 	misses[16] 	9383
scalar tree_4_3_u00_r5_network.node[16].content_store 	decision_yes[16] 	912
scalar tree_4_3_u00_r5_network.node[16].content_store 	decision_no[16] 	8471
scalar tree_4_3_u00_r5_network.node[16].content_store 	decision_ratio[16] 	0.097197058510071
scalar tree_4_3_u00_r5_network.node[17].core_layer 	interests[17] 	13111
scalar tree_4_3_u00_r5_network.node[17].core_layer 	data[17] 	9421
scalar tree_4_3_u00_r5_network.node[17].content_store 	p_hit[17] 	0.28144306307681
scalar tree_4_3_u00_r5_network.node[17].content_store 	hits[17] 	3690
scalar tree_4_3_u00_r5_network.node[17].content_store 	misses[17] 	9421
scalar tree_4_3_u00_r5_network.node[17].content_store 	decision_yes[17] 	944
scalar tree_4_3_u00_r5_network.node[17].content_store 	decision_no[17] 	8477
scalar tree_4_3_u00_r5_network.node[17].content_store 	decision_ratio[17] 	0.10020167710434
scalar tree_4_3_u00_r5_network.node[18].core_layer 	interests[18] 	13018
scalar tree_4_3_u00_r5_network.node[18].core_layer 	data[18] 	9352
scalar tree_4_3_u00_r5_network.node[18].content_store 	p_hit[18] 	0.28153326163773
scalar tree_4_3_u00_r5_network.node[18].content_store 	hits[18] 	3665
scalar tree_4_3_u00_r5_network.node[18].content_store 	misses[18] 	9353
scalar tree_4_3_u00_r5_network.node[18].content_store 	decision_yes[18] 	933
scalar tree_4_3_u00_r5_network.node[18].content_store 	decision_no[18] 	8419
scalar tree_4_3_u00_r5_network.node[18].content_store 	decision_ratio[18] 	0.099764756201882
scalar tree_4_3_u00_r5_network.node[19].core_layer 	interests[19] 	13298
scalar tree_4_3_u00_r5_network.node[19].core_layer 	data[19] 	9612
scalar tree_4_3_u00_r5_network.node[19].content_store 	p_hit[19] 	0.27718453902843
scalar tree_4_3_u00_r5_network.node[19].content_store 	hits[19] 	3686
scalar tree_4_3_u00_r5_network.node[19].content_store 	misses[19] 	9612
scalar tree_4_3_u00_r5_network.node[19].content_store 	decision_yes[19] 	946
scalar tree_4_3_u00_r5_network.node[19].content_store 	decision_no[19] 	8666
scalar tree_4_3_u00_r5_network.node[19].content_store 	decision_ratio[19] 	0.098418643362464
scalar tree_4_3_u00_r5_network.node[20].core_layer 	interests[20] 	13062
scalar tree_4_3_u00_r5_network.node[20].core_layer 	data[20] 	9492
scalar tree_4_3_u00_r5_network.node[20].content_store 	p_hit[20] 	0.27331189710611
scalar tree_4_3_u00_r5_network.node[20].content_store 	hits[20] 	3570
scalar tree_4_3_u00_r5_network.node[20].content_store 	misses[20] 	9492
scalar tree_4_3_u00_r5_network.node[20].content_store 	decision_yes[20] 	915
scalar tree_4_3_u00_r5_network.node[20].content_store 	decision_no[20] 	8577
scalar tree_4_3_u00_r5_network.node[20].content_store 	decision_ratio[20] 	0.096396965865992
scalar tree_4_3_u00_r5_network.node[21].core_layer 	interests[21] 	12927
scalar tree_4_3_u00_r5_network.node[21].core_layer 	data[21] 	9365
scalar tree_4_3_u00_r5_network.node[21].content_store 	p_hit[21] 	0.27554730409221
scalar tree_4_3_u00_r5_network.node[21].content_store 	hits[21] 	3562
scalar tree_4_3_u00_r5_network.node[21].content_store 	misses[21] 	9365
scalar tree_4_3_u00_r5_network.node[21].content_store 	decision_yes[21] 	969
scalar tree_4_3_u00_r5_network.node[21].content_store 	decision_no[21] 	8396
scalar tree_4_3_u00_r5_network.node[21].content_store 	decision_ratio[21] 	0.10347036839295
scalar tree_4_3_u00_r5_network.node[22].core_layer 	interests[22] 	12877
scalar tree_4_3_u00_r5_network.node[22].core_layer 	data[22] 	9356
scalar tree_4_3_u00_r5_network.node[22].content_store 	p_hit[22] 	0.2734332530869
scalar tree_4_3_u00_r5_network.node[22].content_store 	hits[22] 	3521
scalar tree_4_3_u00_r5_network.node[22].content_store 	misses[22] 	9356
scalar tree_4_3_u00_r5_network.node[22].content_store 	decision_yes[22] 	935
scalar tree_4_3_u00_r5_network.node[22].content_store 	decision_no[22] 	8421
scalar tree_4_3_u00_r5_network.node[22].content_store 	decision_ratio[22] 	0.099935870029927
scalar tree_4_3_u00_r5_network.node[23].core_layer 	interests[23] 	13159
scalar tree_4_3_u00_r5_network.node[23].core_layer 	data[23] 	9433
scalar tree_4_3_u00_r5_network.node[23].content_store 	p_hit[23] 	0.28315221521392
scalar tree_4_3_u00_r5_network.node[23].content_store 	hits[23] 	3726
scalar tree_4_3_u00_r5_network.node[23].content_store 	misses[23] 	9433
scalar tree_4_3_u00_r5_network.node[23].content_store 	decision_yes[23] 	1005
scalar tree_4_3_u00_r5_network.node[23].content_store 	decision_no[23] 	8428
scalar tree_4_3_u00_r5_network.node[23].content_store 	decision_ratio[23] 	0.10654086716845
scalar tree_4_3_u00_r5_network.node[24].core_layer 	interests[24] 	13134
scalar tree_4_3_u00_r5_network.node[24].core_layer 	data[24] 	9464
scalar tree_4_3_u00_r5_network.node[24].content_store 	p_hit[24] 	0.27942744023146
scalar tree_4_3_u00_r5_network.node[24].content_store 	hits[24] 	3670
scalar tree_4_3_u00_r5_network.node[24].content_store 	misses[24] 	9464
scalar tree_4_3_u00_r5_network.node[24].content_store 	decision_yes[24] 	957
scalar tree_4_3_u00_r5_network.node[24].content_store 	decision_no[24] 	8507
scalar tree_4_3_u00_r5_network.node[24].content_store 	decision_ratio[24] 	0.10112003381234
scalar tree_4_3_u00_r5_network.node[25].core_layer 	interests[25] 	13186
scalar tree_4_3_u00_r5_network.node[25].core_layer 	data[25] 	9496
scalar tree_4_3_u00_r5_network.node[25].content_store 	p_hit[25] 	0.27976641892917
scalar tree_4_3_u00_r5_network.node[25].content_store 	hits[25] 	3689
scalar tree_4_3_u00_r5_network.node[25].content_store 	misses[25] 	9497
scalar tree_4_3_u00_r5_network.node[25].content_store 	decision_yes[25] 	932
scalar tree_4_3_u00_r5_network.node[25].content_store 	decision_no[25] 	8564
scalar tree_4_3_u00_r5_network.node[25].content_store 	decision_ratio[25] 	0.098146588037068
scalar tree_4_3_u00_r5_network.node[26].core_layer 	interests[26] 	13052
scalar tree_4_3_u00_r5_network.node[26].core_layer 	data[26] 	9505
scalar tree_4_3_u00_r5_network.node[26].content_store 	p_hit[26] 	0.27160588415568
scalar tree_4_3_u00_r5_network.node[26].content_store 	hits[26] 	3545
scalar tree_4_3_u00_r5_network.node[26].content_store 	misses[26] 	9507
scalar tree_4_3_u00_r5_network.node[26].content_store 	decision_yes[26] 	974
scalar tree_4_3_u00_r5_network.node[26].content_store 	decision_no[26] 	8531
scalar tree_4_3_u00_r5_network.node[26].content_store 	decision_ratio[26] 	0.10247238295634
scalar tree_4_3_u00_r5_network.node[27].core_layer 	interests[27] 	13171
scalar tree_4_3_u00_r5_network.node[27].core_layer 	data[27] 	9566
scalar tree_4_3_u00_r5_network.node[27].content_store 	p_hit[27] 	0.27370738744211
scalar tree_4_3_u00_r5_network.node[27].content_store 	hits[27] 	3605
scalar tree_4_3_u00_r5_network.node[27].content_store 	misses[27] 	9566
scalar tree_4_3_u00_r5_network.node[27].content_store 	decision_yes[27] 	973
scalar tree_4_3_u00_r5_network.node[27].content_store 	decision_no[27] 	8593
scalar tree_4_3_u00_r5_network.node[27].content_store 	decision_ratio[27] 	0.10171440518503
scalar tree_4_3_u00_r5_network.node[28].core_layer 	interests[28] 	13055
scalar tree_4_3_u00_r5_network.node[28].core_layer 	data[28] 	9464
scalar tree_4_3_u00_r5_network.node[28].content_store 	p_hit[28] 	0.27499042512447
scalar tree_4_3_u00_r5_network.node[28].content_store 	hits[28] 	3590
scalar tree_4_3_u00_r5_network.node[28].content_store 	misses[28] 	9465
scalar tree_4_3_u00_r5_network.node[28].content_store 	decision_yes[28] 	994
scalar tree_4_3_u00_r5_network.node[28].content_store 	decision_no[28] 	8470
scalar tree_4_3_u00_r5_network.node[28].content_store 	decision_ratio[28] 	0.10502958579882
scalar tree_4_3_u00_r5_network.node[29].core_layer 	interests[29] 	13128
scalar tree_4_3_u00_r5_network.node[29].core_layer 	data[29] 	9415
scalar tree_4_3_u00_r5_network.node[29].content_store 	p_hit[29] 	0.28283059110299
scalar tree_4_3_u00_r5_network.node[29].content_store 	hits[29] 	3713
scalar tree_4_3_u00_r5_network.node[29].content_store 	misses[29] 	9415
scalar tree_4_3_u00_r5_network.node[29].content_store 	decision_yes[29] 	955
scalar tree_4_3_u00_r5_network.node[29].content_store 	decision_no[29] 	8460
scalar tree_4_3_u00_r5_network.node[29].content_store 	decision_ratio[29] 	0.10143388210303
scalar tree_4_3_u00_r5_network.node[30].core_layer 	interests[30] 	13141
scalar tree_4_3_u00_r5_network.node[30].core_layer 	data[30] 	9468
scalar tree_4_3_u00_r5_network.node[30].content_store 	p_hit[30] 	0.27950688684271
scalar tree_4_3_u00_r5_network.node[30].content_store 	hits[30] 	3673
scalar tree_4_3_u00_r5_network.node[30].content_store 	misses[30] 	9468
scalar tree_4_3_u00_r5_network.node[30].content_store 	decision_yes[30] 	925
scalar tree_4_3_u00_r5_network.node[30].content_store 	decision_no[30] 	8543
scalar tree_4_3_u00_r5_network.node[30].content_store 	decision_ratio[30] 	0.097697507393325
scalar tree_4_3_u00_r5_network.node[31].core_layer 	interests[31] 	13257
scalar tree_4_3_u00_r5_network.node[31].core_layer 	data[31] 	9594
scalar tree_4_3_u00_r5_network.node[31].content_store 	p_hit[31] 	0.27630685675492
scalar tree_4_3_u00_r5_network.node[31].content_store 	hits[31] 	3663
scalar tree_4_3_u00_r5_network.node[31].content_store 	misses[31] 	9594
scalar tree_4_3_u00_r5_network.node[31].content_store 	decision_yes[31] 	941
scalar tree_4_3_u00_r5_network.node[31].content_store 	decision_no[31] 	8653
scalar tree_4_3_u00_r5_network.node[31].content_store 	decision_ratio[31] 	0.098082134667501
scalar tree_4_3_u00_r5_network.node[32].core_layer 	interests[32] 	13119
scalar tree_4_3_u00_r5_network.node[32].core_layer 	data[32] 	9476
scalar tree_4_3_u00_r5_network.node[32].content_store 	p_hit[32] 	0.27768884823538
scalar tree_4_3_u00_r5_network.node[32].content_store 	hits[32] 	3643
scalar tree_4_3_u00_r5_network.node[32].content_store 	misses[32] 	9476
scalar tree_4_3_u00_r5_network.node[32].content_store 	decision_yes[32] 	984
scalar tree_4_3_u00_r5_network.node[32].content_store 	decision_no[32] 	8492
scalar tree_4_3_u00_r5_network.node[32].content_store 	decision_ratio[32] 	0.10384128324187
scalar tree_4_3_u00_r5_network.node[33].core_layer 	interests[33] 	13181
scalar tree_4_3_u00_r5_network.node[33].core_layer 	data[33] 	9492
scalar tree_4_3_u00_r5_network.node[33].content_store 	p_hit[33] 	0.27987254381306
scalar tree_4_3_u00_r5_network.node[33].content_store 	hits[33] 	3689
scalar tree_4_3_u00_r5_network.node[33].content_store 	misses[33] 	9492
scalar tree_4_3_u00_r5_network.node[33].content_store 	decision_yes[33] 	925
scalar tree_4_3_u00_r5_network.node[33].content_store 	decision_no[33] 	8567
scalar tree_4_3_u00_r5_network.node[33].content_store 	decision_ratio[33] 	0.097450484618626
scalar tree_4_3_u00_r5_network.node[34].core_layer 	interests[34] 	13079
scalar tree_4_3_u00_r5_network.node[34].core_layer 	data[34] 	9375
scalar tree_4_3_u00_r5_network.node[34].content_store 	p_hit[34] 	0.28312562122486
scalar tree_4_3_u00_r5_network.node[34].content_store 	hits[34] 	3703
scalar tree_4_3_u00_r5_network.node[34].content_store 	misses[34] 	9376
scalar tree_4_3_u00_r5_network.node[34].content_store 	decision_yes[34] 	928
scalar tree_4_3_u00_r5_network.node[34].content_store 	decision_no[34] 	8447
scalar tree_4_3_u00_r5_network.node[34].content_store 	decision_ratio[34] 	0.098986666666667
scalar tree_4_3_u00_r5_network.node[35].core_layer 	interests[35] 	13084
scalar tree_4_3_u00_r5_network.node[35].core_layer 	data[35] 	9529
scalar tree_4_3_u00_r5_network.node[35].content_store 	p_hit[35] 	0.27162947110975
scalar tree_4_3_u00_r5_network.node[35].content_store 	hits[35] 	3554
scalar tree_4_3_u00_r5_network.node[35].content_store 	misses[35] 	9530
scalar tree_4_3_u00_r5_network.node[35].content_store 	decision_yes[35] 	923
scalar tree_4_3_u00_r5_network.node[35].content_store 	decision_no[35] 	8606
scalar tree_4_3_u00_r5_network.node[35].content_store 	decision_ratio[35] 	0.096862210095498
scalar tree_4_3_u00_r5_network.node[36].core_layer 	interests[36] 	13079
scalar tree_4_3_u00_r5_network.node[36].core_layer 	data[36] 	9328
scalar tree_4_3_u00_r5_network.node[36].content_store 	p_hit[36] 	0.28679562657696
scalar tree_4_3_u00_r5_network.node[36].content_store 	hits[36] 	3751
scalar tree_4_3_u00_r5_network.node[36].content_store 	misses[36] 	9328
scalar tree_4_3_u00_r5_network.node[36].content_store 	decision_yes[36] 	950
scalar tree_4_3_u00_r5_network.node[36].content_store 	decision_no[36] 	8378
scalar tree_4_3_u00_r5_network.node[36].content_store 	decision_ratio[36] 	0.10184391080617
scalar tree_4_3_u00_r5_network.node[37].core_layer 	interests[37] 	12953
scalar tree_4_3_u00_r5_network.node[37].core_layer 	data[37] 	9397
scalar tree_4_3_u00_r5_network.node[37].content_store 	p_hit[37] 	0.27453099668031
scalar tree_4_3_u00_r5_network.node[37].content_store 	hits[37] 	3556
scalar tree_4_3_u00_r5_network.node[37].content_store 	misses[37] 	9397
scalar tree_4_3_u00_r5_network.node[37].content_store 	decision_yes[37] 	951
scalar tree_4_3_u00_r5_network.node[37].content_store 	decision_no[37] 	8446
scalar tree_4_3_u00_r5_network.node[37].content_store 	decision_ratio[37] 	0.10120251143982
scalar tree_4_3_u00_r5_network.node[38].core_layer 	interests[38] 	13025
scalar tree_4_3_u00_r5_network.node[38].core_layer 	data[38] 	9510
scalar tree_4_3_u00_r5_network.node[38].content_store 	p_hit[38] 	0.26986564299424
scalar tree_4_3_u00_r5_network.node[38].content_store 	hits[38] 	3515
scalar tree_4_3_u00_r5_network.node[38].content_store 	misses[38] 	9510
scalar tree_4_3_u00_r5_network.node[38].content_store 	decision_yes[38] 	942
scalar tree_4_3_u00_r5_network.node[38].content_store 	decision_no[38] 	8568
scalar tree_4_3_u00_r5_network.node[38].content_store 	decision_ratio[38] 	0.099053627760252
scalar tree_4_3_u00_r5_network.node[39].core_layer 	interests[39] 	13063
scalar tree_4_3_u00_r5_network.node[39].core_layer 	data[39] 	9479
scalar tree_4_3_u00_r5_network.node[39].content_store 	p_hit[39] 	0.27420959963255
scalar tree_4_3_u00_r5_network.node[39].content_store 	hits[39] 	3582
scalar tree_4_3_u00_r5_network.node[39].content_store 	misses[39] 	9481
scalar tree_4_3_u00_r5_network.node[39].content_store 	decision_yes[39] 	939
scalar tree_4_3_u00_r5_network.node[39].content_store 	decision_no[39] 	8540
scalar tree_4_3_u00_r5_network.node[39].content_store 	decision_ratio[39] 	0.099061082392657
scalar tree_4_3_u00_r5_network.client[13] 	hdistance[13] 	2.9311795389534
scalar tree_4_3_u00_r5_network.client[13] 	downloads[13] 	11886
scalar tree_4_3_u00_r5_network.client[13] 	avg_time[13] 	0.004593636592
scalar tree_4_3_u00_r5_network.client[14] 	hdistance[14] 	2.9709978699001
scalar tree_4_3_u00_r5_network.client[14] 	downloads[14] 	12206
scalar tree_4_3_u00_r5_network.client[14] 	avg_time[14] 	0.004664622664
scalar tree_4_3_u00_r5_network.client[15] 	hdistance[15] 	2.8650542118432
scalar tree_4_3_u00_r5_network.client[15] 	downloads[15] 	11990
scalar tree_4_3_u00_r5_network.client[15] 	avg_time[15] 	0.004487236385
scalar tree_4_3_u00_r5_network.client[16] 	hdistance[16] 	2.9200811016305
scalar tree_4_3_u00_r5_network.client[16] 	downloads[16] 	11837
scalar tree_4_3_u00_r5_network.client[16] 	avg_time[16] 	0.004584773557
scalar tree_4_3_u00_r5_network.client[17] 	hdistance[17] 	2.9039264828739
scalar tree_4_3_u00_r5_network.client[17] 	downloads[17] 	11970
scalar tree_4_3_u00_r5_network.client[17] 	avg_time[17] 	0.004546195838
scalar tree_4_3_u00_r5_network.client[18] 	hdistance[18] 	2.8896071188717
scalar tree_4_3_u00_r5_network.client[18] 	downloads[18] 	11912
scalar tree_4_3_u00_r5_network.client[18] 	avg_time[18] 	0.004533824817
scalar tree_4_3_u00_r5_network.client[19] 	hdistance[19] 	2.9155997716709
scalar tree_4_3_u00_r5_network.client[19] 	downloads[19] 	12263
scalar tree_4_3_u00_r5_network.client[19] 	avg_time[19] 	0.00456828367
scalar tree_4_3_u00_r5_network.client[20] 	hdistance[20] 	2.9286072144289
scalar tree_4_3_u00_r5_network.client[20] 	downloads[20] 	11976
scalar tree_4_3_u00_r5_network.client[20] 	avg_time[20] 	0.004594018396
scalar tree_4_3_u00_r5_network.client[21] 	hdistance[21] 	2.8940890823845
scalar tree_4_3_u00_r5_network.client[21] 	downloads[21] 	11944
scalar tree_4_3_u00_r5_network.client[21] 	avg_time[21] 	0.004538175198
scalar tree_4_3_u00_r5_network.client[22] 	hdistance[22] 	2.906837028262
scalar tree_4_3_u00_r5_network.client[22] 	downloads[22] 	11818
scalar tree_4_3_u00_r5_network.client[22] 	avg_time[22] 	0.00456675961
scalar tree_4_3_u00_r5_network.client[23] 	hdistance[23] 	2.9015984015984
scalar tree_4_3_u00_r5_network.client[23] 	downloads[23] 	12012
scalar tree_4_3_u00_r5_network.client[23] 	avg_time[23] 	0.004554276061
scalar tree_4_3_u00_r5_network.client[24] 	hdistance[24] 	2.9045560359162
scalar tree_4_3_u00_r5_network.client[24] 	downloads[24] 	12028
scalar tree_4_3_u00_r5_network.client[24] 	avg_time[24] 	0.004560688729
scalar tree_4_3_u00_r5_network.client[25] 	hdistance[25] 	2.899071156079
scalar tree_4_3_u00_r5_network.client[25] 	downloads[25] 	12058
scalar tree_4_3_u00_r5_network.client[25] 	avg_time[25] 	0.004555976408
scalar tree_4_3_u00_r5_network.client[26] 	hdistance[26] 	2.9276616998252
scalar tree_4_3_u00_r5_network.client[26] 	downloads[26] 	12013
scalar tree_4_3_u00_r5_network.client[26] 	avg_time[26] 	0.004598801179
scalar tree_4_3_u00_r5_network.client[27] 	hdistance[27] 	2.9213473823944
scalar tree_4_3_u00_r5_network.client[27] 	downloads[27] 	12053
scalar tree_4_3_u00_r5_network.client[27] 	avg_time[27] 	0.004584415779
scalar tree_4_3_u00_r5_network.client[28] 	hdistance[28] 	2.9173789173789
scalar tree_4_3_u00_r5_network.client[28] 	downloads[28] 	11934
scalar tree_4_3_u00_r5_network.client[28] 	avg_time[28] 	0.004575914268
scalar tree_4_3_u00_r5_network.client[29] 	hdistance[29] 	2.9043158246905
scalar tree_4_3_u00_r5_network.client[29] 	downloads[29] 	11956
scalar tree_4_3_u00_r5_network.client[29] 	avg_time[29] 	0.004553024787
scalar tree_4_3_u00_r5_network.client[30] 	hdistance[30] 	2.8942115768463
scalar tree_4_3_u00_r5_network.client[30] 	downloads[30] 	12024
scalar tree_4_3_u00_r5_network.client[30] 	avg_time[30] 	0.004542911144
scalar tree_4_3_u00_r5_network.client[31] 	hdistance[31] 	2.899925932022
scalar tree_4_3_u00_r5_network.client[31] 	downloads[31] 	12151
scalar tree_4_3_u00_r5_network.client[31] 	avg_time[31] 	0.004551556481
scalar tree_4_3_u00_r5_network.client[32] 	hdistance[32] 	2.9156505762485
scalar tree_4_3_u00_r5_network.client[32] 	downloads[32] 	11974
scalar tree_4_3_u00_r5_network.client[32] 	avg_time[32] 	0.004573420853
scalar tree_4_3_u00_r5_network.client[33] 	hdistance[33] 	2.9143738535935
scalar tree_4_3_u00_r5_network.client[33] 	downloads[33] 	11994
scalar tree_4_3_u00_r5_network.client[33] 	avg_time[33] 	0.004569781898
scalar tree_4_3_u00_r5_network.client[34] 	hdistance[34] 	2.8983121657754
scalar tree_4_3_u00_r5_network.client[34] 	downloads[34] 	11968
scalar tree_4_3_u00_r5_network.client[34] 	avg_time[34] 	0.0045461606
scalar tree_4_3_u00_r5_network.client[35] 	hdistance[35] 	2.8873899810809
scalar tree_4_3_u00_r5_network.client[35] 	downloads[35] 	12157
scalar tree_4_3_u00_r5_network.client[35] 	avg_time[35] 	0.004540052123
scalar tree_4_3_u00_r5_network.client[36] 	hdistance[36] 	2.8866186568414
scalar tree_4_3_u00_r5_network.client[36] 	downloads[36] 	11942
scalar tree_4_3_u00_r5_network.client[36] 	avg_time[36] 	0.004538097855
scalar tree_4_3_u00_r5_network.client[37] 	hdistance[37] 	2.9189553496209
scalar tree_4_3_u00_r5_network.client[37] 	downloads[37] 	11870
scalar tree_4_3_u00_r5_network.client[37] 	avg_time[37] 	0.004584290033
scalar tree_4_3_u00_r5_network.client[38] 	hdistance[38] 	2.9291041649208
scalar tree_4_3_u00_r5_network.client[38] 	downloads[38] 	11933
scalar tree_4_3_u00_r5_network.client[38] 	avg_time[38] 	0.004604203801
scalar tree_4_3_u00_r5_network.client[39] 	hdistance[39] 	2.9383945760442
scalar tree_4_3_u00_r5_network.client[39] 	downloads[39] 	11947
scalar tree_4_3_u00_r5_network.client[39] 	avg_time[39] 	0.004611176315
