version 2
run General-13-20160819-06:55:08-13837
attr a 0.9
attr cd fix0.1
attr configname General
attr cr lru
attr datetime 20160819-06:55:08
attr experiment General
attr fsize 1
attr inifile hw5115/scenario_A/NRR-FIX0.1.ini
attr iterationvars "$name=tree_4_3, $un=00, $rep=14, $cd=fix0.1, $cr=lru, $fsize=1, $a=0.9, $sl=nrr, $ttl=1000, $variance=0.05"
attr iterationvars2 "$name=tree_4_3, $un=00, $rep=14, $cd=fix0.1, $cr=lru, $fsize=1, $a=0.9, $sl=nrr, $ttl=1000, $variance=0.05, $repetition=0"
attr measurement "$name=tree_4_3, $un=00, $rep=14, $cd=fix0.1, $cr=lru, $fsize=1, $a=0.9, $sl=nrr, $ttl=1000, $variance=0.05"
attr name tree_4_3
attr network networks.${name}_u${un}_r${rep}_network
attr processid 13837
attr rep 14
attr repetition 0
attr replication #0
attr resultdir results
attr runnumber 13
attr seedset 14
attr sl nrr
attr ttl 1000
attr un 00
attr variance 0.05

scalar . 	a 	0.9
scalar . 	fsize 	1
scalar . 	rep 	14
scalar . 	ttl 	1000
scalar . 	un 	00
scalar . 	variance 	0.05
scalar tree_4_3_u00_r14_network.content_distribution 	repo-0 	0
scalar tree_4_3_u00_r14_network.content_distribution 	client-0 	13
scalar tree_4_3_u00_r14_network.content_distribution 	client-1 	14
scalar tree_4_3_u00_r14_network.content_distribution 	client-2 	15
scalar tree_4_3_u00_r14_network.content_distribution 	client-3 	16
scalar tree_4_3_u00_r14_network.content_distribution 	client-4 	17
scalar tree_4_3_u00_r14_network.content_distribution 	client-5 	18
scalar tree_4_3_u00_r14_network.content_distribution 	client-6 	19
scalar tree_4_3_u00_r14_network.content_distribution 	client-7 	20
scalar tree_4_3_u00_r14_network.content_distribution 	client-8 	21
scalar tree_4_3_u00_r14_network.content_distribution 	client-9 	22
scalar tree_4_3_u00_r14_network.content_distribution 	client-10 	23
scalar tree_4_3_u00_r14_network.content_distribution 	client-11 	24
scalar tree_4_3_u00_r14_network.content_distribution 	client-12 	25
scalar tree_4_3_u00_r14_network.content_distribution 	client-13 	26
scalar tree_4_3_u00_r14_network.content_distribution 	client-14 	27
scalar tree_4_3_u00_r14_network.content_distribution 	client-15 	28
scalar tree_4_3_u00_r14_network.content_distribution 	client-16 	29
scalar tree_4_3_u00_r14_network.content_distribution 	client-17 	30
scalar tree_4_3_u00_r14_network.content_distribution 	client-18 	31
scalar tree_4_3_u00_r14_network.content_distribution 	client-19 	32
scalar tree_4_3_u00_r14_network.content_distribution 	client-20 	33
scalar tree_4_3_u00_r14_network.content_distribution 	client-21 	34
scalar tree_4_3_u00_r14_network.content_distribution 	client-22 	35
scalar tree_4_3_u00_r14_network.content_distribution 	client-23 	36
scalar tree_4_3_u00_r14_network.content_distribution 	client-24 	37
scalar tree_4_3_u00_r14_network.content_distribution 	client-25 	38
scalar tree_4_3_u00_r14_network.content_distribution 	client-26 	39
scalar tree_4_3_u00_r14_network.content_distribution 	repo-0_card 	100000
scalar tree_4_3_u00_r14_network.content_distribution 	repo-0_price 	0
scalar tree_4_3_u00_r14_network.statistics 	stabilization_time 	748.4
scalar tree_4_3_u00_r14_network.statistics 	p_hit 	0.20132227607511
scalar tree_4_3_u00_r14_network.statistics 	interests 	26630.225
scalar tree_4_3_u00_r14_network.statistics 	data 	18535.075
scalar tree_4_3_u00_r14_network.statistics 	hdistance 	2.9194987804579
scalar tree_4_3_u00_r14_network.statistics 	avg_time 	0.004579377848
scalar tree_4_3_u00_r14_network.statistics 	downloads 	323801
scalar tree_4_3_u00_r14_network.statistics 	total_cost 	0
scalar tree_4_3_u00_r14_network.statistics 	total_replicas 	100000
scalar tree_4_3_u00_r14_network.statistics 	inner_hit 	0.37021812780072
scalar tree_4_3_u00_r14_network.node[0].core_layer 	interests[0] 	205702
scalar tree_4_3_u00_r14_network.node[0].core_layer 	repo_load[0] 	203924
scalar tree_4_3_u00_r14_network.node[0].core_layer 	data[0] 	0
scalar tree_4_3_u00_r14_network.node[0].core_layer 	repo_int[0] 	203924
scalar tree_4_3_u00_r14_network.node[0].content_store 	p_hit[0] 	0.0086435717688695
scalar tree_4_3_u00_r14_network.node[0].content_store 	hits[0] 	1778
scalar tree_4_3_u00_r14_network.node[0].content_store 	misses[0] 	203924
scalar tree_4_3_u00_r14_network.node[0].content_store 	decision_yes[0] 	20441
scalar tree_4_3_u00_r14_network.node[0].content_store 	decision_no[0] 	183483
scalar tree_4_3_u00_r14_network.node[0].content_store 	decision_ratio[0] 	0.10023832408152
scalar tree_4_3_u00_r14_network.node[1].core_layer 	interests[1] 	76811
scalar tree_4_3_u00_r14_network.node[1].core_layer 	data[1] 	75758
scalar tree_4_3_u00_r14_network.node[1].content_store 	p_hit[1] 	0.013695955006444
scalar tree_4_3_u00_r14_network.node[1].content_store 	hits[1] 	1052
scalar tree_4_3_u00_r14_network.node[1].content_store 	misses[1] 	75759
scalar tree_4_3_u00_r14_network.node[1].content_store 	decision_yes[1] 	7595
scalar tree_4_3_u00_r14_network.node[1].content_store 	decision_no[1] 	68162
scalar tree_4_3_u00_r14_network.node[1].content_store 	decision_ratio[1] 	0.10025476193619
scalar tree_4_3_u00_r14_network.node[2].core_layer 	interests[2] 	76647
scalar tree_4_3_u00_r14_network.node[2].core_layer 	data[2] 	75547
scalar tree_4_3_u00_r14_network.node[2].content_store 	p_hit[2] 	0.01433846073558
scalar tree_4_3_u00_r14_network.node[2].content_store 	hits[2] 	1099
scalar tree_4_3_u00_r14_network.node[2].content_store 	misses[2] 	75548
scalar tree_4_3_u00_r14_network.node[2].content_store 	decision_yes[2] 	7523
scalar tree_4_3_u00_r14_network.node[2].content_store 	decision_no[2] 	68024
scalar tree_4_3_u00_r14_network.node[2].content_store 	decision_ratio[2] 	0.099580393662224
scalar tree_4_3_u00_r14_network.node[3].core_layer 	interests[3] 	76359
scalar tree_4_3_u00_r14_network.node[3].core_layer 	data[3] 	75379
scalar tree_4_3_u00_r14_network.node[3].content_store 	p_hit[3] 	0.012834112547309
scalar tree_4_3_u00_r14_network.node[3].content_store 	hits[3] 	980
scalar tree_4_3_u00_r14_network.node[3].content_store 	misses[3] 	75379
scalar tree_4_3_u00_r14_network.node[3].content_store 	decision_yes[3] 	7636
scalar tree_4_3_u00_r14_network.node[3].content_store 	decision_no[3] 	67741
scalar tree_4_3_u00_r14_network.node[3].content_store 	decision_ratio[3] 	0.1013041113337
scalar tree_4_3_u00_r14_network.node[4].core_layer 	interests[4] 	31026
scalar tree_4_3_u00_r14_network.node[4].core_layer 	data[4] 	29015
scalar tree_4_3_u00_r14_network.node[4].content_store 	p_hit[4] 	0.064816605427706
scalar tree_4_3_u00_r14_network.node[4].content_store 	hits[4] 	2011
scalar tree_4_3_u00_r14_network.node[4].content_store 	misses[4] 	29015
scalar tree_4_3_u00_r14_network.node[4].content_store 	decision_yes[4] 	2878
scalar tree_4_3_u00_r14_network.node[4].content_store 	decision_no[4] 	26137
scalar tree_4_3_u00_r14_network.node[4].content_store 	decision_ratio[4] 	0.099190074099604
scalar tree_4_3_u00_r14_network.node[5].core_layer 	interests[5] 	30873
scalar tree_4_3_u00_r14_network.node[5].core_layer 	data[5] 	28819
scalar tree_4_3_u00_r14_network.node[5].content_store 	p_hit[5] 	0.066530625465617
scalar tree_4_3_u00_r14_network.node[5].content_store 	hits[5] 	2054
scalar tree_4_3_u00_r14_network.node[5].content_store 	misses[5] 	28819
scalar tree_4_3_u00_r14_network.node[5].content_store 	decision_yes[5] 	2856
scalar tree_4_3_u00_r14_network.node[5].content_store 	decision_no[5] 	25962
scalar tree_4_3_u00_r14_network.node[5].content_store 	decision_ratio[5] 	0.099104726212784
scalar tree_4_3_u00_r14_network.node[6].core_layer 	interests[6] 	30598
scalar tree_4_3_u00_r14_network.node[6].core_layer 	data[6] 	28618
scalar tree_4_3_u00_r14_network.node[6].content_store 	p_hit[6] 	0.064710111772011
scalar tree_4_3_u00_r14_network.node[6].content_store 	hits[6] 	1980
scalar tree_4_3_u00_r14_network.node[6].content_store 	misses[6] 	28618
scalar tree_4_3_u00_r14_network.node[6].content_store 	decision_yes[6] 	2834
scalar tree_4_3_u00_r14_network.node[6].content_store 	decision_no[6] 	25784
scalar tree_4_3_u00_r14_network.node[6].content_store 	decision_ratio[6] 	0.099028583409043
scalar tree_4_3_u00_r14_network.node[7].core_layer 	interests[7] 	30677
scalar tree_4_3_u00_r14_network.node[7].core_layer 	data[7] 	28667
scalar tree_4_3_u00_r14_network.node[7].content_store 	p_hit[7] 	0.065488802686051
scalar tree_4_3_u00_r14_network.node[7].content_store 	hits[7] 	2009
scalar tree_4_3_u00_r14_network.node[7].content_store 	misses[7] 	28668
scalar tree_4_3_u00_r14_network.node[7].content_store 	decision_yes[7] 	2875
scalar tree_4_3_u00_r14_network.node[7].content_store 	decision_no[7] 	25792
scalar tree_4_3_u00_r14_network.node[7].content_store 	decision_ratio[7] 	0.10028953151708
scalar tree_4_3_u00_r14_network.node[8].core_layer 	interests[8] 	30933
scalar tree_4_3_u00_r14_network.node[8].core_layer 	data[8] 	28957
scalar tree_4_3_u00_r14_network.node[8].content_store 	p_hit[8] 	0.063815342837746
scalar tree_4_3_u00_r14_network.node[8].content_store 	hits[8] 	1974
scalar tree_4_3_u00_r14_network.node[8].content_store 	misses[8] 	28959
scalar tree_4_3_u00_r14_network.node[8].content_store 	decision_yes[8] 	2952
scalar tree_4_3_u00_r14_network.node[8].content_store 	decision_no[8] 	26005
scalar tree_4_3_u00_r14_network.node[8].content_store 	decision_ratio[8] 	0.10194426218186
scalar tree_4_3_u00_r14_network.node[9].core_layer 	interests[9] 	30772
scalar tree_4_3_u00_r14_network.node[9].core_layer 	data[9] 	28665
scalar tree_4_3_u00_r14_network.node[9].content_store 	p_hit[9] 	0.068438840504355
scalar tree_4_3_u00_r14_network.node[9].content_store 	hits[9] 	2106
scalar tree_4_3_u00_r14_network.node[9].content_store 	misses[9] 	28666
scalar tree_4_3_u00_r14_network.node[9].content_store 	decision_yes[9] 	2838
scalar tree_4_3_u00_r14_network.node[9].content_store 	decision_no[9] 	25827
scalar tree_4_3_u00_r14_network.node[9].content_store 	decision_ratio[9] 	0.099005756148613
scalar tree_4_3_u00_r14_network.node[10].core_layer 	interests[10] 	30790
scalar tree_4_3_u00_r14_network.node[10].core_layer 	data[10] 	28805
scalar tree_4_3_u00_r14_network.node[10].content_store 	p_hit[10] 	0.064501461513478
scalar tree_4_3_u00_r14_network.node[10].content_store 	hits[10] 	1986
scalar tree_4_3_u00_r14_network.node[10].content_store 	misses[10] 	28804
scalar tree_4_3_u00_r14_network.node[10].content_store 	decision_yes[10] 	2861
scalar tree_4_3_u00_r14_network.node[10].content_store 	decision_no[10] 	25944
scalar tree_4_3_u00_r14_network.node[10].content_store 	decision_ratio[10] 	0.099323034195452
scalar tree_4_3_u00_r14_network.node[11].core_layer 	interests[11] 	30610
scalar tree_4_3_u00_r14_network.node[11].core_layer 	data[11] 	28672
scalar tree_4_3_u00_r14_network.node[11].content_store 	p_hit[11] 	0.063247304802352
scalar tree_4_3_u00_r14_network.node[11].content_store 	hits[11] 	1936
scalar tree_4_3_u00_r14_network.node[11].content_store 	misses[11] 	28674
scalar tree_4_3_u00_r14_network.node[11].content_store 	decision_yes[11] 	2850
scalar tree_4_3_u00_r14_network.node[11].content_store 	decision_no[11] 	25822
scalar tree_4_3_u00_r14_network.node[11].content_store 	decision_ratio[11] 	0.099400111607143
scalar tree_4_3_u00_r14_network.node[12].core_layer 	interests[12] 	30585
scalar tree_4_3_u00_r14_network.node[12].core_layer 	data[12] 	28619
scalar tree_4_3_u00_r14_network.node[12].content_store 	p_hit[12] 	0.06427987575609
scalar tree_4_3_u00_r14_network.node[12].content_store 	hits[12] 	1966
scalar tree_4_3_u00_r14_network.node[12].content_store 	misses[12] 	28619
scalar tree_4_3_u00_r14_network.node[12].content_store 	decision_yes[12] 	2793
scalar tree_4_3_u00_r14_network.node[12].content_store 	decision_no[12] 	25826
scalar tree_4_3_u00_r14_network.node[12].content_store 	decision_ratio[12] 	0.097592508473392
scalar tree_4_3_u00_r14_network.node[13].core_layer 	interests[13] 	13034
scalar tree_4_3_u00_r14_network.node[13].core_layer 	data[13] 	9354
scalar tree_4_3_u00_r14_network.node[13].content_store 	p_hit[13] 	0.2823384993095
scalar tree_4_3_u00_r14_network.node[13].content_store 	hits[13] 	3680
scalar tree_4_3_u00_r14_network.node[13].content_store 	misses[13] 	9354
scalar tree_4_3_u00_r14_network.node[13].content_store 	decision_yes[13] 	932
scalar tree_4_3_u00_r14_network.node[13].content_store 	decision_no[13] 	8422
scalar tree_4_3_u00_r14_network.node[13].content_store 	decision_ratio[13] 	0.099636519136198
scalar tree_4_3_u00_r14_network.node[14].core_layer 	interests[14] 	13195
scalar tree_4_3_u00_r14_network.node[14].core_layer 	data[14] 	9537
scalar tree_4_3_u00_r14_network.node[14].content_store 	p_hit[14] 	0.27722622205381
scalar tree_4_3_u00_r14_network.node[14].content_store 	hits[14] 	3658
scalar tree_4_3_u00_r14_network.node[14].content_store 	misses[14] 	9537
scalar tree_4_3_u00_r14_network.node[14].content_store 	decision_yes[14] 	949
scalar tree_4_3_u00_r14_network.node[14].content_store 	decision_no[14] 	8588
scalar tree_4_3_u00_r14_network.node[14].content_store 	decision_ratio[14] 	0.099507182552165
scalar tree_4_3_u00_r14_network.node[15].core_layer 	interests[15] 	13294
scalar tree_4_3_u00_r14_network.node[15].core_layer 	data[15] 	9724
scalar tree_4_3_u00_r14_network.node[15].content_store 	p_hit[15] 	0.26854219948849
scalar tree_4_3_u00_r14_network.node[15].content_store 	hits[15] 	3570
scalar tree_4_3_u00_r14_network.node[15].content_store 	misses[15] 	9724
scalar tree_4_3_u00_r14_network.node[15].content_store 	decision_yes[15] 	1029
scalar tree_4_3_u00_r14_network.node[15].content_store 	decision_no[15] 	8695
scalar tree_4_3_u00_r14_network.node[15].content_store 	decision_ratio[15] 	0.1058206499383
scalar tree_4_3_u00_r14_network.node[16].core_layer 	interests[16] 	13263
scalar tree_4_3_u00_r14_network.node[16].core_layer 	data[16] 	9459
scalar tree_4_3_u00_r14_network.node[16].content_store 	p_hit[16] 	0.28681293824926
scalar tree_4_3_u00_r14_network.node[16].content_store 	hits[16] 	3804
scalar tree_4_3_u00_r14_network.node[16].content_store 	misses[16] 	9459
scalar tree_4_3_u00_r14_network.node[16].content_store 	decision_yes[16] 	965
scalar tree_4_3_u00_r14_network.node[16].content_store 	decision_no[16] 	8494
scalar tree_4_3_u00_r14_network.node[16].content_store 	decision_ratio[16] 	0.10201924093456
scalar tree_4_3_u00_r14_network.node[17].core_layer 	interests[17] 	12992
scalar tree_4_3_u00_r14_network.node[17].core_layer 	data[17] 	9427
scalar tree_4_3_u00_r14_network.node[17].content_store 	p_hit[17] 	0.27439963054187
scalar tree_4_3_u00_r14_network.node[17].content_store 	hits[17] 	3565
scalar tree_4_3_u00_r14_network.node[17].content_store 	misses[17] 	9427
scalar tree_4_3_u00_r14_network.node[17].content_store 	decision_yes[17] 	908
scalar tree_4_3_u00_r14_network.node[17].content_store 	decision_no[17] 	8519
scalar tree_4_3_u00_r14_network.node[17].content_store 	decision_ratio[17] 	0.096319083483611
scalar tree_4_3_u00_r14_network.node[18].core_layer 	interests[18] 	13124
scalar tree_4_3_u00_r14_network.node[18].core_layer 	data[18] 	9607
scalar tree_4_3_u00_r14_network.node[18].content_store 	p_hit[18] 	0.26798232246266
scalar tree_4_3_u00_r14_network.node[18].content_store 	hits[18] 	3517
scalar tree_4_3_u00_r14_network.node[18].content_store 	misses[18] 	9607
scalar tree_4_3_u00_r14_network.node[18].content_store 	decision_yes[18] 	960
scalar tree_4_3_u00_r14_network.node[18].content_store 	decision_no[18] 	8647
scalar tree_4_3_u00_r14_network.node[18].content_store 	decision_ratio[18] 	0.099927136462996
scalar tree_4_3_u00_r14_network.node[19].core_layer 	interests[19] 	13011
scalar tree_4_3_u00_r14_network.node[19].core_layer 	data[19] 	9491
scalar tree_4_3_u00_r14_network.node[19].content_store 	p_hit[19] 	0.27054031204366
scalar tree_4_3_u00_r14_network.node[19].content_store 	hits[19] 	3520
scalar tree_4_3_u00_r14_network.node[19].content_store 	misses[19] 	9491
scalar tree_4_3_u00_r14_network.node[19].content_store 	decision_yes[19] 	948
scalar tree_4_3_u00_r14_network.node[19].content_store 	decision_no[19] 	8543
scalar tree_4_3_u00_r14_network.node[19].content_store 	decision_ratio[19] 	0.099884100727005
scalar tree_4_3_u00_r14_network.node[20].core_layer 	interests[20] 	12834
scalar tree_4_3_u00_r14_network.node[20].core_layer 	data[20] 	9386
scalar tree_4_3_u00_r14_network.node[20].content_store 	p_hit[20] 	0.26858345021038
scalar tree_4_3_u00_r14_network.node[20].content_store 	hits[20] 	3447
scalar tree_4_3_u00_r14_network.node[20].content_store 	misses[20] 	9387
scalar tree_4_3_u00_r14_network.node[20].content_store 	decision_yes[20] 	962
scalar tree_4_3_u00_r14_network.node[20].content_store 	decision_no[20] 	8424
scalar tree_4_3_u00_r14_network.node[20].content_store 	decision_ratio[20] 	0.10249307479224
scalar tree_4_3_u00_r14_network.node[21].core_layer 	interests[21] 	13141
scalar tree_4_3_u00_r14_network.node[21].core_layer 	data[21] 	9455
scalar tree_4_3_u00_r14_network.node[21].content_store 	p_hit[21] 	0.28042005935621
scalar tree_4_3_u00_r14_network.node[21].content_store 	hits[21] 	3685
scalar tree_4_3_u00_r14_network.node[21].content_store 	misses[21] 	9456
scalar tree_4_3_u00_r14_network.node[21].content_store 	decision_yes[21] 	926
scalar tree_4_3_u00_r14_network.node[21].content_store 	decision_no[21] 	8529
scalar tree_4_3_u00_r14_network.node[21].content_store 	decision_ratio[21] 	0.097937599153887
scalar tree_4_3_u00_r14_network.node[22].core_layer 	interests[22] 	12923
scalar tree_4_3_u00_r14_network.node[22].core_layer 	data[22] 	9368
scalar tree_4_3_u00_r14_network.node[22].content_store 	p_hit[22] 	0.27501354174727
scalar tree_4_3_u00_r14_network.node[22].content_store 	hits[22] 	3554
scalar tree_4_3_u00_r14_network.node[22].content_store 	misses[22] 	9369
scalar tree_4_3_u00_r14_network.node[22].content_store 	decision_yes[22] 	945
scalar tree_4_3_u00_r14_network.node[22].content_store 	decision_no[22] 	8423
scalar tree_4_3_u00_r14_network.node[22].content_store 	decision_ratio[22] 	0.10087532023911
scalar tree_4_3_u00_r14_network.node[23].core_layer 	interests[23] 	13022
scalar tree_4_3_u00_r14_network.node[23].core_layer 	data[23] 	9616
scalar tree_4_3_u00_r14_network.node[23].content_store 	p_hit[23] 	0.26155736446014
scalar tree_4_3_u00_r14_network.node[23].content_store 	hits[23] 	3406
scalar tree_4_3_u00_r14_network.node[23].content_store 	misses[23] 	9616
scalar tree_4_3_u00_r14_network.node[23].content_store 	decision_yes[23] 	1022
scalar tree_4_3_u00_r14_network.node[23].content_store 	decision_no[23] 	8594
scalar tree_4_3_u00_r14_network.node[23].content_store 	decision_ratio[23] 	0.10628119800333
scalar tree_4_3_u00_r14_network.node[24].core_layer 	interests[24] 	13079
scalar tree_4_3_u00_r14_network.node[24].core_layer 	data[24] 	9412
scalar tree_4_3_u00_r14_network.node[24].content_store 	p_hit[24] 	0.2803731172108
scalar tree_4_3_u00_r14_network.node[24].content_store 	hits[24] 	3667
scalar tree_4_3_u00_r14_network.node[24].content_store 	misses[24] 	9412
scalar tree_4_3_u00_r14_network.node[24].content_store 	decision_yes[24] 	924
scalar tree_4_3_u00_r14_network.node[24].content_store 	decision_no[24] 	8488
scalar tree_4_3_u00_r14_network.node[24].content_store 	decision_ratio[24] 	0.098172545686358
scalar tree_4_3_u00_r14_network.node[25].core_layer 	interests[25] 	13204
scalar tree_4_3_u00_r14_network.node[25].core_layer 	data[25] 	9685
scalar tree_4_3_u00_r14_network.node[25].content_store 	p_hit[25] 	0.26651014843987
scalar tree_4_3_u00_r14_network.node[25].content_store 	hits[25] 	3519
scalar tree_4_3_u00_r14_network.node[25].content_store 	misses[25] 	9685
scalar tree_4_3_u00_r14_network.node[25].content_store 	decision_yes[25] 	976
scalar tree_4_3_u00_r14_network.node[25].content_store 	decision_no[25] 	8709
scalar tree_4_3_u00_r14_network.node[25].content_store 	decision_ratio[25] 	0.10077439339184
scalar tree_4_3_u00_r14_network.node[26].core_layer 	interests[26] 	13133
scalar tree_4_3_u00_r14_network.node[26].core_layer 	data[26] 	9426
scalar tree_4_3_u00_r14_network.node[26].content_store 	p_hit[26] 	0.28226604736161
scalar tree_4_3_u00_r14_network.node[26].content_store 	hits[26] 	3707
scalar tree_4_3_u00_r14_network.node[26].content_store 	misses[26] 	9426
scalar tree_4_3_u00_r14_network.node[26].content_store 	decision_yes[26] 	987
scalar tree_4_3_u00_r14_network.node[26].content_store 	decision_no[26] 	8439
scalar tree_4_3_u00_r14_network.node[26].content_store 	decision_ratio[26] 	0.10471037555697
scalar tree_4_3_u00_r14_network.node[27].core_layer 	interests[27] 	13118
scalar tree_4_3_u00_r14_network.node[27].core_layer 	data[27] 	9455
scalar tree_4_3_u00_r14_network.node[27].content_store 	p_hit[27] 	0.27923463942674
scalar tree_4_3_u00_r14_network.node[27].content_store 	hits[27] 	3663
scalar tree_4_3_u00_r14_network.node[27].content_store 	misses[27] 	9455
scalar tree_4_3_u00_r14_network.node[27].content_store 	decision_yes[27] 	929
scalar tree_4_3_u00_r14_network.node[27].content_store 	decision_no[27] 	8526
scalar tree_4_3_u00_r14_network.node[27].content_store 	decision_ratio[27] 	0.09825489159175
scalar tree_4_3_u00_r14_network.node[28].core_layer 	interests[28] 	13033
scalar tree_4_3_u00_r14_network.node[28].core_layer 	data[28] 	9575
scalar tree_4_3_u00_r14_network.node[28].content_store 	p_hit[28] 	0.26532647893808
scalar tree_4_3_u00_r14_network.node[28].content_store 	hits[28] 	3458
scalar tree_4_3_u00_r14_network.node[28].content_store 	misses[28] 	9575
scalar tree_4_3_u00_r14_network.node[28].content_store 	decision_yes[28] 	976
scalar tree_4_3_u00_r14_network.node[28].content_store 	decision_no[28] 	8599
scalar tree_4_3_u00_r14_network.node[28].content_store 	decision_ratio[28] 	0.10193211488251
scalar tree_4_3_u00_r14_network.node[29].core_layer 	interests[29] 	13058
scalar tree_4_3_u00_r14_network.node[29].core_layer 	data[29] 	9515
scalar tree_4_3_u00_r14_network.node[29].content_store 	p_hit[29] 	0.27132792158064
scalar tree_4_3_u00_r14_network.node[29].content_store 	hits[29] 	3543
scalar tree_4_3_u00_r14_network.node[29].content_store 	misses[29] 	9515
scalar tree_4_3_u00_r14_network.node[29].content_store 	decision_yes[29] 	934
scalar tree_4_3_u00_r14_network.node[29].content_store 	decision_no[29] 	8581
scalar tree_4_3_u00_r14_network.node[29].content_store 	decision_ratio[29] 	0.098160798738833
scalar tree_4_3_u00_r14_network.node[30].core_layer 	interests[30] 	12862
scalar tree_4_3_u00_r14_network.node[30].core_layer 	data[30] 	9297
scalar tree_4_3_u00_r14_network.node[30].content_store 	p_hit[30] 	0.27709531954595
scalar tree_4_3_u00_r14_network.node[30].content_store 	hits[30] 	3564
scalar tree_4_3_u00_r14_network.node[30].content_store 	misses[30] 	9298
scalar tree_4_3_u00_r14_network.node[30].content_store 	decision_yes[30] 	986
scalar tree_4_3_u00_r14_network.node[30].content_store 	decision_no[30] 	8311
scalar tree_4_3_u00_r14_network.node[30].content_store 	decision_ratio[30] 	0.10605571689792
scalar tree_4_3_u00_r14_network.node[31].core_layer 	interests[31] 	13201
scalar tree_4_3_u00_r14_network.node[31].core_layer 	data[31] 	9505
scalar tree_4_3_u00_r14_network.node[31].content_store 	p_hit[31] 	0.27997878948565
scalar tree_4_3_u00_r14_network.node[31].content_store 	hits[31] 	3696
scalar tree_4_3_u00_r14_network.node[31].content_store 	misses[31] 	9505
scalar tree_4_3_u00_r14_network.node[31].content_store 	decision_yes[31] 	951
scalar tree_4_3_u00_r14_network.node[31].content_store 	decision_no[31] 	8554
scalar tree_4_3_u00_r14_network.node[31].content_store 	decision_ratio[31] 	0.10005260389269
scalar tree_4_3_u00_r14_network.node[32].core_layer 	interests[32] 	13110
scalar tree_4_3_u00_r14_network.node[32].core_layer 	data[32] 	9462
scalar tree_4_3_u00_r14_network.node[32].content_store 	p_hit[32] 	0.27833714721587
scalar tree_4_3_u00_r14_network.node[32].content_store 	hits[32] 	3649
scalar tree_4_3_u00_r14_network.node[32].content_store 	misses[32] 	9461
scalar tree_4_3_u00_r14_network.node[32].content_store 	decision_yes[32] 	949
scalar tree_4_3_u00_r14_network.node[32].content_store 	decision_no[32] 	8513
scalar tree_4_3_u00_r14_network.node[32].content_store 	decision_ratio[32] 	0.1002959205242
scalar tree_4_3_u00_r14_network.node[33].core_layer 	interests[33] 	13103
scalar tree_4_3_u00_r14_network.node[33].core_layer 	data[33] 	9417
scalar tree_4_3_u00_r14_network.node[33].content_store 	p_hit[33] 	0.28123330534992
scalar tree_4_3_u00_r14_network.node[33].content_store 	hits[33] 	3685
scalar tree_4_3_u00_r14_network.node[33].content_store 	misses[33] 	9418
scalar tree_4_3_u00_r14_network.node[33].content_store 	decision_yes[33] 	932
scalar tree_4_3_u00_r14_network.node[33].content_store 	decision_no[33] 	8485
scalar tree_4_3_u00_r14_network.node[33].content_store 	decision_ratio[33] 	0.098969947966444
scalar tree_4_3_u00_r14_network.node[34].core_layer 	interests[34] 	12859
scalar tree_4_3_u00_r14_network.node[34].core_layer 	data[34] 	9428
scalar tree_4_3_u00_r14_network.node[34].content_store 	p_hit[34] 	0.26681701532001
scalar tree_4_3_u00_r14_network.node[34].content_store 	hits[34] 	3431
scalar tree_4_3_u00_r14_network.node[34].content_store 	misses[34] 	9428
scalar tree_4_3_u00_r14_network.node[34].content_store 	decision_yes[34] 	991
scalar tree_4_3_u00_r14_network.node[34].content_store 	decision_no[34] 	8437
scalar tree_4_3_u00_r14_network.node[34].content_store 	decision_ratio[34] 	0.10511243105643
scalar tree_4_3_u00_r14_network.node[35].core_layer 	interests[35] 	13142
scalar tree_4_3_u00_r14_network.node[35].core_layer 	data[35] 	9506
scalar tree_4_3_u00_r14_network.node[35].content_store 	p_hit[35] 	0.27667021762289
scalar tree_4_3_u00_r14_network.node[35].content_store 	hits[35] 	3636
scalar tree_4_3_u00_r14_network.node[35].content_store 	misses[35] 	9506
scalar tree_4_3_u00_r14_network.node[35].content_store 	decision_yes[35] 	973
scalar tree_4_3_u00_r14_network.node[35].content_store 	decision_no[35] 	8533
scalar tree_4_3_u00_r14_network.node[35].content_store 	decision_ratio[35] 	0.10235640648012
scalar tree_4_3_u00_r14_network.node[36].core_layer 	interests[36] 	13115
scalar tree_4_3_u00_r14_network.node[36].core_layer 	data[36] 	9445
scalar tree_4_3_u00_r14_network.node[36].content_store 	p_hit[36] 	0.27975600457491
scalar tree_4_3_u00_r14_network.node[36].content_store 	hits[36] 	3669
scalar tree_4_3_u00_r14_network.node[36].content_store 	misses[36] 	9446
scalar tree_4_3_u00_r14_network.node[36].content_store 	decision_yes[36] 	946
scalar tree_4_3_u00_r14_network.node[36].content_store 	decision_no[36] 	8499
scalar tree_4_3_u00_r14_network.node[36].content_store 	decision_ratio[36] 	0.1001588141874
scalar tree_4_3_u00_r14_network.node[37].core_layer 	interests[37] 	13161
scalar tree_4_3_u00_r14_network.node[37].core_layer 	data[37] 	9461
scalar tree_4_3_u00_r14_network.node[37].content_store 	p_hit[37] 	0.28113365245802
scalar tree_4_3_u00_r14_network.node[37].content_store 	hits[37] 	3700
scalar tree_4_3_u00_r14_network.node[37].content_store 	misses[37] 	9461
scalar tree_4_3_u00_r14_network.node[37].content_store 	decision_yes[37] 	947
scalar tree_4_3_u00_r14_network.node[37].content_store 	decision_no[37] 	8514
scalar tree_4_3_u00_r14_network.node[37].content_store 	decision_ratio[37] 	0.10009512736497
scalar tree_4_3_u00_r14_network.node[38].core_layer 	interests[38] 	12876
scalar tree_4_3_u00_r14_network.node[38].core_layer 	data[38] 	9373
scalar tree_4_3_u00_r14_network.node[38].content_store 	p_hit[38] 	0.27197887542715
scalar tree_4_3_u00_r14_network.node[38].content_store 	hits[38] 	3502
scalar tree_4_3_u00_r14_network.node[38].content_store 	misses[38] 	9374
scalar tree_4_3_u00_r14_network.node[38].content_store 	decision_yes[38] 	927
scalar tree_4_3_u00_r14_network.node[38].content_store 	decision_no[38] 	8446
scalar tree_4_3_u00_r14_network.node[38].content_store 	decision_ratio[38] 	0.098901098901099
scalar tree_4_3_u00_r14_network.node[39].core_layer 	interests[39] 	12939
scalar tree_4_3_u00_r14_network.node[39].core_layer 	data[39] 	9496
scalar tree_4_3_u00_r14_network.node[39].content_store 	p_hit[39] 	0.26609475229925
scalar tree_4_3_u00_r14_network.node[39].content_store 	hits[39] 	3443
scalar tree_4_3_u00_r14_network.node[39].content_store 	misses[39] 	9496
scalar tree_4_3_u00_r14_network.node[39].content_store 	decision_yes[39] 	930
scalar tree_4_3_u00_r14_network.node[39].content_store 	decision_no[39] 	8566
scalar tree_4_3_u00_r14_network.node[39].content_store 	decision_ratio[39] 	0.097935973041281
scalar tree_4_3_u00_r14_network.client[13] 	hdistance[13] 	2.8992169739833
scalar tree_4_3_u00_r14_network.client[13] 	downloads[13] 	11877
scalar tree_4_3_u00_r14_network.client[13] 	avg_time[13] 	0.004554345788
scalar tree_4_3_u00_r14_network.client[14] 	hdistance[14] 	2.9267180635
scalar tree_4_3_u00_r14_network.client[14] 	downloads[14] 	12063
scalar tree_4_3_u00_r14_network.client[14] 	avg_time[14] 	0.004581278592
scalar tree_4_3_u00_r14_network.client[15] 	hdistance[15] 	2.9319422935855
scalar tree_4_3_u00_r14_network.client[15] 	downloads[15] 	12269
scalar tree_4_3_u00_r14_network.client[15] 	avg_time[15] 	0.004595155439
scalar tree_4_3_u00_r14_network.client[16] 	hdistance[16] 	2.895731858334
scalar tree_4_3_u00_r14_network.client[16] 	downloads[16] 	12113
scalar tree_4_3_u00_r14_network.client[16] 	avg_time[16] 	0.004529579025
scalar tree_4_3_u00_r14_network.client[17] 	hdistance[17] 	2.9171873698242
scalar tree_4_3_u00_r14_network.client[17] 	downloads[17] 	12003
scalar tree_4_3_u00_r14_network.client[17] 	avg_time[17] 	0.004573353648
scalar tree_4_3_u00_r14_network.client[18] 	hdistance[18] 	2.9163507499588
scalar tree_4_3_u00_r14_network.client[18] 	downloads[18] 	12134
scalar tree_4_3_u00_r14_network.client[18] 	avg_time[18] 	0.004582401359
scalar tree_4_3_u00_r14_network.client[19] 	hdistance[19] 	2.9348282522886
scalar tree_4_3_u00_r14_network.client[19] 	downloads[19] 	11907
scalar tree_4_3_u00_r14_network.client[19] 	avg_time[19] 	0.004615937245
scalar tree_4_3_u00_r14_network.client[20] 	hdistance[20] 	2.9296775831429
scalar tree_4_3_u00_r14_network.client[20] 	downloads[20] 	11817
scalar tree_4_3_u00_r14_network.client[20] 	avg_time[20] 	0.004599044987
scalar tree_4_3_u00_r14_network.client[21] 	hdistance[21] 	2.9002652959708
scalar tree_4_3_u00_r14_network.client[21] 	downloads[21] 	12062
scalar tree_4_3_u00_r14_network.client[21] 	avg_time[21] 	0.004550441885
scalar tree_4_3_u00_r14_network.client[22] 	hdistance[22] 	2.9278359216746
scalar tree_4_3_u00_r14_network.client[22] 	downloads[22] 	11848
scalar tree_4_3_u00_r14_network.client[22] 	avg_time[22] 	0.004593346112
scalar tree_4_3_u00_r14_network.client[23] 	hdistance[23] 	2.9468627287158
scalar tree_4_3_u00_r14_network.client[23] 	downloads[23] 	11969
scalar tree_4_3_u00_r14_network.client[23] 	avg_time[23] 	0.004632978821
scalar tree_4_3_u00_r14_network.client[24] 	hdistance[24] 	2.8948638974444
scalar tree_4_3_u00_r14_network.client[24] 	downloads[24] 	12013
scalar tree_4_3_u00_r14_network.client[24] 	avg_time[24] 	0.004548402886
scalar tree_4_3_u00_r14_network.client[25] 	hdistance[25] 	2.9322522225881
scalar tree_4_3_u00_r14_network.client[25] 	downloads[25] 	12148
scalar tree_4_3_u00_r14_network.client[25] 	avg_time[25] 	0.004599608396
scalar tree_4_3_u00_r14_network.client[26] 	hdistance[26] 	2.9090681153364
scalar tree_4_3_u00_r14_network.client[26] 	downloads[26] 	11965
scalar tree_4_3_u00_r14_network.client[26] 	avg_time[26] 	0.004563139496
scalar tree_4_3_u00_r14_network.client[27] 	hdistance[27] 	2.9185667752443
scalar tree_4_3_u00_r14_network.client[27] 	downloads[27] 	11973
scalar tree_4_3_u00_r14_network.client[27] 	avg_time[27] 	0.004571616491
scalar tree_4_3_u00_r14_network.client[28] 	hdistance[28] 	2.934696242344
scalar tree_4_3_u00_r14_network.client[28] 	downloads[28] 	12082
scalar tree_4_3_u00_r14_network.client[28] 	avg_time[28] 	0.004598904446
scalar tree_4_3_u00_r14_network.client[29] 	hdistance[29] 	2.9397169025812
scalar tree_4_3_u00_r14_network.client[29] 	downloads[29] 	12010
scalar tree_4_3_u00_r14_network.client[29] 	avg_time[29] 	0.004608656443
scalar tree_4_3_u00_r14_network.client[30] 	hdistance[30] 	2.9055178268251
scalar tree_4_3_u00_r14_network.client[30] 	downloads[30] 	11780
scalar tree_4_3_u00_r14_network.client[30] 	avg_time[30] 	0.004561590955
scalar tree_4_3_u00_r14_network.client[31] 	hdistance[31] 	2.9139579349905
scalar tree_4_3_u00_r14_network.client[31] 	downloads[31] 	12029
scalar tree_4_3_u00_r14_network.client[31] 	avg_time[31] 	0.004566960164
scalar tree_4_3_u00_r14_network.client[32] 	hdistance[32] 	2.9087874488859
scalar tree_4_3_u00_r14_network.client[32] 	downloads[32] 	11983
scalar tree_4_3_u00_r14_network.client[32] 	avg_time[32] 	0.004566799991
scalar tree_4_3_u00_r14_network.client[33] 	hdistance[33] 	2.9073826624353
scalar tree_4_3_u00_r14_network.client[33] 	downloads[33] 	11974
scalar tree_4_3_u00_r14_network.client[33] 	avg_time[33] 	0.004549436089
scalar tree_4_3_u00_r14_network.client[34] 	hdistance[34] 	2.9333389516265
scalar tree_4_3_u00_r14_network.client[34] 	downloads[34] 	11866
scalar tree_4_3_u00_r14_network.client[34] 	avg_time[34] 	0.004601863556
scalar tree_4_3_u00_r14_network.client[35] 	hdistance[35] 	2.9001322751323
scalar tree_4_3_u00_r14_network.client[35] 	downloads[35] 	12096
scalar tree_4_3_u00_r14_network.client[35] 	avg_time[35] 	0.004553278741
scalar tree_4_3_u00_r14_network.client[36] 	hdistance[36] 	2.9270920327376
scalar tree_4_3_u00_r14_network.client[36] 	downloads[36] 	11974
scalar tree_4_3_u00_r14_network.client[36] 	avg_time[36] 	0.004594186556
scalar tree_4_3_u00_r14_network.client[37] 	hdistance[37] 	2.9206850681743
scalar tree_4_3_u00_r14_network.client[37] 	downloads[37] 	12028
scalar tree_4_3_u00_r14_network.client[37] 	avg_time[37] 	0.004574323583
scalar tree_4_3_u00_r14_network.client[38] 	hdistance[38] 	2.9073420698925
scalar tree_4_3_u00_r14_network.client[38] 	downloads[38] 	11904
scalar tree_4_3_u00_r14_network.client[38] 	avg_time[38] 	0.004554113211
scalar tree_4_3_u00_r14_network.client[39] 	hdistance[39] 	2.9464495551452
scalar tree_4_3_u00_r14_network.client[39] 	downloads[39] 	11914
scalar tree_4_3_u00_r14_network.client[39] 	avg_time[39] 	0.004622457995
