version 2
run General-3-20160823-12:12:15-12979
attr D ffc0.1
attr F nrr
attr R lru
attr a 0.5
attr configname General
attr datetime 20160823-12:12:15
attr experiment General
attr inifile hw5115/scenario_B/bus.ini
attr iterationvars "$net=bus, $rep=0, $a=0.5, $F=nrr, $D=ffc0.1, $R=lru, $window=60, $variance=0.05, $mytime=600, $test=test"
attr iterationvars2 "$net=bus, $rep=0, $a=0.5, $F=nrr, $D=ffc0.1, $R=lru, $window=60, $variance=0.05, $mytime=600, $test=test, $repetition=0"
attr measurement "$net=bus, $rep=0, $a=0.5, $F=nrr, $D=ffc0.1, $R=lru, $window=60, $variance=0.05, $mytime=600, $test=test"
attr mytime 600
attr net bus
attr network networks.${net=bus}_network
attr processid 12979
attr rep 0
attr repetition 0
attr replication #0
attr resultdir results
attr runnumber 3
attr seedset 0
attr test test
attr variance 0.05
attr window 60

scalar . 	a 	0.5
scalar . 	mytime 	600
scalar . 	rep 	0
scalar . 	variance 	0.05
scalar . 	window 	60
scalar bus_network.content_distribution 	repo-0 	9
scalar bus_network.content_distribution 	client-0 	5
scalar bus_network.content_distribution 	client-1 	8
scalar bus_network.content_distribution 	client-2 	9
scalar bus_network.content_distribution 	client-3 	0
scalar bus_network.content_distribution 	client-4 	1
scalar bus_network.content_distribution 	client-5 	7
scalar bus_network.content_distribution 	client-6 	6
scalar bus_network.content_distribution 	client-7 	2
scalar bus_network.content_distribution 	client-8 	4
scalar bus_network.content_distribution 	client-9 	3
scalar bus_network.content_distribution 	repo-0_card 	100000
scalar bus_network.content_distribution 	repo-0_price 	0
scalar bus_network.statistics 	stabilization_time 	4744.2
scalar bus_network.statistics 	p_hit 	0.010245454501773
scalar bus_network.statistics 	interests 	64225.7
scalar bus_network.statistics 	data 	52242.3
scalar bus_network.statistics 	hdistance 	5.3110649392763
scalar bus_network.statistics 	avg_time 	0.008718938579
scalar bus_network.statistics 	downloads 	119831
scalar bus_network.statistics 	total_cost 	0
scalar bus_network.statistics 	total_replicas 	100000
scalar bus_network.statistics 	inner_hit 	0.048451569293422
scalar bus_network.node[0].core_layer 	interests[0] 	12111
scalar bus_network.node[0].core_layer 	data[0] 	11966
scalar bus_network.node[0].core_layer 	repo_int[0] 	114025
scalar bus_network.node[0].content_store 	p_hit[0] 	0.011972586904467
scalar bus_network.node[0].content_store 	hits[0] 	145
scalar bus_network.node[0].content_store 	misses[0] 	11966
scalar bus_network.node[0].content_store 	decision_yes[0] 	2
scalar bus_network.node[0].content_store 	decision_no[0] 	11964
scalar bus_network.node[0].content_store 	decision_ratio[0] 	0.00016714023065352
scalar bus_network.node[1].core_layer 	interests[1] 	23983
scalar bus_network.node[1].core_layer 	data[1] 	23627
scalar bus_network.node[1].content_store 	p_hit[1] 	0.014843847725472
scalar bus_network.node[1].content_store 	hits[1] 	356
scalar bus_network.node[1].content_store 	misses[1] 	23627
scalar bus_network.node[1].content_store 	decision_yes[1] 	8
scalar bus_network.node[1].content_store 	decision_no[1] 	23619
scalar bus_network.node[1].content_store 	decision_ratio[1] 	0.00033859567444026
scalar bus_network.node[2].core_layer 	interests[2] 	35812
scalar bus_network.node[2].core_layer 	data[2] 	35338
scalar bus_network.node[2].content_store 	p_hit[2] 	0.013207863286049
scalar bus_network.node[2].content_store 	hits[2] 	473
scalar bus_network.node[2].content_store 	misses[2] 	35339
scalar bus_network.node[2].content_store 	decision_yes[2] 	4
scalar bus_network.node[2].content_store 	decision_no[2] 	35334
scalar bus_network.node[2].content_store 	decision_ratio[2] 	0.00011319259720414
scalar bus_network.node[3].core_layer 	interests[3] 	47623
scalar bus_network.node[3].core_layer 	data[3] 	47130
scalar bus_network.node[3].content_store 	p_hit[3] 	0.010331142515171
scalar bus_network.node[3].content_store 	hits[3] 	492
scalar bus_network.node[3].content_store 	misses[3] 	47131
scalar bus_network.node[3].content_store 	decision_yes[3] 	7
scalar bus_network.node[3].content_store 	decision_no[3] 	47123
scalar bus_network.node[3].content_store 	decision_ratio[3] 	0.00014852535539996
scalar bus_network.node[4].core_layer 	interests[4] 	59205
scalar bus_network.node[4].core_layer 	data[4] 	58478
scalar bus_network.node[4].content_store 	p_hit[4] 	0.012279368296597
scalar bus_network.node[4].content_store 	hits[4] 	727
scalar bus_network.node[4].content_store 	misses[4] 	58478
scalar bus_network.node[4].content_store 	decision_yes[4] 	15
scalar bus_network.node[4].content_store 	decision_no[4] 	58463
scalar bus_network.node[4].content_store 	decision_ratio[4] 	0.00025650672047608
scalar bus_network.node[5].core_layer 	interests[5] 	70494
scalar bus_network.node[5].core_layer 	data[5] 	69891
scalar bus_network.node[5].content_store 	p_hit[5] 	0.0085539194825091
scalar bus_network.node[5].content_store 	hits[5] 	603
scalar bus_network.node[5].content_store 	misses[5] 	69891
scalar bus_network.node[5].content_store 	decision_yes[5] 	14
scalar bus_network.node[5].content_store 	decision_no[5] 	69877
scalar bus_network.node[5].content_store 	decision_ratio[5] 	0.0002003119142665
scalar bus_network.node[6].core_layer 	interests[6] 	81872
scalar bus_network.node[6].core_layer 	data[6] 	81072
scalar bus_network.node[6].content_store 	p_hit[6] 	0.0097591362126246
scalar bus_network.node[6].content_store 	hits[6] 	799
scalar bus_network.node[6].content_store 	misses[6] 	81073
scalar bus_network.node[6].content_store 	decision_yes[6] 	17
scalar bus_network.node[6].content_store 	decision_no[6] 	81055
scalar bus_network.node[6].content_store 	decision_ratio[6] 	0.00020969015196369
scalar bus_network.node[7].core_layer 	interests[7] 	92819
scalar bus_network.node[7].core_layer 	data[7] 	92047
scalar bus_network.node[7].content_store 	p_hit[7] 	0.0083064889731628
scalar bus_network.node[7].content_store 	hits[7] 	771
scalar bus_network.node[7].content_store 	misses[7] 	92048
scalar bus_network.node[7].content_store 	decision_yes[7] 	13
scalar bus_network.node[7].content_store 	decision_no[7] 	92034
scalar bus_network.node[7].content_store 	decision_ratio[7] 	0.00014123219659522
scalar bus_network.node[8].core_layer 	interests[8] 	103587
scalar bus_network.node[8].core_layer 	data[8] 	102874
scalar bus_network.node[8].content_store 	p_hit[8] 	0.0068734493710601
scalar bus_network.node[8].content_store 	hits[8] 	712
scalar bus_network.node[8].content_store 	misses[8] 	102875
scalar bus_network.node[8].content_store 	decision_yes[8] 	15
scalar bus_network.node[8].content_store 	decision_no[8] 	102859
scalar bus_network.node[8].content_store 	decision_ratio[8] 	0.00014580943678675
scalar bus_network.node[9].core_layer 	interests[9] 	114751
scalar bus_network.node[9].core_layer 	repo_load[9] 	114025
scalar bus_network.node[9].core_layer 	data[9] 	0
scalar bus_network.node[9].content_store 	p_hit[9] 	0.0063267422506122
scalar bus_network.node[9].content_store 	hits[9] 	726
scalar bus_network.node[9].content_store 	misses[9] 	114025
scalar bus_network.node[9].content_store 	decision_yes[9] 	12
scalar bus_network.node[9].content_store 	decision_no[9] 	114013
scalar bus_network.node[9].content_store 	decision_ratio[9] 	0.00010524007893006
scalar bus_network.client[0] 	hdistance[0] 	9.6782486109959
scalar bus_network.client[0] 	downloads[0] 	12059
scalar bus_network.client[0] 	avg_time[0] 	0.017464063808
scalar bus_network.client[1] 	hdistance[1] 	8.6778274437041
scalar bus_network.client[1] 	downloads[1] 	11857
scalar bus_network.client[1] 	avg_time[1] 	0.015471822538
scalar bus_network.client[2] 	hdistance[2] 	7.7122795285464
scalar bus_network.client[2] 	downloads[2] 	11963
scalar bus_network.client[2] 	avg_time[2] 	0.013532221354
scalar bus_network.client[3] 	hdistance[3] 	6.7248554913295
scalar bus_network.client[3] 	downloads[3] 	12110
scalar bus_network.client[3] 	avg_time[3] 	0.011565314889
scalar bus_network.client[4] 	hdistance[4] 	5.7649769585253
scalar bus_network.client[4] 	downloads[4] 	11935
scalar bus_network.client[4] 	avg_time[4] 	0.009642728484
scalar bus_network.client[5] 	hdistance[5] 	4.8227636849132
scalar bus_network.client[5] 	downloads[5] 	11984
scalar bus_network.client[5] 	avg_time[5] 	0.007751332133
scalar bus_network.client[6] 	hdistance[6] 	3.8731170336037
scalar bus_network.client[6] 	downloads[6] 	12082
scalar bus_network.client[6] 	avg_time[6] 	0.005846048928
scalar bus_network.client[7] 	hdistance[7] 	2.9159798149706
scalar bus_network.client[7] 	downloads[7] 	11890
scalar bus_network.client[7] 	avg_time[7] 	0.003927162717
scalar bus_network.client[8] 	hdistance[8] 	1.9527505906176
scalar bus_network.client[8] 	downloads[8] 	11852
scalar bus_network.client[8] 	avg_time[8] 	0.00198869094
scalar bus_network.client[9] 	hdistance[9] 	0.98785023555666
scalar bus_network.client[9] 	downloads[9] 	12099
scalar bus_network.client[9] 	avg_time[9] 	0
