version 2
run General-18-20160819-15:01:00-23511
attr a 0.9
attr cd lce
attr configname General
attr cr lru
attr datetime 20160819-15:01:00
attr experiment General
attr fsize 1
attr inifile hw5115/scenario_A/NRR-LCE.ini
attr iterationvars "$name=tree_4_3, $un=00, $rep=19, $cd=lce, $cr=lru, $fsize=1, $a=0.9, $sl=nrr, $ttl=1000, $variance=0.05"
attr iterationvars2 "$name=tree_4_3, $un=00, $rep=19, $cd=lce, $cr=lru, $fsize=1, $a=0.9, $sl=nrr, $ttl=1000, $variance=0.05, $repetition=0"
attr measurement "$name=tree_4_3, $un=00, $rep=19, $cd=lce, $cr=lru, $fsize=1, $a=0.9, $sl=nrr, $ttl=1000, $variance=0.05"
attr name tree_4_3
attr network networks.${name}_u${un}_r${rep}_network
attr processid 23511
attr rep 19
attr repetition 0
attr replication #0
attr resultdir results
attr runnumber 18
attr seedset 19
attr sl nrr
attr ttl 1000
attr un 00
attr variance 0.05

scalar . 	a 	0.9
scalar . 	fsize 	1
scalar . 	rep 	19
scalar . 	ttl 	1000
scalar . 	un 	00
scalar . 	variance 	0.05
scalar tree_4_3_u00_r19_network.content_distribution 	repo-0 	0
scalar tree_4_3_u00_r19_network.content_distribution 	client-0 	13
scalar tree_4_3_u00_r19_network.content_distribution 	client-1 	14
scalar tree_4_3_u00_r19_network.content_distribution 	client-2 	15
scalar tree_4_3_u00_r19_network.content_distribution 	client-3 	16
scalar tree_4_3_u00_r19_network.content_distribution 	client-4 	17
scalar tree_4_3_u00_r19_network.content_distribution 	client-5 	18
scalar tree_4_3_u00_r19_network.content_distribution 	client-6 	19
scalar tree_4_3_u00_r19_network.content_distribution 	client-7 	20
scalar tree_4_3_u00_r19_network.content_distribution 	client-8 	21
scalar tree_4_3_u00_r19_network.content_distribution 	client-9 	22
scalar tree_4_3_u00_r19_network.content_distribution 	client-10 	23
scalar tree_4_3_u00_r19_network.content_distribution 	client-11 	24
scalar tree_4_3_u00_r19_network.content_distribution 	client-12 	25
scalar tree_4_3_u00_r19_network.content_distribution 	client-13 	26
scalar tree_4_3_u00_r19_network.content_distribution 	client-14 	27
scalar tree_4_3_u00_r19_network.content_distribution 	client-15 	28
scalar tree_4_3_u00_r19_network.content_distribution 	client-16 	29
scalar tree_4_3_u00_r19_network.content_distribution 	client-17 	30
scalar tree_4_3_u00_r19_network.content_distribution 	client-18 	31
scalar tree_4_3_u00_r19_network.content_distribution 	client-19 	32
scalar tree_4_3_u00_r19_network.content_distribution 	client-20 	33
scalar tree_4_3_u00_r19_network.content_distribution 	client-21 	34
scalar tree_4_3_u00_r19_network.content_distribution 	client-22 	35
scalar tree_4_3_u00_r19_network.content_distribution 	client-23 	36
scalar tree_4_3_u00_r19_network.content_distribution 	client-24 	37
scalar tree_4_3_u00_r19_network.content_distribution 	client-25 	38
scalar tree_4_3_u00_r19_network.content_distribution 	client-26 	39
scalar tree_4_3_u00_r19_network.content_distribution 	repo-0_card 	100000
scalar tree_4_3_u00_r19_network.content_distribution 	repo-0_price 	0
scalar tree_4_3_u00_r19_network.statistics 	stabilization_time 	619.8
scalar tree_4_3_u00_r19_network.statistics 	p_hit 	0.16980597377015
scalar tree_4_3_u00_r19_network.statistics 	interests 	27924.2
scalar tree_4_3_u00_r19_network.statistics 	data 	19818.1
scalar tree_4_3_u00_r19_network.statistics 	hdistance 	3.1281713632567
scalar tree_4_3_u00_r19_network.statistics 	avg_time 	0.004889585492
scalar tree_4_3_u00_r19_network.statistics 	downloads 	324226
scalar tree_4_3_u00_r19_network.statistics 	total_cost 	0
scalar tree_4_3_u00_r19_network.statistics 	total_replicas 	100000
scalar tree_4_3_u00_r19_network.statistics 	inner_hit 	0.31661865488887
scalar tree_4_3_u00_r19_network.node[0].core_layer 	interests[0] 	223485
scalar tree_4_3_u00_r19_network.node[0].core_layer 	repo_load[0] 	221570
scalar tree_4_3_u00_r19_network.node[0].core_layer 	data[0] 	0
scalar tree_4_3_u00_r19_network.node[0].core_layer 	repo_int[0] 	221570
scalar tree_4_3_u00_r19_network.node[0].content_store 	p_hit[0] 	0.0085688077499608
scalar tree_4_3_u00_r19_network.node[0].content_store 	hits[0] 	1915
scalar tree_4_3_u00_r19_network.node[0].content_store 	misses[0] 	221570
scalar tree_4_3_u00_r19_network.node[0].content_store 	decision_yes[0] 	221570
scalar tree_4_3_u00_r19_network.node[0].content_store 	decision_no[0] 	0
scalar tree_4_3_u00_r19_network.node[0].content_store 	decision_ratio[0] 	1
scalar tree_4_3_u00_r19_network.node[1].core_layer 	interests[1] 	82718
scalar tree_4_3_u00_r19_network.node[1].core_layer 	data[1] 	81640
scalar tree_4_3_u00_r19_network.node[1].content_store 	p_hit[1] 	0.012971783650475
scalar tree_4_3_u00_r19_network.node[1].content_store 	hits[1] 	1073
scalar tree_4_3_u00_r19_network.node[1].content_store 	misses[1] 	81645
scalar tree_4_3_u00_r19_network.node[1].content_store 	decision_yes[1] 	81626
scalar tree_4_3_u00_r19_network.node[1].content_store 	decision_no[1] 	0
scalar tree_4_3_u00_r19_network.node[1].content_store 	decision_ratio[1] 	1
scalar tree_4_3_u00_r19_network.node[2].core_layer 	interests[2] 	82247
scalar tree_4_3_u00_r19_network.node[2].core_layer 	data[2] 	81128
scalar tree_4_3_u00_r19_network.node[2].content_store 	p_hit[2] 	0.013532408476905
scalar tree_4_3_u00_r19_network.node[2].content_store 	hits[2] 	1113
scalar tree_4_3_u00_r19_network.node[2].content_store 	misses[2] 	81134
scalar tree_4_3_u00_r19_network.node[2].content_store 	decision_yes[2] 	81124
scalar tree_4_3_u00_r19_network.node[2].content_store 	decision_no[2] 	0
scalar tree_4_3_u00_r19_network.node[2].content_store 	decision_ratio[2] 	1
scalar tree_4_3_u00_r19_network.node[3].core_layer 	interests[3] 	82959
scalar tree_4_3_u00_r19_network.node[3].core_layer 	data[3] 	81783
scalar tree_4_3_u00_r19_network.node[3].content_store 	p_hit[3] 	0.014139514700033
scalar tree_4_3_u00_r19_network.node[3].content_store 	hits[3] 	1173
scalar tree_4_3_u00_r19_network.node[3].content_store 	misses[3] 	81786
scalar tree_4_3_u00_r19_network.node[3].content_store 	decision_yes[3] 	81772
scalar tree_4_3_u00_r19_network.node[3].content_store 	decision_no[3] 	0
scalar tree_4_3_u00_r19_network.node[3].content_store 	decision_ratio[3] 	1
scalar tree_4_3_u00_r19_network.node[4].core_layer 	interests[4] 	32451
scalar tree_4_3_u00_r19_network.node[4].core_layer 	data[4] 	30772
scalar tree_4_3_u00_r19_network.node[4].content_store 	p_hit[4] 	0.051647098702659
scalar tree_4_3_u00_r19_network.node[4].content_store 	hits[4] 	1676
scalar tree_4_3_u00_r19_network.node[4].content_store 	misses[4] 	30775
scalar tree_4_3_u00_r19_network.node[4].content_store 	decision_yes[4] 	30767
scalar tree_4_3_u00_r19_network.node[4].content_store 	decision_no[4] 	0
scalar tree_4_3_u00_r19_network.node[4].content_store 	decision_ratio[4] 	1
scalar tree_4_3_u00_r19_network.node[5].core_layer 	interests[5] 	32307
scalar tree_4_3_u00_r19_network.node[5].core_layer 	data[5] 	30572
scalar tree_4_3_u00_r19_network.node[5].content_store 	p_hit[5] 	0.053641625653883
scalar tree_4_3_u00_r19_network.node[5].content_store 	hits[5] 	1733
scalar tree_4_3_u00_r19_network.node[5].content_store 	misses[5] 	30574
scalar tree_4_3_u00_r19_network.node[5].content_store 	decision_yes[5] 	30567
scalar tree_4_3_u00_r19_network.node[5].content_store 	decision_no[5] 	0
scalar tree_4_3_u00_r19_network.node[5].content_store 	decision_ratio[5] 	1
scalar tree_4_3_u00_r19_network.node[6].core_layer 	interests[6] 	32688
scalar tree_4_3_u00_r19_network.node[6].core_layer 	data[6] 	30989
scalar tree_4_3_u00_r19_network.node[6].content_store 	p_hit[6] 	0.051945668135095
scalar tree_4_3_u00_r19_network.node[6].content_store 	hits[6] 	1698
scalar tree_4_3_u00_r19_network.node[6].content_store 	misses[6] 	30990
scalar tree_4_3_u00_r19_network.node[6].content_store 	decision_yes[6] 	30987
scalar tree_4_3_u00_r19_network.node[6].content_store 	decision_no[6] 	0
scalar tree_4_3_u00_r19_network.node[6].content_store 	decision_ratio[6] 	1
scalar tree_4_3_u00_r19_network.node[7].core_layer 	interests[7] 	32069
scalar tree_4_3_u00_r19_network.node[7].core_layer 	data[7] 	30359
scalar tree_4_3_u00_r19_network.node[7].content_store 	p_hit[7] 	0.053260157784777
scalar tree_4_3_u00_r19_network.node[7].content_store 	hits[7] 	1708
scalar tree_4_3_u00_r19_network.node[7].content_store 	misses[7] 	30361
scalar tree_4_3_u00_r19_network.node[7].content_store 	decision_yes[7] 	30358
scalar tree_4_3_u00_r19_network.node[7].content_store 	decision_no[7] 	0
scalar tree_4_3_u00_r19_network.node[7].content_store 	decision_ratio[7] 	1
scalar tree_4_3_u00_r19_network.node[8].core_layer 	interests[8] 	32388
scalar tree_4_3_u00_r19_network.node[8].core_layer 	data[8] 	30755
scalar tree_4_3_u00_r19_network.node[8].content_store 	p_hit[8] 	0.050419908608126
scalar tree_4_3_u00_r19_network.node[8].content_store 	hits[8] 	1633
scalar tree_4_3_u00_r19_network.node[8].content_store 	misses[8] 	30755
scalar tree_4_3_u00_r19_network.node[8].content_store 	decision_yes[8] 	30755
scalar tree_4_3_u00_r19_network.node[8].content_store 	decision_no[8] 	0
scalar tree_4_3_u00_r19_network.node[8].content_store 	decision_ratio[8] 	1
scalar tree_4_3_u00_r19_network.node[9].core_layer 	interests[9] 	32570
scalar tree_4_3_u00_r19_network.node[9].core_layer 	data[9] 	30867
scalar tree_4_3_u00_r19_network.node[9].content_store 	p_hit[9] 	0.05225667792447
scalar tree_4_3_u00_r19_network.node[9].content_store 	hits[9] 	1702
scalar tree_4_3_u00_r19_network.node[9].content_store 	misses[9] 	30868
scalar tree_4_3_u00_r19_network.node[9].content_store 	decision_yes[9] 	30866
scalar tree_4_3_u00_r19_network.node[9].content_store 	decision_no[9] 	0
scalar tree_4_3_u00_r19_network.node[9].content_store 	decision_ratio[9] 	1
scalar tree_4_3_u00_r19_network.node[10].core_layer 	interests[10] 	32436
scalar tree_4_3_u00_r19_network.node[10].core_layer 	data[10] 	30736
scalar tree_4_3_u00_r19_network.node[10].content_store 	p_hit[10] 	0.052380071525466
scalar tree_4_3_u00_r19_network.node[10].content_store 	hits[10] 	1699
scalar tree_4_3_u00_r19_network.node[10].content_store 	misses[10] 	30737
scalar tree_4_3_u00_r19_network.node[10].content_store 	decision_yes[10] 	30732
scalar tree_4_3_u00_r19_network.node[10].content_store 	decision_no[10] 	0
scalar tree_4_3_u00_r19_network.node[10].content_store 	decision_ratio[10] 	1
scalar tree_4_3_u00_r19_network.node[11].core_layer 	interests[11] 	32417
scalar tree_4_3_u00_r19_network.node[11].core_layer 	data[11] 	30639
scalar tree_4_3_u00_r19_network.node[11].content_store 	p_hit[11] 	0.054816917049696
scalar tree_4_3_u00_r19_network.node[11].content_store 	hits[11] 	1777
scalar tree_4_3_u00_r19_network.node[11].content_store 	misses[11] 	30640
scalar tree_4_3_u00_r19_network.node[11].content_store 	decision_yes[11] 	30636
scalar tree_4_3_u00_r19_network.node[11].content_store 	decision_no[11] 	0
scalar tree_4_3_u00_r19_network.node[11].content_store 	decision_ratio[11] 	1
scalar tree_4_3_u00_r19_network.node[12].core_layer 	interests[12] 	32946
scalar tree_4_3_u00_r19_network.node[12].core_layer 	data[12] 	31280
scalar tree_4_3_u00_r19_network.node[12].content_store 	p_hit[12] 	0.050537242760881
scalar tree_4_3_u00_r19_network.node[12].content_store 	hits[12] 	1665
scalar tree_4_3_u00_r19_network.node[12].content_store 	misses[12] 	31281
scalar tree_4_3_u00_r19_network.node[12].content_store 	decision_yes[12] 	31275
scalar tree_4_3_u00_r19_network.node[12].content_store 	decision_no[12] 	0
scalar tree_4_3_u00_r19_network.node[12].content_store 	decision_ratio[12] 	1
scalar tree_4_3_u00_r19_network.node[13].core_layer 	interests[13] 	13096
scalar tree_4_3_u00_r19_network.node[13].core_layer 	data[13] 	9987
scalar tree_4_3_u00_r19_network.node[13].content_store 	p_hit[13] 	0.23740073304826
scalar tree_4_3_u00_r19_network.node[13].content_store 	hits[13] 	3109
scalar tree_4_3_u00_r19_network.node[13].content_store 	misses[13] 	9987
scalar tree_4_3_u00_r19_network.node[13].content_store 	decision_yes[13] 	9987
scalar tree_4_3_u00_r19_network.node[13].content_store 	decision_no[13] 	0
scalar tree_4_3_u00_r19_network.node[13].content_store 	decision_ratio[13] 	1
scalar tree_4_3_u00_r19_network.node[14].core_layer 	interests[14] 	13111
scalar tree_4_3_u00_r19_network.node[14].core_layer 	data[14] 	10085
scalar tree_4_3_u00_r19_network.node[14].content_store 	p_hit[14] 	0.23072229425673
scalar tree_4_3_u00_r19_network.node[14].content_store 	hits[14] 	3025
scalar tree_4_3_u00_r19_network.node[14].content_store 	misses[14] 	10086
scalar tree_4_3_u00_r19_network.node[14].content_store 	decision_yes[14] 	10085
scalar tree_4_3_u00_r19_network.node[14].content_store 	decision_no[14] 	0
scalar tree_4_3_u00_r19_network.node[14].content_store 	decision_ratio[14] 	1
scalar tree_4_3_u00_r19_network.node[15].core_layer 	interests[15] 	13075
scalar tree_4_3_u00_r19_network.node[15].core_layer 	data[15] 	10081
scalar tree_4_3_u00_r19_network.node[15].content_store 	p_hit[15] 	0.22898661567878
scalar tree_4_3_u00_r19_network.node[15].content_store 	hits[15] 	2994
scalar tree_4_3_u00_r19_network.node[15].content_store 	misses[15] 	10081
scalar tree_4_3_u00_r19_network.node[15].content_store 	decision_yes[15] 	10081
scalar tree_4_3_u00_r19_network.node[15].content_store 	decision_no[15] 	0
scalar tree_4_3_u00_r19_network.node[15].content_store 	decision_ratio[15] 	1
scalar tree_4_3_u00_r19_network.node[16].core_layer 	interests[16] 	13065
scalar tree_4_3_u00_r19_network.node[16].core_layer 	data[16] 	9981
scalar tree_4_3_u00_r19_network.node[16].content_store 	p_hit[16] 	0.23605051664753
scalar tree_4_3_u00_r19_network.node[16].content_store 	hits[16] 	3084
scalar tree_4_3_u00_r19_network.node[16].content_store 	misses[16] 	9981
scalar tree_4_3_u00_r19_network.node[16].content_store 	decision_yes[16] 	9981
scalar tree_4_3_u00_r19_network.node[16].content_store 	decision_no[16] 	0
scalar tree_4_3_u00_r19_network.node[16].content_store 	decision_ratio[16] 	1
scalar tree_4_3_u00_r19_network.node[17].core_layer 	interests[17] 	12902
scalar tree_4_3_u00_r19_network.node[17].core_layer 	data[17] 	9970
scalar tree_4_3_u00_r19_network.node[17].content_store 	p_hit[17] 	0.22717408153775
scalar tree_4_3_u00_r19_network.node[17].content_store 	hits[17] 	2931
scalar tree_4_3_u00_r19_network.node[17].content_store 	misses[17] 	9971
scalar tree_4_3_u00_r19_network.node[17].content_store 	decision_yes[17] 	9970
scalar tree_4_3_u00_r19_network.node[17].content_store 	decision_no[17] 	0
scalar tree_4_3_u00_r19_network.node[17].content_store 	decision_ratio[17] 	1
scalar tree_4_3_u00_r19_network.node[18].core_layer 	interests[18] 	13060
scalar tree_4_3_u00_r19_network.node[18].core_layer 	data[18] 	10029
scalar tree_4_3_u00_r19_network.node[18].content_store 	p_hit[18] 	0.23200612557427
scalar tree_4_3_u00_r19_network.node[18].content_store 	hits[18] 	3030
scalar tree_4_3_u00_r19_network.node[18].content_store 	misses[18] 	10030
scalar tree_4_3_u00_r19_network.node[18].content_store 	decision_yes[18] 	10029
scalar tree_4_3_u00_r19_network.node[18].content_store 	decision_no[18] 	0
scalar tree_4_3_u00_r19_network.node[18].content_store 	decision_ratio[18] 	1
scalar tree_4_3_u00_r19_network.node[19].core_layer 	interests[19] 	13140
scalar tree_4_3_u00_r19_network.node[19].core_layer 	data[19] 	10146
scalar tree_4_3_u00_r19_network.node[19].content_store 	p_hit[19] 	0.2279299847793
scalar tree_4_3_u00_r19_network.node[19].content_store 	hits[19] 	2995
scalar tree_4_3_u00_r19_network.node[19].content_store 	misses[19] 	10145
scalar tree_4_3_u00_r19_network.node[19].content_store 	decision_yes[19] 	10146
scalar tree_4_3_u00_r19_network.node[19].content_store 	decision_no[19] 	0
scalar tree_4_3_u00_r19_network.node[19].content_store 	decision_ratio[19] 	1
scalar tree_4_3_u00_r19_network.node[20].core_layer 	interests[20] 	13259
scalar tree_4_3_u00_r19_network.node[20].core_layer 	data[20] 	10166
scalar tree_4_3_u00_r19_network.node[20].content_store 	p_hit[20] 	0.23327551097368
scalar tree_4_3_u00_r19_network.node[20].content_store 	hits[20] 	3093
scalar tree_4_3_u00_r19_network.node[20].content_store 	misses[20] 	10166
scalar tree_4_3_u00_r19_network.node[20].content_store 	decision_yes[20] 	10166
scalar tree_4_3_u00_r19_network.node[20].content_store 	decision_no[20] 	0
scalar tree_4_3_u00_r19_network.node[20].content_store 	decision_ratio[20] 	1
scalar tree_4_3_u00_r19_network.node[21].core_layer 	interests[21] 	13108
scalar tree_4_3_u00_r19_network.node[21].core_layer 	data[21] 	10003
scalar tree_4_3_u00_r19_network.node[21].content_store 	p_hit[21] 	0.23687824229478
scalar tree_4_3_u00_r19_network.node[21].content_store 	hits[21] 	3105
scalar tree_4_3_u00_r19_network.node[21].content_store 	misses[21] 	10003
scalar tree_4_3_u00_r19_network.node[21].content_store 	decision_yes[21] 	10003
scalar tree_4_3_u00_r19_network.node[21].content_store 	decision_no[21] 	0
scalar tree_4_3_u00_r19_network.node[21].content_store 	decision_ratio[21] 	1
scalar tree_4_3_u00_r19_network.node[22].core_layer 	interests[22] 	13125
scalar tree_4_3_u00_r19_network.node[22].core_layer 	data[22] 	10005
scalar tree_4_3_u00_r19_network.node[22].content_store 	p_hit[22] 	0.23771428571429
scalar tree_4_3_u00_r19_network.node[22].content_store 	hits[22] 	3120
scalar tree_4_3_u00_r19_network.node[22].content_store 	misses[22] 	10005
scalar tree_4_3_u00_r19_network.node[22].content_store 	decision_yes[22] 	10005
scalar tree_4_3_u00_r19_network.node[22].content_store 	decision_no[22] 	0
scalar tree_4_3_u00_r19_network.node[22].content_store 	decision_ratio[22] 	1
scalar tree_4_3_u00_r19_network.node[23].core_layer 	interests[23] 	12784
scalar tree_4_3_u00_r19_network.node[23].core_layer 	data[23] 	9718
scalar tree_4_3_u00_r19_network.node[23].content_store 	p_hit[23] 	0.23967459324155
scalar tree_4_3_u00_r19_network.node[23].content_store 	hits[23] 	3064
scalar tree_4_3_u00_r19_network.node[23].content_store 	misses[23] 	9720
scalar tree_4_3_u00_r19_network.node[23].content_store 	decision_yes[23] 	9718
scalar tree_4_3_u00_r19_network.node[23].content_store 	decision_no[23] 	0
scalar tree_4_3_u00_r19_network.node[23].content_store 	decision_ratio[23] 	1
scalar tree_4_3_u00_r19_network.node[24].core_layer 	interests[24] 	13008
scalar tree_4_3_u00_r19_network.node[24].core_layer 	data[24] 	10010
scalar tree_4_3_u00_r19_network.node[24].content_store 	p_hit[24] 	0.23047355473555
scalar tree_4_3_u00_r19_network.node[24].content_store 	hits[24] 	2998
scalar tree_4_3_u00_r19_network.node[24].content_store 	misses[24] 	10010
scalar tree_4_3_u00_r19_network.node[24].content_store 	decision_yes[24] 	10010
scalar tree_4_3_u00_r19_network.node[24].content_store 	decision_no[24] 	0
scalar tree_4_3_u00_r19_network.node[24].content_store 	decision_ratio[24] 	1
scalar tree_4_3_u00_r19_network.node[25].core_layer 	interests[25] 	12984
scalar tree_4_3_u00_r19_network.node[25].core_layer 	data[25] 	10054
scalar tree_4_3_u00_r19_network.node[25].content_store 	p_hit[25] 	0.22566235366605
scalar tree_4_3_u00_r19_network.node[25].content_store 	hits[25] 	2930
scalar tree_4_3_u00_r19_network.node[25].content_store 	misses[25] 	10054
scalar tree_4_3_u00_r19_network.node[25].content_store 	decision_yes[25] 	10054
scalar tree_4_3_u00_r19_network.node[25].content_store 	decision_no[25] 	0
scalar tree_4_3_u00_r19_network.node[25].content_store 	decision_ratio[25] 	1
scalar tree_4_3_u00_r19_network.node[26].core_layer 	interests[26] 	13137
scalar tree_4_3_u00_r19_network.node[26].core_layer 	data[26] 	9973
scalar tree_4_3_u00_r19_network.node[26].content_store 	p_hit[26] 	0.24061810154525
scalar tree_4_3_u00_r19_network.node[26].content_store 	hits[26] 	3161
scalar tree_4_3_u00_r19_network.node[26].content_store 	misses[26] 	9976
scalar tree_4_3_u00_r19_network.node[26].content_store 	decision_yes[26] 	9973
scalar tree_4_3_u00_r19_network.node[26].content_store 	decision_no[26] 	0
scalar tree_4_3_u00_r19_network.node[26].content_store 	decision_ratio[26] 	1
scalar tree_4_3_u00_r19_network.node[27].core_layer 	interests[27] 	13106
scalar tree_4_3_u00_r19_network.node[27].core_layer 	data[27] 	10032
scalar tree_4_3_u00_r19_network.node[27].content_store 	p_hit[27] 	0.23447276056768
scalar tree_4_3_u00_r19_network.node[27].content_store 	hits[27] 	3073
scalar tree_4_3_u00_r19_network.node[27].content_store 	misses[27] 	10033
scalar tree_4_3_u00_r19_network.node[27].content_store 	decision_yes[27] 	10032
scalar tree_4_3_u00_r19_network.node[27].content_store 	decision_no[27] 	0
scalar tree_4_3_u00_r19_network.node[27].content_store 	decision_ratio[27] 	1
scalar tree_4_3_u00_r19_network.node[28].core_layer 	interests[28] 	13091
scalar tree_4_3_u00_r19_network.node[28].core_layer 	data[28] 	10110
scalar tree_4_3_u00_r19_network.node[28].content_store 	p_hit[28] 	0.22756091971584
scalar tree_4_3_u00_r19_network.node[28].content_store 	hits[28] 	2979
scalar tree_4_3_u00_r19_network.node[28].content_store 	misses[28] 	10112
scalar tree_4_3_u00_r19_network.node[28].content_store 	decision_yes[28] 	10110
scalar tree_4_3_u00_r19_network.node[28].content_store 	decision_no[28] 	0
scalar tree_4_3_u00_r19_network.node[28].content_store 	decision_ratio[28] 	1
scalar tree_4_3_u00_r19_network.node[29].core_layer 	interests[29] 	13090
scalar tree_4_3_u00_r19_network.node[29].core_layer 	data[29] 	10107
scalar tree_4_3_u00_r19_network.node[29].content_store 	p_hit[29] 	0.22788388082506
scalar tree_4_3_u00_r19_network.node[29].content_store 	hits[29] 	2983
scalar tree_4_3_u00_r19_network.node[29].content_store 	misses[29] 	10107
scalar tree_4_3_u00_r19_network.node[29].content_store 	decision_yes[29] 	10107
scalar tree_4_3_u00_r19_network.node[29].content_store 	decision_no[29] 	0
scalar tree_4_3_u00_r19_network.node[29].content_store 	decision_ratio[29] 	1
scalar tree_4_3_u00_r19_network.node[30].core_layer 	interests[30] 	13111
scalar tree_4_3_u00_r19_network.node[30].core_layer 	data[30] 	10009
scalar tree_4_3_u00_r19_network.node[30].content_store 	p_hit[30] 	0.23651895355045
scalar tree_4_3_u00_r19_network.node[30].content_store 	hits[30] 	3101
scalar tree_4_3_u00_r19_network.node[30].content_store 	misses[30] 	10010
scalar tree_4_3_u00_r19_network.node[30].content_store 	decision_yes[30] 	10009
scalar tree_4_3_u00_r19_network.node[30].content_store 	decision_no[30] 	0
scalar tree_4_3_u00_r19_network.node[30].content_store 	decision_ratio[30] 	1
scalar tree_4_3_u00_r19_network.node[31].core_layer 	interests[31] 	13177
scalar tree_4_3_u00_r19_network.node[31].core_layer 	data[31] 	10171
scalar tree_4_3_u00_r19_network.node[31].content_store 	p_hit[31] 	0.22804887303635
scalar tree_4_3_u00_r19_network.node[31].content_store 	hits[31] 	3005
scalar tree_4_3_u00_r19_network.node[31].content_store 	misses[31] 	10172
scalar tree_4_3_u00_r19_network.node[31].content_store 	decision_yes[31] 	10171
scalar tree_4_3_u00_r19_network.node[31].content_store 	decision_no[31] 	0
scalar tree_4_3_u00_r19_network.node[31].content_store 	decision_ratio[31] 	1
scalar tree_4_3_u00_r19_network.node[32].core_layer 	interests[32] 	13016
scalar tree_4_3_u00_r19_network.node[32].core_layer 	data[32] 	9995
scalar tree_4_3_u00_r19_network.node[32].content_store 	p_hit[32] 	0.23209895513215
scalar tree_4_3_u00_r19_network.node[32].content_store 	hits[32] 	3021
scalar tree_4_3_u00_r19_network.node[32].content_store 	misses[32] 	9995
scalar tree_4_3_u00_r19_network.node[32].content_store 	decision_yes[32] 	9995
scalar tree_4_3_u00_r19_network.node[32].content_store 	decision_no[32] 	0
scalar tree_4_3_u00_r19_network.node[32].content_store 	decision_ratio[32] 	1
scalar tree_4_3_u00_r19_network.node[33].core_layer 	interests[33] 	12924
scalar tree_4_3_u00_r19_network.node[33].core_layer 	data[33] 	9982
scalar tree_4_3_u00_r19_network.node[33].content_store 	p_hit[33] 	0.22771587743733
scalar tree_4_3_u00_r19_network.node[33].content_store 	hits[33] 	2943
scalar tree_4_3_u00_r19_network.node[33].content_store 	misses[33] 	9981
scalar tree_4_3_u00_r19_network.node[33].content_store 	decision_yes[33] 	9982
scalar tree_4_3_u00_r19_network.node[33].content_store 	decision_no[33] 	0
scalar tree_4_3_u00_r19_network.node[33].content_store 	decision_ratio[33] 	1
scalar tree_4_3_u00_r19_network.node[34].core_layer 	interests[34] 	12987
scalar tree_4_3_u00_r19_network.node[34].core_layer 	data[34] 	9988
scalar tree_4_3_u00_r19_network.node[34].content_store 	p_hit[34] 	0.23084623084623
scalar tree_4_3_u00_r19_network.node[34].content_store 	hits[34] 	2998
scalar tree_4_3_u00_r19_network.node[34].content_store 	misses[34] 	9989
scalar tree_4_3_u00_r19_network.node[34].content_store 	decision_yes[34] 	9988
scalar tree_4_3_u00_r19_network.node[34].content_store 	decision_no[34] 	0
scalar tree_4_3_u00_r19_network.node[34].content_store 	decision_ratio[34] 	1
scalar tree_4_3_u00_r19_network.node[35].core_layer 	interests[35] 	13146
scalar tree_4_3_u00_r19_network.node[35].core_layer 	data[35] 	10025
scalar tree_4_3_u00_r19_network.node[35].content_store 	p_hit[35] 	0.23741061919976
scalar tree_4_3_u00_r19_network.node[35].content_store 	hits[35] 	3121
scalar tree_4_3_u00_r19_network.node[35].content_store 	misses[35] 	10025
scalar tree_4_3_u00_r19_network.node[35].content_store 	decision_yes[35] 	10025
scalar tree_4_3_u00_r19_network.node[35].content_store 	decision_no[35] 	0
scalar tree_4_3_u00_r19_network.node[35].content_store 	decision_ratio[35] 	1
scalar tree_4_3_u00_r19_network.node[36].core_layer 	interests[36] 	13002
scalar tree_4_3_u00_r19_network.node[36].core_layer 	data[36] 	9991
scalar tree_4_3_u00_r19_network.node[36].content_store 	p_hit[36] 	0.23150284571604
scalar tree_4_3_u00_r19_network.node[36].content_store 	hits[36] 	3010
scalar tree_4_3_u00_r19_network.node[36].content_store 	misses[36] 	9992
scalar tree_4_3_u00_r19_network.node[36].content_store 	decision_yes[36] 	9991
scalar tree_4_3_u00_r19_network.node[36].content_store 	decision_no[36] 	0
scalar tree_4_3_u00_r19_network.node[36].content_store 	decision_ratio[36] 	1
scalar tree_4_3_u00_r19_network.node[37].core_layer 	interests[37] 	13382
scalar tree_4_3_u00_r19_network.node[37].core_layer 	data[37] 	10393
scalar tree_4_3_u00_r19_network.node[37].content_store 	p_hit[37] 	0.22328500971454
scalar tree_4_3_u00_r19_network.node[37].content_store 	hits[37] 	2988
scalar tree_4_3_u00_r19_network.node[37].content_store 	misses[37] 	10394
scalar tree_4_3_u00_r19_network.node[37].content_store 	decision_yes[37] 	10393
scalar tree_4_3_u00_r19_network.node[37].content_store 	decision_no[37] 	0
scalar tree_4_3_u00_r19_network.node[37].content_store 	decision_ratio[37] 	1
scalar tree_4_3_u00_r19_network.node[38].core_layer 	interests[38] 	13198
scalar tree_4_3_u00_r19_network.node[38].core_layer 	data[38] 	10105
scalar tree_4_3_u00_r19_network.node[38].content_store 	p_hit[38] 	0.23427792089711
scalar tree_4_3_u00_r19_network.node[38].content_store 	hits[38] 	3092
scalar tree_4_3_u00_r19_network.node[38].content_store 	misses[38] 	10106
scalar tree_4_3_u00_r19_network.node[38].content_store 	decision_yes[38] 	10105
scalar tree_4_3_u00_r19_network.node[38].content_store 	decision_no[38] 	0
scalar tree_4_3_u00_r19_network.node[38].content_store 	decision_ratio[38] 	1
scalar tree_4_3_u00_r19_network.node[39].core_layer 	interests[39] 	13203
scalar tree_4_3_u00_r19_network.node[39].core_layer 	data[39] 	10088
scalar tree_4_3_u00_r19_network.node[39].content_store 	p_hit[39] 	0.23593122775127
scalar tree_4_3_u00_r19_network.node[39].content_store 	hits[39] 	3115
scalar tree_4_3_u00_r19_network.node[39].content_store 	misses[39] 	10088
scalar tree_4_3_u00_r19_network.node[39].content_store 	decision_yes[39] 	10088
scalar tree_4_3_u00_r19_network.node[39].content_store 	decision_no[39] 	0
scalar tree_4_3_u00_r19_network.node[39].content_store 	decision_ratio[39] 	1
scalar tree_4_3_u00_r19_network.client[13] 	hdistance[13] 	3.099535115391
scalar tree_4_3_u00_r19_network.client[13] 	downloads[13] 	12046
scalar tree_4_3_u00_r19_network.client[13] 	avg_time[13] 	0.004850403701
scalar tree_4_3_u00_r19_network.client[14] 	hdistance[14] 	3.1405625832224
scalar tree_4_3_u00_r19_network.client[14] 	downloads[14] 	12016
scalar tree_4_3_u00_r19_network.client[14] 	avg_time[14] 	0.004906115513
scalar tree_4_3_u00_r19_network.client[15] 	hdistance[15] 	3.1358731739708
scalar tree_4_3_u00_r19_network.client[15] 	downloads[15] 	12048
scalar tree_4_3_u00_r19_network.client[15] 	avg_time[15] 	0.004895972585
scalar tree_4_3_u00_r19_network.client[16] 	hdistance[16] 	3.1150989066021
scalar tree_4_3_u00_r19_network.client[16] 	downloads[16] 	11981
scalar tree_4_3_u00_r19_network.client[16] 	avg_time[16] 	0.004866289403
scalar tree_4_3_u00_r19_network.client[17] 	hdistance[17] 	3.1390599949371
scalar tree_4_3_u00_r19_network.client[17] 	downloads[17] 	11851
scalar tree_4_3_u00_r19_network.client[17] 	avg_time[17] 	0.004912409466
scalar tree_4_3_u00_r19_network.client[18] 	hdistance[18] 	3.1289489038927
scalar tree_4_3_u00_r19_network.client[18] 	downloads[18] 	11997
scalar tree_4_3_u00_r19_network.client[18] 	avg_time[18] 	0.004892214068
scalar tree_4_3_u00_r19_network.client[19] 	hdistance[19] 	3.1452560178675
scalar tree_4_3_u00_r19_network.client[19] 	downloads[19] 	12089
scalar tree_4_3_u00_r19_network.client[19] 	avg_time[19] 	0.004920915101
scalar tree_4_3_u00_r19_network.client[20] 	hdistance[20] 	3.1125143513203
scalar tree_4_3_u00_r19_network.client[20] 	downloads[20] 	12194
scalar tree_4_3_u00_r19_network.client[20] 	avg_time[20] 	0.004859095753
scalar tree_4_3_u00_r19_network.client[21] 	hdistance[21] 	3.12973785273
scalar tree_4_3_u00_r19_network.client[21] 	downloads[21] 	11978
scalar tree_4_3_u00_r19_network.client[21] 	avg_time[21] 	0.004883116063
scalar tree_4_3_u00_r19_network.client[22] 	hdistance[22] 	3.1063194559628
scalar tree_4_3_u00_r19_network.client[22] 	downloads[22] 	12058
scalar tree_4_3_u00_r19_network.client[22] 	avg_time[22] 	0.004858845884
scalar tree_4_3_u00_r19_network.client[23] 	hdistance[23] 	3.1031955688112
scalar tree_4_3_u00_r19_network.client[23] 	downloads[23] 	11735
scalar tree_4_3_u00_r19_network.client[23] 	avg_time[23] 	0.00484775031
scalar tree_4_3_u00_r19_network.client[24] 	hdistance[24] 	3.1232762223151
scalar tree_4_3_u00_r19_network.client[24] 	downloads[24] 	11965
scalar tree_4_3_u00_r19_network.client[24] 	avg_time[24] 	0.004884636116
scalar tree_4_3_u00_r19_network.client[25] 	hdistance[25] 	3.1527287993283
scalar tree_4_3_u00_r19_network.client[25] 	downloads[25] 	11910
scalar tree_4_3_u00_r19_network.client[25] 	avg_time[25] 	0.004928964262
scalar tree_4_3_u00_r19_network.client[26] 	hdistance[26] 	3.1043536058491
scalar tree_4_3_u00_r19_network.client[26] 	downloads[26] 	12036
scalar tree_4_3_u00_r19_network.client[26] 	avg_time[26] 	0.004852585076
scalar tree_4_3_u00_r19_network.client[27] 	hdistance[27] 	3.1336947456214
scalar tree_4_3_u00_r19_network.client[27] 	downloads[27] 	11990
scalar tree_4_3_u00_r19_network.client[27] 	avg_time[27] 	0.004897409837
scalar tree_4_3_u00_r19_network.client[28] 	hdistance[28] 	3.1426310089144
scalar tree_4_3_u00_r19_network.client[28] 	downloads[28] 	12003
scalar tree_4_3_u00_r19_network.client[28] 	avg_time[28] 	0.004911734983
scalar tree_4_3_u00_r19_network.client[29] 	hdistance[29] 	3.1395406889666
scalar tree_4_3_u00_r19_network.client[29] 	downloads[29] 	12018
scalar tree_4_3_u00_r19_network.client[29] 	avg_time[29] 	0.004908234686
scalar tree_4_3_u00_r19_network.client[30] 	hdistance[30] 	3.125073056692
scalar tree_4_3_u00_r19_network.client[30] 	downloads[30] 	11977
scalar tree_4_3_u00_r19_network.client[30] 	avg_time[30] 	0.004887133496
scalar tree_4_3_u00_r19_network.client[31] 	hdistance[31] 	3.131398895392
scalar tree_4_3_u00_r19_network.client[31] 	downloads[31] 	12131
scalar tree_4_3_u00_r19_network.client[31] 	avg_time[31] 	0.004899666974
scalar tree_4_3_u00_r19_network.client[32] 	hdistance[32] 	3.1303291732976
scalar tree_4_3_u00_r19_network.client[32] 	downloads[32] 	11939
scalar tree_4_3_u00_r19_network.client[32] 	avg_time[32] 	0.004897141478
scalar tree_4_3_u00_r19_network.client[33] 	hdistance[33] 	3.1446704774714
scalar tree_4_3_u00_r19_network.client[33] 	downloads[33] 	11896
scalar tree_4_3_u00_r19_network.client[33] 	avg_time[33] 	0.004906973009
scalar tree_4_3_u00_r19_network.client[34] 	hdistance[34] 	3.1346121487464
scalar tree_4_3_u00_r19_network.client[34] 	downloads[34] 	11886
scalar tree_4_3_u00_r19_network.client[34] 	avg_time[34] 	0.004903692009
scalar tree_4_3_u00_r19_network.client[35] 	hdistance[35] 	3.104182194617
scalar tree_4_3_u00_r19_network.client[35] 	downloads[35] 	12075
scalar tree_4_3_u00_r19_network.client[35] 	avg_time[35] 	0.004857139882
scalar tree_4_3_u00_r19_network.client[36] 	hdistance[36] 	3.1342056701896
scalar tree_4_3_u00_r19_network.client[36] 	downloads[36] 	11922
scalar tree_4_3_u00_r19_network.client[36] 	avg_time[36] 	0.004897188366
scalar tree_4_3_u00_r19_network.client[37] 	hdistance[37] 	3.1442564559216
scalar tree_4_3_u00_r19_network.client[37] 	downloads[37] 	12353
scalar tree_4_3_u00_r19_network.client[37] 	avg_time[37] 	0.004909776498
scalar tree_4_3_u00_r19_network.client[38] 	hdistance[38] 	3.1300496688742
scalar tree_4_3_u00_r19_network.client[38] 	downloads[38] 	12080
scalar tree_4_3_u00_r19_network.client[38] 	avg_time[38] 	0.004892766222
scalar tree_4_3_u00_r19_network.client[39] 	hdistance[39] 	3.1295220710256
scalar tree_4_3_u00_r19_network.client[39] 	downloads[39] 	12052
scalar tree_4_3_u00_r19_network.client[39] 	avg_time[39] 	0.004890637545
