version 2
run General-12-20160819-14:54:38-23511
attr a 0.9
attr cd lce
attr configname General
attr cr lru
attr datetime 20160819-14:54:38
attr experiment General
attr fsize 1
attr inifile hw5115/scenario_A/NRR-LCE.ini
attr iterationvars "$name=tree_4_3, $un=00, $rep=13, $cd=lce, $cr=lru, $fsize=1, $a=0.9, $sl=nrr, $ttl=1000, $variance=0.05"
attr iterationvars2 "$name=tree_4_3, $un=00, $rep=13, $cd=lce, $cr=lru, $fsize=1, $a=0.9, $sl=nrr, $ttl=1000, $variance=0.05, $repetition=0"
attr measurement "$name=tree_4_3, $un=00, $rep=13, $cd=lce, $cr=lru, $fsize=1, $a=0.9, $sl=nrr, $ttl=1000, $variance=0.05"
attr name tree_4_3
attr network networks.${name}_u${un}_r${rep}_network
attr processid 23511
attr rep 13
attr repetition 0
attr replication #0
attr resultdir results
attr runnumber 12
attr seedset 13
attr sl nrr
attr ttl 1000
attr un 00
attr variance 0.05

scalar . 	a 	0.9
scalar . 	fsize 	1
scalar . 	rep 	13
scalar . 	ttl 	1000
scalar . 	un 	00
scalar . 	variance 	0.05
scalar tree_4_3_u00_r13_network.content_distribution 	repo-0 	0
scalar tree_4_3_u00_r13_network.content_distribution 	client-0 	13
scalar tree_4_3_u00_r13_network.content_distribution 	client-1 	14
scalar tree_4_3_u00_r13_network.content_distribution 	client-2 	15
scalar tree_4_3_u00_r13_network.content_distribution 	client-3 	16
scalar tree_4_3_u00_r13_network.content_distribution 	client-4 	17
scalar tree_4_3_u00_r13_network.content_distribution 	client-5 	18
scalar tree_4_3_u00_r13_network.content_distribution 	client-6 	19
scalar tree_4_3_u00_r13_network.content_distribution 	client-7 	20
scalar tree_4_3_u00_r13_network.content_distribution 	client-8 	21
scalar tree_4_3_u00_r13_network.content_distribution 	client-9 	22
scalar tree_4_3_u00_r13_network.content_distribution 	client-10 	23
scalar tree_4_3_u00_r13_network.content_distribution 	client-11 	24
scalar tree_4_3_u00_r13_network.content_distribution 	client-12 	25
scalar tree_4_3_u00_r13_network.content_distribution 	client-13 	26
scalar tree_4_3_u00_r13_network.content_distribution 	client-14 	27
scalar tree_4_3_u00_r13_network.content_distribution 	client-15 	28
scalar tree_4_3_u00_r13_network.content_distribution 	client-16 	29
scalar tree_4_3_u00_r13_network.content_distribution 	client-17 	30
scalar tree_4_3_u00_r13_network.content_distribution 	client-18 	31
scalar tree_4_3_u00_r13_network.content_distribution 	client-19 	32
scalar tree_4_3_u00_r13_network.content_distribution 	client-20 	33
scalar tree_4_3_u00_r13_network.content_distribution 	client-21 	34
scalar tree_4_3_u00_r13_network.content_distribution 	client-22 	35
scalar tree_4_3_u00_r13_network.content_distribution 	client-23 	36
scalar tree_4_3_u00_r13_network.content_distribution 	client-24 	37
scalar tree_4_3_u00_r13_network.content_distribution 	client-25 	38
scalar tree_4_3_u00_r13_network.content_distribution 	client-26 	39
scalar tree_4_3_u00_r13_network.content_distribution 	repo-0_card 	100000
scalar tree_4_3_u00_r13_network.content_distribution 	repo-0_price 	0
scalar tree_4_3_u00_r13_network.statistics 	stabilization_time 	415.6
scalar tree_4_3_u00_r13_network.statistics 	p_hit 	0.16915345403651
scalar tree_4_3_u00_r13_network.statistics 	interests 	27971.6
scalar tree_4_3_u00_r13_network.statistics 	data 	19859.85
scalar tree_4_3_u00_r13_network.statistics 	hdistance 	3.1330821891569
scalar tree_4_3_u00_r13_network.statistics 	avg_time 	0.004896525021
scalar tree_4_3_u00_r13_network.statistics 	downloads 	324448
scalar tree_4_3_u00_r13_network.statistics 	total_cost 	0
scalar tree_4_3_u00_r13_network.statistics 	total_replicas 	100000
scalar tree_4_3_u00_r13_network.statistics 	inner_hit 	0.31519688825328
scalar tree_4_3_u00_r13_network.node[0].core_layer 	interests[0] 	224003
scalar tree_4_3_u00_r13_network.node[0].core_layer 	repo_load[0] 	222183
scalar tree_4_3_u00_r13_network.node[0].core_layer 	data[0] 	0
scalar tree_4_3_u00_r13_network.node[0].core_layer 	repo_int[0] 	222183
scalar tree_4_3_u00_r13_network.node[0].content_store 	p_hit[0] 	0.0081248911844931
scalar tree_4_3_u00_r13_network.node[0].content_store 	hits[0] 	1820
scalar tree_4_3_u00_r13_network.node[0].content_store 	misses[0] 	222183
scalar tree_4_3_u00_r13_network.node[0].content_store 	decision_yes[0] 	222183
scalar tree_4_3_u00_r13_network.node[0].content_store 	decision_no[0] 	0
scalar tree_4_3_u00_r13_network.node[0].content_store 	decision_ratio[0] 	1
scalar tree_4_3_u00_r13_network.node[1].core_layer 	interests[1] 	82742
scalar tree_4_3_u00_r13_network.node[1].core_layer 	data[1] 	81635
scalar tree_4_3_u00_r13_network.node[1].content_store 	p_hit[1] 	0.013318508133717
scalar tree_4_3_u00_r13_network.node[1].content_store 	hits[1] 	1102
scalar tree_4_3_u00_r13_network.node[1].content_store 	misses[1] 	81640
scalar tree_4_3_u00_r13_network.node[1].content_store 	decision_yes[1] 	81623
scalar tree_4_3_u00_r13_network.node[1].content_store 	decision_no[1] 	0
scalar tree_4_3_u00_r13_network.node[1].content_store 	decision_ratio[1] 	1
scalar tree_4_3_u00_r13_network.node[2].core_layer 	interests[2] 	82678
scalar tree_4_3_u00_r13_network.node[2].core_layer 	data[2] 	81560
scalar tree_4_3_u00_r13_network.node[2].content_store 	p_hit[2] 	0.013498149447253
scalar tree_4_3_u00_r13_network.node[2].content_store 	hits[2] 	1116
scalar tree_4_3_u00_r13_network.node[2].content_store 	misses[2] 	81562
scalar tree_4_3_u00_r13_network.node[2].content_store 	decision_yes[2] 	81548
scalar tree_4_3_u00_r13_network.node[2].content_store 	decision_no[2] 	0
scalar tree_4_3_u00_r13_network.node[2].content_store 	decision_ratio[2] 	1
scalar tree_4_3_u00_r13_network.node[3].core_layer 	interests[3] 	83095
scalar tree_4_3_u00_r13_network.node[3].core_layer 	data[3] 	81933
scalar tree_4_3_u00_r13_network.node[3].content_store 	p_hit[3] 	0.013923822131296
scalar tree_4_3_u00_r13_network.node[3].content_store 	hits[3] 	1157
scalar tree_4_3_u00_r13_network.node[3].content_store 	misses[3] 	81938
scalar tree_4_3_u00_r13_network.node[3].content_store 	decision_yes[3] 	81923
scalar tree_4_3_u00_r13_network.node[3].content_store 	decision_no[3] 	0
scalar tree_4_3_u00_r13_network.node[3].content_store 	decision_ratio[3] 	1
scalar tree_4_3_u00_r13_network.node[4].core_layer 	interests[4] 	32608
scalar tree_4_3_u00_r13_network.node[4].core_layer 	data[4] 	30856
scalar tree_4_3_u00_r13_network.node[4].content_store 	p_hit[4] 	0.05366781157998
scalar tree_4_3_u00_r13_network.node[4].content_store 	hits[4] 	1750
scalar tree_4_3_u00_r13_network.node[4].content_store 	misses[4] 	30858
scalar tree_4_3_u00_r13_network.node[4].content_store 	decision_yes[4] 	30854
scalar tree_4_3_u00_r13_network.node[4].content_store 	decision_no[4] 	0
scalar tree_4_3_u00_r13_network.node[4].content_store 	decision_ratio[4] 	1
scalar tree_4_3_u00_r13_network.node[5].core_layer 	interests[5] 	32473
scalar tree_4_3_u00_r13_network.node[5].core_layer 	data[5] 	30778
scalar tree_4_3_u00_r13_network.node[5].content_store 	p_hit[5] 	0.052197209989838
scalar tree_4_3_u00_r13_network.node[5].content_store 	hits[5] 	1695
scalar tree_4_3_u00_r13_network.node[5].content_store 	misses[5] 	30778
scalar tree_4_3_u00_r13_network.node[5].content_store 	decision_yes[5] 	30777
scalar tree_4_3_u00_r13_network.node[5].content_store 	decision_no[5] 	0
scalar tree_4_3_u00_r13_network.node[5].content_store 	decision_ratio[5] 	1
scalar tree_4_3_u00_r13_network.node[6].core_layer 	interests[6] 	32481
scalar tree_4_3_u00_r13_network.node[6].core_layer 	data[6] 	30801
scalar tree_4_3_u00_r13_network.node[6].content_store 	p_hit[6] 	0.051691758258674
scalar tree_4_3_u00_r13_network.node[6].content_store 	hits[6] 	1679
scalar tree_4_3_u00_r13_network.node[6].content_store 	misses[6] 	30802
scalar tree_4_3_u00_r13_network.node[6].content_store 	decision_yes[6] 	30795
scalar tree_4_3_u00_r13_network.node[6].content_store 	decision_no[6] 	0
scalar tree_4_3_u00_r13_network.node[6].content_store 	decision_ratio[6] 	1
scalar tree_4_3_u00_r13_network.node[7].core_layer 	interests[7] 	32456
scalar tree_4_3_u00_r13_network.node[7].core_layer 	data[7] 	30783
scalar tree_4_3_u00_r13_network.node[7].content_store 	p_hit[7] 	0.051515898447128
scalar tree_4_3_u00_r13_network.node[7].content_store 	hits[7] 	1672
scalar tree_4_3_u00_r13_network.node[7].content_store 	misses[7] 	30784
scalar tree_4_3_u00_r13_network.node[7].content_store 	decision_yes[7] 	30782
scalar tree_4_3_u00_r13_network.node[7].content_store 	decision_no[7] 	0
scalar tree_4_3_u00_r13_network.node[7].content_store 	decision_ratio[7] 	1
scalar tree_4_3_u00_r13_network.node[8].core_layer 	interests[8] 	32584
scalar tree_4_3_u00_r13_network.node[8].core_layer 	data[8] 	30894
scalar tree_4_3_u00_r13_network.node[8].content_store 	p_hit[8] 	0.051835256567641
scalar tree_4_3_u00_r13_network.node[8].content_store 	hits[8] 	1689
scalar tree_4_3_u00_r13_network.node[8].content_store 	misses[8] 	30895
scalar tree_4_3_u00_r13_network.node[8].content_store 	decision_yes[8] 	30890
scalar tree_4_3_u00_r13_network.node[8].content_store 	decision_no[8] 	0
scalar tree_4_3_u00_r13_network.node[8].content_store 	decision_ratio[8] 	1
scalar tree_4_3_u00_r13_network.node[9].core_layer 	interests[9] 	32378
scalar tree_4_3_u00_r13_network.node[9].core_layer 	data[9] 	30684
scalar tree_4_3_u00_r13_network.node[9].content_store 	p_hit[9] 	0.052257705849651
scalar tree_4_3_u00_r13_network.node[9].content_store 	hits[9] 	1692
scalar tree_4_3_u00_r13_network.node[9].content_store 	misses[9] 	30686
scalar tree_4_3_u00_r13_network.node[9].content_store 	decision_yes[9] 	30682
scalar tree_4_3_u00_r13_network.node[9].content_store 	decision_no[9] 	0
scalar tree_4_3_u00_r13_network.node[9].content_store 	decision_ratio[9] 	1
scalar tree_4_3_u00_r13_network.node[10].core_layer 	interests[10] 	32543
scalar tree_4_3_u00_r13_network.node[10].core_layer 	data[10] 	30898
scalar tree_4_3_u00_r13_network.node[10].content_store 	p_hit[10] 	0.050394862182343
scalar tree_4_3_u00_r13_network.node[10].content_store 	hits[10] 	1640
scalar tree_4_3_u00_r13_network.node[10].content_store 	misses[10] 	30903
scalar tree_4_3_u00_r13_network.node[10].content_store 	decision_yes[10] 	30898
scalar tree_4_3_u00_r13_network.node[10].content_store 	decision_no[10] 	0
scalar tree_4_3_u00_r13_network.node[10].content_store 	decision_ratio[10] 	1
scalar tree_4_3_u00_r13_network.node[11].core_layer 	interests[11] 	32766
scalar tree_4_3_u00_r13_network.node[11].core_layer 	data[11] 	31090
scalar tree_4_3_u00_r13_network.node[11].content_store 	p_hit[11] 	0.051089544039553
scalar tree_4_3_u00_r13_network.node[11].content_store 	hits[11] 	1674
scalar tree_4_3_u00_r13_network.node[11].content_store 	misses[11] 	31092
scalar tree_4_3_u00_r13_network.node[11].content_store 	decision_yes[11] 	31088
scalar tree_4_3_u00_r13_network.node[11].content_store 	decision_no[11] 	0
scalar tree_4_3_u00_r13_network.node[11].content_store 	decision_ratio[11] 	1
scalar tree_4_3_u00_r13_network.node[12].core_layer 	interests[12] 	32521
scalar tree_4_3_u00_r13_network.node[12].core_layer 	data[12] 	30799
scalar tree_4_3_u00_r13_network.node[12].content_store 	p_hit[12] 	0.052950401279173
scalar tree_4_3_u00_r13_network.node[12].content_store 	hits[12] 	1722
scalar tree_4_3_u00_r13_network.node[12].content_store 	misses[12] 	30799
scalar tree_4_3_u00_r13_network.node[12].content_store 	decision_yes[12] 	30796
scalar tree_4_3_u00_r13_network.node[12].content_store 	decision_no[12] 	0
scalar tree_4_3_u00_r13_network.node[12].content_store 	decision_ratio[12] 	1
scalar tree_4_3_u00_r13_network.node[13].core_layer 	interests[13] 	13105
scalar tree_4_3_u00_r13_network.node[13].core_layer 	data[13] 	10023
scalar tree_4_3_u00_r13_network.node[13].content_store 	p_hit[13] 	0.23517741320107
scalar tree_4_3_u00_r13_network.node[13].content_store 	hits[13] 	3082
scalar tree_4_3_u00_r13_network.node[13].content_store 	misses[13] 	10023
scalar tree_4_3_u00_r13_network.node[13].content_store 	decision_yes[13] 	10023
scalar tree_4_3_u00_r13_network.node[13].content_store 	decision_no[13] 	0
scalar tree_4_3_u00_r13_network.node[13].content_store 	decision_ratio[13] 	1
scalar tree_4_3_u00_r13_network.node[14].core_layer 	interests[14] 	13290
scalar tree_4_3_u00_r13_network.node[14].core_layer 	data[14] 	10163
scalar tree_4_3_u00_r13_network.node[14].content_store 	p_hit[14] 	0.23528969149737
scalar tree_4_3_u00_r13_network.node[14].content_store 	hits[14] 	3127
scalar tree_4_3_u00_r13_network.node[14].content_store 	misses[14] 	10163
scalar tree_4_3_u00_r13_network.node[14].content_store 	decision_yes[14] 	10163
scalar tree_4_3_u00_r13_network.node[14].content_store 	decision_no[14] 	0
scalar tree_4_3_u00_r13_network.node[14].content_store 	decision_ratio[14] 	1
scalar tree_4_3_u00_r13_network.node[15].core_layer 	interests[15] 	13092
scalar tree_4_3_u00_r13_network.node[15].core_layer 	data[15] 	10013
scalar tree_4_3_u00_r13_network.node[15].content_store 	p_hit[15] 	0.23518179040636
scalar tree_4_3_u00_r13_network.node[15].content_store 	hits[15] 	3079
scalar tree_4_3_u00_r13_network.node[15].content_store 	misses[15] 	10013
scalar tree_4_3_u00_r13_network.node[15].content_store 	decision_yes[15] 	10013
scalar tree_4_3_u00_r13_network.node[15].content_store 	decision_no[15] 	0
scalar tree_4_3_u00_r13_network.node[15].content_store 	decision_ratio[15] 	1
scalar tree_4_3_u00_r13_network.node[16].core_layer 	interests[16] 	12917
scalar tree_4_3_u00_r13_network.node[16].core_layer 	data[16] 	9953
scalar tree_4_3_u00_r13_network.node[16].content_store 	p_hit[16] 	0.22938762870636
scalar tree_4_3_u00_r13_network.node[16].content_store 	hits[16] 	2963
scalar tree_4_3_u00_r13_network.node[16].content_store 	misses[16] 	9954
scalar tree_4_3_u00_r13_network.node[16].content_store 	decision_yes[16] 	9953
scalar tree_4_3_u00_r13_network.node[16].content_store 	decision_no[16] 	0
scalar tree_4_3_u00_r13_network.node[16].content_store 	decision_ratio[16] 	1
scalar tree_4_3_u00_r13_network.node[17].core_layer 	interests[17] 	13176
scalar tree_4_3_u00_r13_network.node[17].core_layer 	data[17] 	10193
scalar tree_4_3_u00_r13_network.node[17].content_store 	p_hit[17] 	0.22639647844566
scalar tree_4_3_u00_r13_network.node[17].content_store 	hits[17] 	2983
scalar tree_4_3_u00_r13_network.node[17].content_store 	misses[17] 	10193
scalar tree_4_3_u00_r13_network.node[17].content_store 	decision_yes[17] 	10193
scalar tree_4_3_u00_r13_network.node[17].content_store 	decision_no[17] 	0
scalar tree_4_3_u00_r13_network.node[17].content_store 	decision_ratio[17] 	1
scalar tree_4_3_u00_r13_network.node[18].core_layer 	interests[18] 	13088
scalar tree_4_3_u00_r13_network.node[18].core_layer 	data[18] 	10043
scalar tree_4_3_u00_r13_network.node[18].content_store 	p_hit[18] 	0.23265586797066
scalar tree_4_3_u00_r13_network.node[18].content_store 	hits[18] 	3045
scalar tree_4_3_u00_r13_network.node[18].content_store 	misses[18] 	10043
scalar tree_4_3_u00_r13_network.node[18].content_store 	decision_yes[18] 	10043
scalar tree_4_3_u00_r13_network.node[18].content_store 	decision_no[18] 	0
scalar tree_4_3_u00_r13_network.node[18].content_store 	decision_ratio[18] 	1
scalar tree_4_3_u00_r13_network.node[19].core_layer 	interests[19] 	13023
scalar tree_4_3_u00_r13_network.node[19].core_layer 	data[19] 	9907
scalar tree_4_3_u00_r13_network.node[19].content_store 	p_hit[19] 	0.23919219841818
scalar tree_4_3_u00_r13_network.node[19].content_store 	hits[19] 	3115
scalar tree_4_3_u00_r13_network.node[19].content_store 	misses[19] 	9908
scalar tree_4_3_u00_r13_network.node[19].content_store 	decision_yes[19] 	9907
scalar tree_4_3_u00_r13_network.node[19].content_store 	decision_no[19] 	0
scalar tree_4_3_u00_r13_network.node[19].content_store 	decision_ratio[19] 	1
scalar tree_4_3_u00_r13_network.node[20].core_layer 	interests[20] 	13060
scalar tree_4_3_u00_r13_network.node[20].core_layer 	data[20] 	10004
scalar tree_4_3_u00_r13_network.node[20].content_store 	p_hit[20] 	0.23399693721286
scalar tree_4_3_u00_r13_network.node[20].content_store 	hits[20] 	3056
scalar tree_4_3_u00_r13_network.node[20].content_store 	misses[20] 	10004
scalar tree_4_3_u00_r13_network.node[20].content_store 	decision_yes[20] 	10004
scalar tree_4_3_u00_r13_network.node[20].content_store 	decision_no[20] 	0
scalar tree_4_3_u00_r13_network.node[20].content_store 	decision_ratio[20] 	1
scalar tree_4_3_u00_r13_network.node[21].core_layer 	interests[21] 	13212
scalar tree_4_3_u00_r13_network.node[21].core_layer 	data[21] 	10189
scalar tree_4_3_u00_r13_network.node[21].content_store 	p_hit[21] 	0.22873145625189
scalar tree_4_3_u00_r13_network.node[21].content_store 	hits[21] 	3022
scalar tree_4_3_u00_r13_network.node[21].content_store 	misses[21] 	10190
scalar tree_4_3_u00_r13_network.node[21].content_store 	decision_yes[21] 	10189
scalar tree_4_3_u00_r13_network.node[21].content_store 	decision_no[21] 	0
scalar tree_4_3_u00_r13_network.node[21].content_store 	decision_ratio[21] 	1
scalar tree_4_3_u00_r13_network.node[22].core_layer 	interests[22] 	12918
scalar tree_4_3_u00_r13_network.node[22].core_layer 	data[22] 	9927
scalar tree_4_3_u00_r13_network.node[22].content_store 	p_hit[22] 	0.23145997832482
scalar tree_4_3_u00_r13_network.node[22].content_store 	hits[22] 	2990
scalar tree_4_3_u00_r13_network.node[22].content_store 	misses[22] 	9928
scalar tree_4_3_u00_r13_network.node[22].content_store 	decision_yes[22] 	9927
scalar tree_4_3_u00_r13_network.node[22].content_store 	decision_no[22] 	0
scalar tree_4_3_u00_r13_network.node[22].content_store 	decision_ratio[22] 	1
scalar tree_4_3_u00_r13_network.node[23].core_layer 	interests[23] 	13152
scalar tree_4_3_u00_r13_network.node[23].core_layer 	data[23] 	10044
scalar tree_4_3_u00_r13_network.node[23].content_store 	p_hit[23] 	0.23631386861314
scalar tree_4_3_u00_r13_network.node[23].content_store 	hits[23] 	3108
scalar tree_4_3_u00_r13_network.node[23].content_store 	misses[23] 	10044
scalar tree_4_3_u00_r13_network.node[23].content_store 	decision_yes[23] 	10044
scalar tree_4_3_u00_r13_network.node[23].content_store 	decision_no[23] 	0
scalar tree_4_3_u00_r13_network.node[23].content_store 	decision_ratio[23] 	1
scalar tree_4_3_u00_r13_network.node[24].core_layer 	interests[24] 	13157
scalar tree_4_3_u00_r13_network.node[24].core_layer 	data[24] 	10169
scalar tree_4_3_u00_r13_network.node[24].content_store 	p_hit[24] 	0.22687542752907
scalar tree_4_3_u00_r13_network.node[24].content_store 	hits[24] 	2985
scalar tree_4_3_u00_r13_network.node[24].content_store 	misses[24] 	10172
scalar tree_4_3_u00_r13_network.node[24].content_store 	decision_yes[24] 	10169
scalar tree_4_3_u00_r13_network.node[24].content_store 	decision_no[24] 	0
scalar tree_4_3_u00_r13_network.node[24].content_store 	decision_ratio[24] 	1
scalar tree_4_3_u00_r13_network.node[25].core_layer 	interests[25] 	13074
scalar tree_4_3_u00_r13_network.node[25].core_layer 	data[25] 	10022
scalar tree_4_3_u00_r13_network.node[25].content_store 	p_hit[25] 	0.23344041609301
scalar tree_4_3_u00_r13_network.node[25].content_store 	hits[25] 	3052
scalar tree_4_3_u00_r13_network.node[25].content_store 	misses[25] 	10022
scalar tree_4_3_u00_r13_network.node[25].content_store 	decision_yes[25] 	10022
scalar tree_4_3_u00_r13_network.node[25].content_store 	decision_no[25] 	0
scalar tree_4_3_u00_r13_network.node[25].content_store 	decision_ratio[25] 	1
scalar tree_4_3_u00_r13_network.node[26].core_layer 	interests[26] 	13212
scalar tree_4_3_u00_r13_network.node[26].core_layer 	data[26] 	10188
scalar tree_4_3_u00_r13_network.node[26].content_store 	p_hit[26] 	0.22865576748411
scalar tree_4_3_u00_r13_network.node[26].content_store 	hits[26] 	3021
scalar tree_4_3_u00_r13_network.node[26].content_store 	misses[26] 	10191
scalar tree_4_3_u00_r13_network.node[26].content_store 	decision_yes[26] 	10188
scalar tree_4_3_u00_r13_network.node[26].content_store 	decision_no[26] 	0
scalar tree_4_3_u00_r13_network.node[26].content_store 	decision_ratio[26] 	1
scalar tree_4_3_u00_r13_network.node[27].core_layer 	interests[27] 	13060
scalar tree_4_3_u00_r13_network.node[27].core_layer 	data[27] 	10049
scalar tree_4_3_u00_r13_network.node[27].content_store 	p_hit[27] 	0.23055130168453
scalar tree_4_3_u00_r13_network.node[27].content_store 	hits[27] 	3011
scalar tree_4_3_u00_r13_network.node[27].content_store 	misses[27] 	10049
scalar tree_4_3_u00_r13_network.node[27].content_store 	decision_yes[27] 	10049
scalar tree_4_3_u00_r13_network.node[27].content_store 	decision_no[27] 	0
scalar tree_4_3_u00_r13_network.node[27].content_store 	decision_ratio[27] 	1
scalar tree_4_3_u00_r13_network.node[28].core_layer 	interests[28] 	12883
scalar tree_4_3_u00_r13_network.node[28].core_layer 	data[28] 	9924
scalar tree_4_3_u00_r13_network.node[28].content_store 	p_hit[28] 	0.22968252736164
scalar tree_4_3_u00_r13_network.node[28].content_store 	hits[28] 	2959
scalar tree_4_3_u00_r13_network.node[28].content_store 	misses[28] 	9924
scalar tree_4_3_u00_r13_network.node[28].content_store 	decision_yes[28] 	9924
scalar tree_4_3_u00_r13_network.node[28].content_store 	decision_no[28] 	0
scalar tree_4_3_u00_r13_network.node[28].content_store 	decision_ratio[28] 	1
scalar tree_4_3_u00_r13_network.node[29].core_layer 	interests[29] 	13119
scalar tree_4_3_u00_r13_network.node[29].core_layer 	data[29] 	10000
scalar tree_4_3_u00_r13_network.node[29].content_store 	p_hit[29] 	0.23767055415809
scalar tree_4_3_u00_r13_network.node[29].content_store 	hits[29] 	3118
scalar tree_4_3_u00_r13_network.node[29].content_store 	misses[29] 	10001
scalar tree_4_3_u00_r13_network.node[29].content_store 	decision_yes[29] 	10000
scalar tree_4_3_u00_r13_network.node[29].content_store 	decision_no[29] 	0
scalar tree_4_3_u00_r13_network.node[29].content_store 	decision_ratio[29] 	1
scalar tree_4_3_u00_r13_network.node[30].core_layer 	interests[30] 	13138
scalar tree_4_3_u00_r13_network.node[30].core_layer 	data[30] 	10117
scalar tree_4_3_u00_r13_network.node[30].content_store 	p_hit[30] 	0.22979144466433
scalar tree_4_3_u00_r13_network.node[30].content_store 	hits[30] 	3019
scalar tree_4_3_u00_r13_network.node[30].content_store 	misses[30] 	10119
scalar tree_4_3_u00_r13_network.node[30].content_store 	decision_yes[30] 	10117
scalar tree_4_3_u00_r13_network.node[30].content_store 	decision_no[30] 	0
scalar tree_4_3_u00_r13_network.node[30].content_store 	decision_ratio[30] 	1
scalar tree_4_3_u00_r13_network.node[31].core_layer 	interests[31] 	13069
scalar tree_4_3_u00_r13_network.node[31].core_layer 	data[31] 	9997
scalar tree_4_3_u00_r13_network.node[31].content_store 	p_hit[31] 	0.23506006580458
scalar tree_4_3_u00_r13_network.node[31].content_store 	hits[31] 	3072
scalar tree_4_3_u00_r13_network.node[31].content_store 	misses[31] 	9997
scalar tree_4_3_u00_r13_network.node[31].content_store 	decision_yes[31] 	9997
scalar tree_4_3_u00_r13_network.node[31].content_store 	decision_no[31] 	0
scalar tree_4_3_u00_r13_network.node[31].content_store 	decision_ratio[31] 	1
scalar tree_4_3_u00_r13_network.node[32].core_layer 	interests[32] 	13110
scalar tree_4_3_u00_r13_network.node[32].core_layer 	data[32] 	10187
scalar tree_4_3_u00_r13_network.node[32].content_store 	p_hit[32] 	0.22288329519451
scalar tree_4_3_u00_r13_network.node[32].content_store 	hits[32] 	2922
scalar tree_4_3_u00_r13_network.node[32].content_store 	misses[32] 	10188
scalar tree_4_3_u00_r13_network.node[32].content_store 	decision_yes[32] 	10187
scalar tree_4_3_u00_r13_network.node[32].content_store 	decision_no[32] 	0
scalar tree_4_3_u00_r13_network.node[32].content_store 	decision_ratio[32] 	1
scalar tree_4_3_u00_r13_network.node[33].core_layer 	interests[33] 	13013
scalar tree_4_3_u00_r13_network.node[33].core_layer 	data[33] 	10014
scalar tree_4_3_u00_r13_network.node[33].content_store 	p_hit[33] 	0.23038499961577
scalar tree_4_3_u00_r13_network.node[33].content_store 	hits[33] 	2998
scalar tree_4_3_u00_r13_network.node[33].content_store 	misses[33] 	10015
scalar tree_4_3_u00_r13_network.node[33].content_store 	decision_yes[33] 	10014
scalar tree_4_3_u00_r13_network.node[33].content_store 	decision_no[33] 	0
scalar tree_4_3_u00_r13_network.node[33].content_store 	decision_ratio[33] 	1
scalar tree_4_3_u00_r13_network.node[34].core_layer 	interests[34] 	13161
scalar tree_4_3_u00_r13_network.node[34].core_layer 	data[34] 	10195
scalar tree_4_3_u00_r13_network.node[34].content_store 	p_hit[34] 	0.22536281437581
scalar tree_4_3_u00_r13_network.node[34].content_store 	hits[34] 	2966
scalar tree_4_3_u00_r13_network.node[34].content_store 	misses[34] 	10195
scalar tree_4_3_u00_r13_network.node[34].content_store 	decision_yes[34] 	10195
scalar tree_4_3_u00_r13_network.node[34].content_store 	decision_no[34] 	0
scalar tree_4_3_u00_r13_network.node[34].content_store 	decision_ratio[34] 	1
scalar tree_4_3_u00_r13_network.node[35].core_layer 	interests[35] 	13145
scalar tree_4_3_u00_r13_network.node[35].core_layer 	data[35] 	10082
scalar tree_4_3_u00_r13_network.node[35].content_store 	p_hit[35] 	0.23286420692278
scalar tree_4_3_u00_r13_network.node[35].content_store 	hits[35] 	3061
scalar tree_4_3_u00_r13_network.node[35].content_store 	misses[35] 	10084
scalar tree_4_3_u00_r13_network.node[35].content_store 	decision_yes[35] 	10082
scalar tree_4_3_u00_r13_network.node[35].content_store 	decision_no[35] 	0
scalar tree_4_3_u00_r13_network.node[35].content_store 	decision_ratio[35] 	1
scalar tree_4_3_u00_r13_network.node[36].core_layer 	interests[36] 	13211
scalar tree_4_3_u00_r13_network.node[36].core_layer 	data[36] 	10090
scalar tree_4_3_u00_r13_network.node[36].content_store 	p_hit[36] 	0.23624252516842
scalar tree_4_3_u00_r13_network.node[36].content_store 	hits[36] 	3121
scalar tree_4_3_u00_r13_network.node[36].content_store 	misses[36] 	10090
scalar tree_4_3_u00_r13_network.node[36].content_store 	decision_yes[36] 	10090
scalar tree_4_3_u00_r13_network.node[36].content_store 	decision_no[36] 	0
scalar tree_4_3_u00_r13_network.node[36].content_store 	decision_ratio[36] 	1
scalar tree_4_3_u00_r13_network.node[37].core_layer 	interests[37] 	13099
scalar tree_4_3_u00_r13_network.node[37].core_layer 	data[37] 	10083
scalar tree_4_3_u00_r13_network.node[37].content_store 	p_hit[37] 	0.23017024200321
scalar tree_4_3_u00_r13_network.node[37].content_store 	hits[37] 	3015
scalar tree_4_3_u00_r13_network.node[37].content_store 	misses[37] 	10084
scalar tree_4_3_u00_r13_network.node[37].content_store 	decision_yes[37] 	10083
scalar tree_4_3_u00_r13_network.node[37].content_store 	decision_no[37] 	0
scalar tree_4_3_u00_r13_network.node[37].content_store 	decision_ratio[37] 	1
scalar tree_4_3_u00_r13_network.node[38].core_layer 	interests[38] 	12986
scalar tree_4_3_u00_r13_network.node[38].core_layer 	data[38] 	9997
scalar tree_4_3_u00_r13_network.node[38].content_store 	p_hit[38] 	0.23009394732789
scalar tree_4_3_u00_r13_network.node[38].content_store 	hits[38] 	2988
scalar tree_4_3_u00_r13_network.node[38].content_store 	misses[38] 	9998
scalar tree_4_3_u00_r13_network.node[38].content_store 	decision_yes[38] 	9997
scalar tree_4_3_u00_r13_network.node[38].content_store 	decision_no[38] 	0
scalar tree_4_3_u00_r13_network.node[38].content_store 	decision_ratio[38] 	1
scalar tree_4_3_u00_r13_network.node[39].core_layer 	interests[39] 	13066
scalar tree_4_3_u00_r13_network.node[39].core_layer 	data[39] 	10110
scalar tree_4_3_u00_r13_network.node[39].content_store 	p_hit[39] 	0.22615949793357
scalar tree_4_3_u00_r13_network.node[39].content_store 	hits[39] 	2955
scalar tree_4_3_u00_r13_network.node[39].content_store 	misses[39] 	10111
scalar tree_4_3_u00_r13_network.node[39].content_store 	decision_yes[39] 	10110
scalar tree_4_3_u00_r13_network.node[39].content_store 	decision_no[39] 	0
scalar tree_4_3_u00_r13_network.node[39].content_store 	decision_ratio[39] 	1
scalar tree_4_3_u00_r13_network.client[13] 	hdistance[13] 	3.1149119893723
scalar tree_4_3_u00_r13_network.client[13] 	downloads[13] 	12044
scalar tree_4_3_u00_r13_network.client[13] 	avg_time[13] 	0.004869807663
scalar tree_4_3_u00_r13_network.client[14] 	hdistance[14] 	3.1139862430396
scalar tree_4_3_u00_r13_network.client[14] 	downloads[14] 	12212
scalar tree_4_3_u00_r13_network.client[14] 	avg_time[14] 	0.004866899216
scalar tree_4_3_u00_r13_network.client[15] 	hdistance[15] 	3.1264098922216
scalar tree_4_3_u00_r13_network.client[15] 	downloads[15] 	11969
scalar tree_4_3_u00_r13_network.client[15] 	avg_time[15] 	0.004884000271
scalar tree_4_3_u00_r13_network.client[16] 	hdistance[16] 	3.1282310347731
scalar tree_4_3_u00_r13_network.client[16] 	downloads[16] 	11877
scalar tree_4_3_u00_r13_network.client[16] 	avg_time[16] 	0.004890170958
scalar tree_4_3_u00_r13_network.client[17] 	hdistance[17] 	3.1401615029664
scalar tree_4_3_u00_r13_network.client[17] 	downloads[17] 	12136
scalar tree_4_3_u00_r13_network.client[17] 	avg_time[17] 	0.004916526053
scalar tree_4_3_u00_r13_network.client[18] 	hdistance[18] 	3.1424989552862
scalar tree_4_3_u00_r13_network.client[18] 	downloads[18] 	11965
scalar tree_4_3_u00_r13_network.client[18] 	avg_time[18] 	0.004907193354
scalar tree_4_3_u00_r13_network.client[19] 	hdistance[19] 	3.1115219766367
scalar tree_4_3_u00_r13_network.client[19] 	downloads[19] 	11899
scalar tree_4_3_u00_r13_network.client[19] 	avg_time[19] 	0.004862618714
scalar tree_4_3_u00_r13_network.client[20] 	hdistance[20] 	3.1349047141424
scalar tree_4_3_u00_r13_network.client[20] 	downloads[20] 	11964
scalar tree_4_3_u00_r13_network.client[20] 	avg_time[20] 	0.00490053194
scalar tree_4_3_u00_r13_network.client[21] 	hdistance[21] 	3.1264650438489
scalar tree_4_3_u00_r13_network.client[21] 	downloads[21] 	12201
scalar tree_4_3_u00_r13_network.client[21] 	avg_time[21] 	0.004883568413
scalar tree_4_3_u00_r13_network.client[22] 	hdistance[22] 	3.1400219576049
scalar tree_4_3_u00_r13_network.client[22] 	downloads[22] 	11841
scalar tree_4_3_u00_r13_network.client[22] 	avg_time[22] 	0.004896397017
scalar tree_4_3_u00_r13_network.client[23] 	hdistance[23] 	3.1186046511628
scalar tree_4_3_u00_r13_network.client[23] 	downloads[23] 	12040
scalar tree_4_3_u00_r13_network.client[23] 	avg_time[23] 	0.004872754476
scalar tree_4_3_u00_r13_network.client[24] 	hdistance[24] 	3.1429633300297
scalar tree_4_3_u00_r13_network.client[24] 	downloads[24] 	12108
scalar tree_4_3_u00_r13_network.client[24] 	avg_time[24] 	0.00491457917
scalar tree_4_3_u00_r13_network.client[25] 	hdistance[25] 	3.1290699615963
scalar tree_4_3_u00_r13_network.client[25] 	downloads[25] 	11978
scalar tree_4_3_u00_r13_network.client[25] 	avg_time[25] 	0.004895593388
scalar tree_4_3_u00_r13_network.client[26] 	hdistance[26] 	3.1454500453758
scalar tree_4_3_u00_r13_network.client[26] 	downloads[26] 	12121
scalar tree_4_3_u00_r13_network.client[26] 	avg_time[26] 	0.004918931256
scalar tree_4_3_u00_r13_network.client[27] 	hdistance[27] 	3.1293146573287
scalar tree_4_3_u00_r13_network.client[27] 	downloads[27] 	11994
scalar tree_4_3_u00_r13_network.client[27] 	avg_time[27] 	0.00488527296
scalar tree_4_3_u00_r13_network.client[28] 	hdistance[28] 	3.1391421816954
scalar tree_4_3_u00_r13_network.client[28] 	downloads[28] 	11844
scalar tree_4_3_u00_r13_network.client[28] 	avg_time[28] 	0.004904590113
scalar tree_4_3_u00_r13_network.client[29] 	hdistance[29] 	3.1080362336907
scalar tree_4_3_u00_r13_network.client[29] 	downloads[29] 	12033
scalar tree_4_3_u00_r13_network.client[29] 	avg_time[29] 	0.004860709265
scalar tree_4_3_u00_r13_network.client[30] 	hdistance[30] 	3.133073542824
scalar tree_4_3_u00_r13_network.client[30] 	downloads[30] 	12061
scalar tree_4_3_u00_r13_network.client[30] 	avg_time[30] 	0.004899012967
scalar tree_4_3_u00_r13_network.client[31] 	hdistance[31] 	3.1314711047922
scalar tree_4_3_u00_r13_network.client[31] 	downloads[31] 	11957
scalar tree_4_3_u00_r13_network.client[31] 	avg_time[31] 	0.004894732101
scalar tree_4_3_u00_r13_network.client[32] 	hdistance[32] 	3.1645233551813
scalar tree_4_3_u00_r13_network.client[32] 	downloads[32] 	12053
scalar tree_4_3_u00_r13_network.client[32] 	avg_time[32] 	0.004952401139
scalar tree_4_3_u00_r13_network.client[33] 	hdistance[33] 	3.1397354320161
scalar tree_4_3_u00_r13_network.client[33] 	downloads[33] 	11944
scalar tree_4_3_u00_r13_network.client[33] 	avg_time[33] 	0.004900237216
scalar tree_4_3_u00_r13_network.client[34] 	hdistance[34] 	3.1573247354497
scalar tree_4_3_u00_r13_network.client[34] 	downloads[34] 	12096
scalar tree_4_3_u00_r13_network.client[34] 	avg_time[34] 	0.004937873173
scalar tree_4_3_u00_r13_network.client[35] 	hdistance[35] 	3.1410160472271
scalar tree_4_3_u00_r13_network.client[35] 	downloads[35] 	12027
scalar tree_4_3_u00_r13_network.client[35] 	avg_time[35] 	0.004904161856
scalar tree_4_3_u00_r13_network.client[36] 	hdistance[36] 	3.1211018281082
scalar tree_4_3_u00_r13_network.client[36] 	downloads[36] 	12089
scalar tree_4_3_u00_r13_network.client[36] 	avg_time[36] 	0.004874782476
scalar tree_4_3_u00_r13_network.client[37] 	hdistance[37] 	3.1343630626142
scalar tree_4_3_u00_r13_network.client[37] 	downloads[37] 	12042
scalar tree_4_3_u00_r13_network.client[37] 	avg_time[37] 	0.004901347039
scalar tree_4_3_u00_r13_network.client[38] 	hdistance[38] 	3.1333612740989
scalar tree_4_3_u00_r13_network.client[38] 	downloads[38] 	11930
scalar tree_4_3_u00_r13_network.client[38] 	avg_time[38] 	0.004897457027
scalar tree_4_3_u00_r13_network.client[39] 	hdistance[39] 	3.1455543541545
scalar tree_4_3_u00_r13_network.client[39] 	downloads[39] 	12023
scalar tree_4_3_u00_r13_network.client[39] 	avg_time[39] 	0.004914026346
