version 2
run General-145-20160820-09:53:25-856
attr a 0.9
attr cd lcd
attr configname General
attr cr lru
attr datetime 20160820-09:53:25
attr experiment General
attr fsize 1
attr inifile hw5115/scenario_A/SPR-LCD.ini
attr iterationvars "$name=tree_4_3, $un=07, $rep=6, $cd=lcd, $cr=lru, $fsize=1, $a=0.9, $sl=spr, $ttl=1000, $variance=0.05"
attr iterationvars2 "$name=tree_4_3, $un=07, $rep=6, $cd=lcd, $cr=lru, $fsize=1, $a=0.9, $sl=spr, $ttl=1000, $variance=0.05, $repetition=0"
attr measurement "$name=tree_4_3, $un=07, $rep=6, $cd=lcd, $cr=lru, $fsize=1, $a=0.9, $sl=spr, $ttl=1000, $variance=0.05"
attr name tree_4_3
attr network networks.${name}_u${un}_r${rep}_network
attr processid 856
attr rep 6
attr repetition 0
attr replication #0
attr resultdir results
attr runnumber 145
attr seedset 6
attr sl spr
attr ttl 1000
attr un 07
attr variance 0.05

scalar . 	a 	0.9
scalar . 	fsize 	1
scalar . 	rep 	6
scalar . 	ttl 	1000
scalar . 	un 	07
scalar . 	variance 	0.05
scalar tree_4_3_u07_r6_network.content_distribution 	repo-0 	0
scalar tree_4_3_u07_r6_network.content_distribution 	client-0 	13
scalar tree_4_3_u07_r6_network.content_distribution 	client-1 	14
scalar tree_4_3_u07_r6_network.content_distribution 	client-2 	15
scalar tree_4_3_u07_r6_network.content_distribution 	client-3 	16
scalar tree_4_3_u07_r6_network.content_distribution 	client-4 	17
scalar tree_4_3_u07_r6_network.content_distribution 	client-5 	18
scalar tree_4_3_u07_r6_network.content_distribution 	client-6 	19
scalar tree_4_3_u07_r6_network.content_distribution 	client-7 	20
scalar tree_4_3_u07_r6_network.content_distribution 	client-8 	21
scalar tree_4_3_u07_r6_network.content_distribution 	client-9 	22
scalar tree_4_3_u07_r6_network.content_distribution 	client-10 	23
scalar tree_4_3_u07_r6_network.content_distribution 	client-11 	24
scalar tree_4_3_u07_r6_network.content_distribution 	client-12 	25
scalar tree_4_3_u07_r6_network.content_distribution 	client-13 	26
scalar tree_4_3_u07_r6_network.content_distribution 	client-14 	27
scalar tree_4_3_u07_r6_network.content_distribution 	client-15 	28
scalar tree_4_3_u07_r6_network.content_distribution 	client-16 	29
scalar tree_4_3_u07_r6_network.content_distribution 	client-17 	30
scalar tree_4_3_u07_r6_network.content_distribution 	client-18 	31
scalar tree_4_3_u07_r6_network.content_distribution 	client-19 	32
scalar tree_4_3_u07_r6_network.content_distribution 	client-20 	33
scalar tree_4_3_u07_r6_network.content_distribution 	client-21 	34
scalar tree_4_3_u07_r6_network.content_distribution 	client-22 	35
scalar tree_4_3_u07_r6_network.content_distribution 	client-23 	36
scalar tree_4_3_u07_r6_network.content_distribution 	client-24 	37
scalar tree_4_3_u07_r6_network.content_distribution 	client-25 	38
scalar tree_4_3_u07_r6_network.content_distribution 	client-26 	39
scalar tree_4_3_u07_r6_network.content_distribution 	repo-0_card 	100000
scalar tree_4_3_u07_r6_network.content_distribution 	repo-0_price 	0
scalar tree_4_3_u07_r6_network.statistics 	stabilization_time 	5103
scalar tree_4_3_u07_r6_network.statistics 	p_hit 	0.18747813293598
scalar tree_4_3_u07_r6_network.statistics 	interests 	25382.325
scalar tree_4_3_u07_r6_network.statistics 	data 	17303.9
scalar tree_4_3_u07_r6_network.statistics 	hdistance 	2.831868320155
scalar tree_4_3_u07_r6_network.statistics 	avg_time 	0.004284088646
scalar tree_4_3_u07_r6_network.statistics 	downloads 	323133
scalar tree_4_3_u07_r6_network.statistics 	total_cost 	0
scalar tree_4_3_u07_r6_network.statistics 	total_replicas 	100000
scalar tree_4_3_u07_r6_network.statistics 	inner_hit 	0.31024376959333
scalar tree_4_3_u07_r6_network.node[0].core_layer 	interests[0] 	225145
scalar tree_4_3_u07_r6_network.node[0].core_layer 	repo_load[0] 	222883
scalar tree_4_3_u07_r6_network.node[0].core_layer 	data[0] 	0
scalar tree_4_3_u07_r6_network.node[0].core_layer 	repo_int[0] 	222883
scalar tree_4_3_u07_r6_network.node[0].content_store 	p_hit[0] 	0.010046858691066
scalar tree_4_3_u07_r6_network.node[0].content_store 	hits[0] 	2262
scalar tree_4_3_u07_r6_network.node[0].content_store 	misses[0] 	222883
scalar tree_4_3_u07_r6_network.node[0].content_store 	decision_yes[0] 	222883
scalar tree_4_3_u07_r6_network.node[0].content_store 	decision_no[0] 	0
scalar tree_4_3_u07_r6_network.node[0].content_store 	decision_ratio[0] 	1
scalar tree_4_3_u07_r6_network.node[1].core_layer 	interests[1] 	143681
scalar tree_4_3_u07_r6_network.node[1].core_layer 	data[1] 	140623
scalar tree_4_3_u07_r6_network.node[1].content_store 	p_hit[1] 	0.021241500267955
scalar tree_4_3_u07_r6_network.node[1].content_store 	hits[1] 	3052
scalar tree_4_3_u07_r6_network.node[1].content_store 	misses[1] 	140629
scalar tree_4_3_u07_r6_network.node[1].content_store 	decision_yes[1] 	1422
scalar tree_4_3_u07_r6_network.node[1].content_store 	decision_no[1] 	139201
scalar tree_4_3_u07_r6_network.node[1].content_store 	decision_ratio[1] 	0.010112143817157
scalar tree_4_3_u07_r6_network.node[2].core_layer 	interests[2] 	77207
scalar tree_4_3_u07_r6_network.node[2].core_layer 	data[2] 	75916
scalar tree_4_3_u07_r6_network.node[2].content_store 	p_hit[2] 	0.016669472975248
scalar tree_4_3_u07_r6_network.node[2].content_store 	hits[2] 	1287
scalar tree_4_3_u07_r6_network.node[2].content_store 	misses[2] 	75920
scalar tree_4_3_u07_r6_network.node[2].content_store 	decision_yes[2] 	756
scalar tree_4_3_u07_r6_network.node[2].content_store 	decision_no[2] 	75160
scalar tree_4_3_u07_r6_network.node[2].content_store 	decision_ratio[2] 	0.0099583750461036
scalar tree_4_3_u07_r6_network.node[3].core_layer 	interests[3] 	8678
scalar tree_4_3_u07_r6_network.node[3].core_layer 	data[3] 	8606
scalar tree_4_3_u07_r6_network.node[3].content_store 	p_hit[3] 	0.0082968425904586
scalar tree_4_3_u07_r6_network.node[3].content_store 	hits[3] 	72
scalar tree_4_3_u07_r6_network.node[3].content_store 	misses[3] 	8606
scalar tree_4_3_u07_r6_network.node[3].content_store 	decision_yes[3] 	84
scalar tree_4_3_u07_r6_network.node[3].content_store 	decision_no[3] 	8522
scalar tree_4_3_u07_r6_network.node[3].content_store 	decision_ratio[3] 	0.0097606321171276
scalar tree_4_3_u07_r6_network.node[4].core_layer 	interests[4] 	43964
scalar tree_4_3_u07_r6_network.node[4].core_layer 	data[4] 	42311
scalar tree_4_3_u07_r6_network.node[4].content_store 	p_hit[4] 	0.037576198708034
scalar tree_4_3_u07_r6_network.node[4].content_store 	hits[4] 	1652
scalar tree_4_3_u07_r6_network.node[4].content_store 	misses[4] 	42312
scalar tree_4_3_u07_r6_network.node[4].content_store 	decision_yes[4] 	736
scalar tree_4_3_u07_r6_network.node[4].content_store 	decision_no[4] 	41575
scalar tree_4_3_u07_r6_network.node[4].content_store 	decision_ratio[4] 	0.01739500366335
scalar tree_4_3_u07_r6_network.node[5].core_layer 	interests[5] 	17516
scalar tree_4_3_u07_r6_network.node[5].core_layer 	data[5] 	16929
scalar tree_4_3_u07_r6_network.node[5].content_store 	p_hit[5] 	0.033512217401233
scalar tree_4_3_u07_r6_network.node[5].content_store 	hits[5] 	587
scalar tree_4_3_u07_r6_network.node[5].content_store 	misses[5] 	16929
scalar tree_4_3_u07_r6_network.node[5].content_store 	decision_yes[5] 	446
scalar tree_4_3_u07_r6_network.node[5].content_store 	decision_no[5] 	16483
scalar tree_4_3_u07_r6_network.node[5].content_store 	decision_ratio[5] 	0.026345324590939
scalar tree_4_3_u07_r6_network.node[6].core_layer 	interests[6] 	17618
scalar tree_4_3_u07_r6_network.node[6].core_layer 	data[6] 	17051
scalar tree_4_3_u07_r6_network.node[6].content_store 	p_hit[6] 	0.032126234532864
scalar tree_4_3_u07_r6_network.node[6].content_store 	hits[6] 	566
scalar tree_4_3_u07_r6_network.node[6].content_store 	misses[6] 	17052
scalar tree_4_3_u07_r6_network.node[6].content_store 	decision_yes[6] 	441
scalar tree_4_3_u07_r6_network.node[6].content_store 	decision_no[6] 	16610
scalar tree_4_3_u07_r6_network.node[6].content_store 	decision_ratio[6] 	0.025863585713448
scalar tree_4_3_u07_r6_network.node[7].core_layer 	interests[7] 	34901
scalar tree_4_3_u07_r6_network.node[7].core_layer 	data[7] 	33676
scalar tree_4_3_u07_r6_network.node[7].content_store 	p_hit[7] 	0.035070628348758
scalar tree_4_3_u07_r6_network.node[7].content_store 	hits[7] 	1224
scalar tree_4_3_u07_r6_network.node[7].content_store 	misses[7] 	33677
scalar tree_4_3_u07_r6_network.node[7].content_store 	decision_yes[7] 	705
scalar tree_4_3_u07_r6_network.node[7].content_store 	decision_no[7] 	32971
scalar tree_4_3_u07_r6_network.node[7].content_store 	decision_ratio[7] 	0.020934790355149
scalar tree_4_3_u07_r6_network.node[8].core_layer 	interests[8] 	26736
scalar tree_4_3_u07_r6_network.node[8].core_layer 	data[8] 	25953
scalar tree_4_3_u07_r6_network.node[8].content_store 	p_hit[8] 	0.029286355475763
scalar tree_4_3_u07_r6_network.node[8].content_store 	hits[8] 	783
scalar tree_4_3_u07_r6_network.node[8].content_store 	misses[8] 	25953
scalar tree_4_3_u07_r6_network.node[8].content_store 	decision_yes[8] 	436
scalar tree_4_3_u07_r6_network.node[8].content_store 	decision_no[8] 	25517
scalar tree_4_3_u07_r6_network.node[8].content_store 	decision_ratio[8] 	0.016799599275614
scalar tree_4_3_u07_r6_network.node[9].core_layer 	interests[9] 	17476
scalar tree_4_3_u07_r6_network.node[9].core_layer 	data[9] 	16958
scalar tree_4_3_u07_r6_network.node[9].content_store 	p_hit[9] 	0.029640650034333
scalar tree_4_3_u07_r6_network.node[9].content_store 	hits[9] 	518
scalar tree_4_3_u07_r6_network.node[9].content_store 	misses[9] 	16958
scalar tree_4_3_u07_r6_network.node[9].content_store 	decision_yes[9] 	338
scalar tree_4_3_u07_r6_network.node[9].content_store 	decision_no[9] 	16620
scalar tree_4_3_u07_r6_network.node[9].content_store 	decision_ratio[9] 	0.019931595707041
scalar tree_4_3_u07_r6_network.node[10].core_layer 	interests[10] 	34989
scalar tree_4_3_u07_r6_network.node[10].core_layer 	data[10] 	33713
scalar tree_4_3_u07_r6_network.node[10].content_store 	p_hit[10] 	0.036468604418532
scalar tree_4_3_u07_r6_network.node[10].content_store 	hits[10] 	1276
scalar tree_4_3_u07_r6_network.node[10].content_store 	misses[10] 	33713
scalar tree_4_3_u07_r6_network.node[10].content_store 	decision_yes[10] 	724
scalar tree_4_3_u07_r6_network.node[10].content_store 	decision_no[10] 	32989
scalar tree_4_3_u07_r6_network.node[10].content_store 	decision_ratio[10] 	0.021475395248124
scalar tree_4_3_u07_r6_network.node[11].core_layer 	interests[11] 	35404
scalar tree_4_3_u07_r6_network.node[11].core_layer 	data[11] 	34296
scalar tree_4_3_u07_r6_network.node[11].content_store 	p_hit[11] 	0.0312676533725
scalar tree_4_3_u07_r6_network.node[11].content_store 	hits[11] 	1107
scalar tree_4_3_u07_r6_network.node[11].content_store 	misses[11] 	34297
scalar tree_4_3_u07_r6_network.node[11].content_store 	decision_yes[11] 	513
scalar tree_4_3_u07_r6_network.node[11].content_store 	decision_no[11] 	33783
scalar tree_4_3_u07_r6_network.node[11].content_store 	decision_ratio[11] 	0.014958012596221
scalar tree_4_3_u07_r6_network.node[12].core_layer 	interests[12] 	8842
scalar tree_4_3_u07_r6_network.node[12].core_layer 	data[12] 	8678
scalar tree_4_3_u07_r6_network.node[12].content_store 	p_hit[12] 	0.018547839855236
scalar tree_4_3_u07_r6_network.node[12].content_store 	hits[12] 	164
scalar tree_4_3_u07_r6_network.node[12].content_store 	misses[12] 	8678
scalar tree_4_3_u07_r6_network.node[12].content_store 	decision_yes[12] 	72
scalar tree_4_3_u07_r6_network.node[12].content_store 	decision_no[12] 	8606
scalar tree_4_3_u07_r6_network.node[12].content_store 	decision_ratio[12] 	0.0082968425904586
scalar tree_4_3_u07_r6_network.node[13].core_layer 	interests[13] 	12049
scalar tree_4_3_u07_r6_network.node[13].core_layer 	data[13] 	8887
scalar tree_4_3_u07_r6_network.node[13].content_store 	p_hit[13] 	0.26242841729604
scalar tree_4_3_u07_r6_network.node[13].content_store 	hits[13] 	3162
scalar tree_4_3_u07_r6_network.node[13].content_store 	misses[13] 	8887
scalar tree_4_3_u07_r6_network.node[13].content_store 	decision_yes[13] 	347
scalar tree_4_3_u07_r6_network.node[13].content_store 	decision_no[13] 	8540
scalar tree_4_3_u07_r6_network.node[13].content_store 	decision_ratio[13] 	0.039045797231912
scalar tree_4_3_u07_r6_network.node[14].core_layer 	interests[14] 	12209
scalar tree_4_3_u07_r6_network.node[14].core_layer 	data[14] 	8919
scalar tree_4_3_u07_r6_network.node[14].content_store 	p_hit[14] 	0.26947333933983
scalar tree_4_3_u07_r6_network.node[14].content_store 	hits[14] 	3290
scalar tree_4_3_u07_r6_network.node[14].content_store 	misses[14] 	8919
scalar tree_4_3_u07_r6_network.node[14].content_store 	decision_yes[14] 	332
scalar tree_4_3_u07_r6_network.node[14].content_store 	decision_no[14] 	8587
scalar tree_4_3_u07_r6_network.node[14].content_store 	decision_ratio[14] 	0.037223904025115
scalar tree_4_3_u07_r6_network.node[15].core_layer 	interests[15] 	11767
scalar tree_4_3_u07_r6_network.node[15].core_layer 	data[15] 	8658
scalar tree_4_3_u07_r6_network.node[15].content_store 	p_hit[15] 	0.26421347837172
scalar tree_4_3_u07_r6_network.node[15].content_store 	hits[15] 	3109
scalar tree_4_3_u07_r6_network.node[15].content_store 	misses[15] 	8658
scalar tree_4_3_u07_r6_network.node[15].content_store 	decision_yes[15] 	325
scalar tree_4_3_u07_r6_network.node[15].content_store 	decision_no[15] 	8333
scalar tree_4_3_u07_r6_network.node[15].content_store 	decision_ratio[15] 	0.037537537537538
scalar tree_4_3_u07_r6_network.node[16].core_layer 	interests[16] 	11848
scalar tree_4_3_u07_r6_network.node[16].core_layer 	data[16] 	8752
scalar tree_4_3_u07_r6_network.node[16].content_store 	p_hit[16] 	0.26130992572586
scalar tree_4_3_u07_r6_network.node[16].content_store 	hits[16] 	3096
scalar tree_4_3_u07_r6_network.node[16].content_store 	misses[16] 	8752
scalar tree_4_3_u07_r6_network.node[16].content_store 	decision_yes[16] 	328
scalar tree_4_3_u07_r6_network.node[16].content_store 	decision_no[16] 	8424
scalar tree_4_3_u07_r6_network.node[16].content_store 	decision_ratio[16] 	0.037477148080439
scalar tree_4_3_u07_r6_network.node[17].core_layer 	interests[17] 	12023
scalar tree_4_3_u07_r6_network.node[17].core_layer 	data[17] 	8760
scalar tree_4_3_u07_r6_network.node[17].content_store 	p_hit[17] 	0.27139649006072
scalar tree_4_3_u07_r6_network.node[17].content_store 	hits[17] 	3263
scalar tree_4_3_u07_r6_network.node[17].content_store 	misses[17] 	8760
scalar tree_4_3_u07_r6_network.node[17].content_store 	decision_yes[17] 	300
scalar tree_4_3_u07_r6_network.node[17].content_store 	decision_no[17] 	8460
scalar tree_4_3_u07_r6_network.node[17].content_store 	decision_ratio[17] 	0.034246575342466
scalar tree_4_3_u07_r6_network.node[18].core_layer 	interests[18] 	11907
scalar tree_4_3_u07_r6_network.node[18].core_layer 	data[18] 	8756
scalar tree_4_3_u07_r6_network.node[18].content_store 	p_hit[18] 	0.26463424876123
scalar tree_4_3_u07_r6_network.node[18].content_store 	hits[18] 	3151
scalar tree_4_3_u07_r6_network.node[18].content_store 	misses[18] 	8756
scalar tree_4_3_u07_r6_network.node[18].content_store 	decision_yes[18] 	287
scalar tree_4_3_u07_r6_network.node[18].content_store 	decision_no[18] 	8469
scalar tree_4_3_u07_r6_network.node[18].content_store 	decision_ratio[18] 	0.032777523983554
scalar tree_4_3_u07_r6_network.node[19].core_layer 	interests[19] 	11879
scalar tree_4_3_u07_r6_network.node[19].core_layer 	data[19] 	8748
scalar tree_4_3_u07_r6_network.node[19].content_store 	p_hit[19] 	0.26357437494739
scalar tree_4_3_u07_r6_network.node[19].content_store 	hits[19] 	3131
scalar tree_4_3_u07_r6_network.node[19].content_store 	misses[19] 	8748
scalar tree_4_3_u07_r6_network.node[19].content_store 	decision_yes[19] 	320
scalar tree_4_3_u07_r6_network.node[19].content_store 	decision_no[19] 	8428
scalar tree_4_3_u07_r6_network.node[19].content_store 	decision_ratio[19] 	0.036579789666209
scalar tree_4_3_u07_r6_network.node[20].core_layer 	interests[20] 	11949
scalar tree_4_3_u07_r6_network.node[20].core_layer 	data[20] 	8783
scalar tree_4_3_u07_r6_network.node[20].content_store 	p_hit[20] 	0.26479203280609
scalar tree_4_3_u07_r6_network.node[20].content_store 	hits[20] 	3164
scalar tree_4_3_u07_r6_network.node[20].content_store 	misses[20] 	8785
scalar tree_4_3_u07_r6_network.node[20].content_store 	decision_yes[20] 	267
scalar tree_4_3_u07_r6_network.node[20].content_store 	decision_no[20] 	8516
scalar tree_4_3_u07_r6_network.node[20].content_store 	decision_ratio[20] 	0.030399635659797
scalar tree_4_3_u07_r6_network.node[21].core_layer 	interests[21] 	12023
scalar tree_4_3_u07_r6_network.node[21].core_layer 	data[21] 	8834
scalar tree_4_3_u07_r6_network.node[21].content_store 	p_hit[21] 	0.2652416202279
scalar tree_4_3_u07_r6_network.node[21].content_store 	hits[21] 	3189
scalar tree_4_3_u07_r6_network.node[21].content_store 	misses[21] 	8834
scalar tree_4_3_u07_r6_network.node[21].content_store 	decision_yes[21] 	299
scalar tree_4_3_u07_r6_network.node[21].content_store 	decision_no[21] 	8535
scalar tree_4_3_u07_r6_network.node[21].content_store 	decision_ratio[21] 	0.033846502150781
scalar tree_4_3_u07_r6_network.node[22].core_layer 	interests[22] 	11831
scalar tree_4_3_u07_r6_network.node[22].core_layer 	data[22] 	8703
scalar tree_4_3_u07_r6_network.node[22].content_store 	p_hit[22] 	0.26439016144028
scalar tree_4_3_u07_r6_network.node[22].content_store 	hits[22] 	3128
scalar tree_4_3_u07_r6_network.node[22].content_store 	misses[22] 	8703
scalar tree_4_3_u07_r6_network.node[22].content_store 	decision_yes[22] 	322
scalar tree_4_3_u07_r6_network.node[22].content_store 	decision_no[22] 	8381
scalar tree_4_3_u07_r6_network.node[22].content_store 	decision_ratio[22] 	0.036998736068023
scalar tree_4_3_u07_r6_network.node[23].core_layer 	interests[23] 	11809
scalar tree_4_3_u07_r6_network.node[23].core_layer 	data[23] 	8787
scalar tree_4_3_u07_r6_network.node[23].content_store 	p_hit[23] 	0.25590651198239
scalar tree_4_3_u07_r6_network.node[23].content_store 	hits[23] 	3022
scalar tree_4_3_u07_r6_network.node[23].content_store 	misses[23] 	8787
scalar tree_4_3_u07_r6_network.node[23].content_store 	decision_yes[23] 	301
scalar tree_4_3_u07_r6_network.node[23].content_store 	decision_no[23] 	8486
scalar tree_4_3_u07_r6_network.node[23].content_store 	decision_ratio[23] 	0.034255149652896
scalar tree_4_3_u07_r6_network.node[24].core_layer 	interests[24] 	11765
scalar tree_4_3_u07_r6_network.node[24].core_layer 	data[24] 	8613
scalar tree_4_3_u07_r6_network.node[24].content_store 	p_hit[24] 	0.26791330216745
scalar tree_4_3_u07_r6_network.node[24].content_store 	hits[24] 	3152
scalar tree_4_3_u07_r6_network.node[24].content_store 	misses[24] 	8613
scalar tree_4_3_u07_r6_network.node[24].content_store 	decision_yes[24] 	297
scalar tree_4_3_u07_r6_network.node[24].content_store 	decision_no[24] 	8316
scalar tree_4_3_u07_r6_network.node[24].content_store 	decision_ratio[24] 	0.03448275862069
scalar tree_4_3_u07_r6_network.node[25].core_layer 	interests[25] 	11997
scalar tree_4_3_u07_r6_network.node[25].core_layer 	data[25] 	8798
scalar tree_4_3_u07_r6_network.node[25].content_store 	p_hit[25] 	0.26664999583229
scalar tree_4_3_u07_r6_network.node[25].content_store 	hits[25] 	3199
scalar tree_4_3_u07_r6_network.node[25].content_store 	misses[25] 	8798
scalar tree_4_3_u07_r6_network.node[25].content_store 	decision_yes[25] 	304
scalar tree_4_3_u07_r6_network.node[25].content_store 	decision_no[25] 	8494
scalar tree_4_3_u07_r6_network.node[25].content_store 	decision_ratio[25] 	0.034553307569902
scalar tree_4_3_u07_r6_network.node[26].core_layer 	interests[26] 	11969
scalar tree_4_3_u07_r6_network.node[26].core_layer 	data[26] 	8864
scalar tree_4_3_u07_r6_network.node[26].content_store 	p_hit[26] 	0.25942016876932
scalar tree_4_3_u07_r6_network.node[26].content_store 	hits[26] 	3105
scalar tree_4_3_u07_r6_network.node[26].content_store 	misses[26] 	8864
scalar tree_4_3_u07_r6_network.node[26].content_store 	decision_yes[26] 	262
scalar tree_4_3_u07_r6_network.node[26].content_store 	decision_no[26] 	8602
scalar tree_4_3_u07_r6_network.node[26].content_store 	decision_ratio[26] 	0.029557761732852
scalar tree_4_3_u07_r6_network.node[27].core_layer 	interests[27] 	12062
scalar tree_4_3_u07_r6_network.node[27].core_layer 	data[27] 	8882
scalar tree_4_3_u07_r6_network.node[27].content_store 	p_hit[27] 	0.26355496600895
scalar tree_4_3_u07_r6_network.node[27].content_store 	hits[27] 	3179
scalar tree_4_3_u07_r6_network.node[27].content_store 	misses[27] 	8883
scalar tree_4_3_u07_r6_network.node[27].content_store 	decision_yes[27] 	248
scalar tree_4_3_u07_r6_network.node[27].content_store 	decision_no[27] 	8634
scalar tree_4_3_u07_r6_network.node[27].content_store 	decision_ratio[27] 	0.027921639270435
scalar tree_4_3_u07_r6_network.node[28].core_layer 	interests[28] 	11901
scalar tree_4_3_u07_r6_network.node[28].core_layer 	data[28] 	8705
scalar tree_4_3_u07_r6_network.node[28].content_store 	p_hit[28] 	0.26863288799261
scalar tree_4_3_u07_r6_network.node[28].content_store 	hits[28] 	3197
scalar tree_4_3_u07_r6_network.node[28].content_store 	misses[28] 	8704
scalar tree_4_3_u07_r6_network.node[28].content_store 	decision_yes[28] 	277
scalar tree_4_3_u07_r6_network.node[28].content_store 	decision_no[28] 	8428
scalar tree_4_3_u07_r6_network.node[28].content_store 	decision_ratio[28] 	0.031820792647904
scalar tree_4_3_u07_r6_network.node[29].core_layer 	interests[29] 	12185
scalar tree_4_3_u07_r6_network.node[29].core_layer 	data[29] 	8990
scalar tree_4_3_u07_r6_network.node[29].content_store 	p_hit[29] 	0.26220763233484
scalar tree_4_3_u07_r6_network.node[29].content_store 	hits[29] 	3195
scalar tree_4_3_u07_r6_network.node[29].content_store 	misses[29] 	8990
scalar tree_4_3_u07_r6_network.node[29].content_store 	decision_yes[29] 	273
scalar tree_4_3_u07_r6_network.node[29].content_store 	decision_no[29] 	8717
scalar tree_4_3_u07_r6_network.node[29].content_store 	decision_ratio[29] 	0.030367074527253
scalar tree_4_3_u07_r6_network.node[30].core_layer 	interests[30] 	12107
scalar tree_4_3_u07_r6_network.node[30].core_layer 	data[30] 	8771
scalar tree_4_3_u07_r6_network.node[30].content_store 	p_hit[30] 	0.27546047740976
scalar tree_4_3_u07_r6_network.node[30].content_store 	hits[30] 	3335
scalar tree_4_3_u07_r6_network.node[30].content_store 	misses[30] 	8772
scalar tree_4_3_u07_r6_network.node[30].content_store 	decision_yes[30] 	241
scalar tree_4_3_u07_r6_network.node[30].content_store 	decision_no[30] 	8530
scalar tree_4_3_u07_r6_network.node[30].content_store 	decision_ratio[30] 	0.027476912552731
scalar tree_4_3_u07_r6_network.node[31].core_layer 	interests[31] 	11888
scalar tree_4_3_u07_r6_network.node[31].core_layer 	data[31] 	8754
scalar tree_4_3_u07_r6_network.node[31].content_store 	p_hit[31] 	0.26354306864065
scalar tree_4_3_u07_r6_network.node[31].content_store 	hits[31] 	3133
scalar tree_4_3_u07_r6_network.node[31].content_store 	misses[31] 	8755
scalar tree_4_3_u07_r6_network.node[31].content_store 	decision_yes[31] 	326
scalar tree_4_3_u07_r6_network.node[31].content_store 	decision_no[31] 	8428
scalar tree_4_3_u07_r6_network.node[31].content_store 	decision_ratio[31] 	0.037240118802833
scalar tree_4_3_u07_r6_network.node[32].core_layer 	interests[32] 	11986
scalar tree_4_3_u07_r6_network.node[32].core_layer 	data[32] 	8756
scalar tree_4_3_u07_r6_network.node[32].content_store 	p_hit[32] 	0.26948106123811
scalar tree_4_3_u07_r6_network.node[32].content_store 	hits[32] 	3230
scalar tree_4_3_u07_r6_network.node[32].content_store 	misses[32] 	8756
scalar tree_4_3_u07_r6_network.node[32].content_store 	decision_yes[32] 	341
scalar tree_4_3_u07_r6_network.node[32].content_store 	decision_no[32] 	8415
scalar tree_4_3_u07_r6_network.node[32].content_store 	decision_ratio[32] 	0.03894472361809
scalar tree_4_3_u07_r6_network.node[33].core_layer 	interests[33] 	11865
scalar tree_4_3_u07_r6_network.node[33].core_layer 	data[33] 	8671
scalar tree_4_3_u07_r6_network.node[33].content_store 	p_hit[33] 	0.26919511167299
scalar tree_4_3_u07_r6_network.node[33].content_store 	hits[33] 	3194
scalar tree_4_3_u07_r6_network.node[33].content_store 	misses[33] 	8671
scalar tree_4_3_u07_r6_network.node[33].content_store 	decision_yes[33] 	330
scalar tree_4_3_u07_r6_network.node[33].content_store 	decision_no[33] 	8341
scalar tree_4_3_u07_r6_network.node[33].content_store 	decision_ratio[33] 	0.038057894129858
scalar tree_4_3_u07_r6_network.node[34].core_layer 	interests[34] 	11988
scalar tree_4_3_u07_r6_network.node[34].core_layer 	data[34] 	8888
scalar tree_4_3_u07_r6_network.node[34].content_store 	p_hit[34] 	0.25867534200868
scalar tree_4_3_u07_r6_network.node[34].content_store 	hits[34] 	3101
scalar tree_4_3_u07_r6_network.node[34].content_store 	misses[34] 	8887
scalar tree_4_3_u07_r6_network.node[34].content_store 	decision_yes[34] 	274
scalar tree_4_3_u07_r6_network.node[34].content_store 	decision_no[34] 	8614
scalar tree_4_3_u07_r6_network.node[34].content_store 	decision_ratio[34] 	0.030828082808281
scalar tree_4_3_u07_r6_network.node[35].core_layer 	interests[35] 	12099
scalar tree_4_3_u07_r6_network.node[35].core_layer 	data[35] 	8876
scalar tree_4_3_u07_r6_network.node[35].content_store 	p_hit[35] 	0.26638565170675
scalar tree_4_3_u07_r6_network.node[35].content_store 	hits[35] 	3223
scalar tree_4_3_u07_r6_network.node[35].content_store 	misses[35] 	8876
scalar tree_4_3_u07_r6_network.node[35].content_store 	decision_yes[35] 	303
scalar tree_4_3_u07_r6_network.node[35].content_store 	decision_no[35] 	8573
scalar tree_4_3_u07_r6_network.node[35].content_store 	decision_ratio[35] 	0.03413699864804
scalar tree_4_3_u07_r6_network.node[36].core_layer 	interests[36] 	11917
scalar tree_4_3_u07_r6_network.node[36].core_layer 	data[36] 	8773
scalar tree_4_3_u07_r6_network.node[36].content_store 	p_hit[36] 	0.26382478811781
scalar tree_4_3_u07_r6_network.node[36].content_store 	hits[36] 	3144
scalar tree_4_3_u07_r6_network.node[36].content_store 	misses[36] 	8773
scalar tree_4_3_u07_r6_network.node[36].content_store 	decision_yes[36] 	262
scalar tree_4_3_u07_r6_network.node[36].content_store 	decision_no[36] 	8511
scalar tree_4_3_u07_r6_network.node[36].content_store 	decision_ratio[36] 	0.029864356548501
scalar tree_4_3_u07_r6_network.node[37].core_layer 	interests[37] 	12008
scalar tree_4_3_u07_r6_network.node[37].core_layer 	data[37] 	8808
scalar tree_4_3_u07_r6_network.node[37].content_store 	p_hit[37] 	0.26648900732845
scalar tree_4_3_u07_r6_network.node[37].content_store 	hits[37] 	3200
scalar tree_4_3_u07_r6_network.node[37].content_store 	misses[37] 	8808
scalar tree_4_3_u07_r6_network.node[37].content_store 	decision_yes[37] 	279
scalar tree_4_3_u07_r6_network.node[37].content_store 	decision_no[37] 	8529
scalar tree_4_3_u07_r6_network.node[37].content_store 	decision_ratio[37] 	0.031675749318801
scalar tree_4_3_u07_r6_network.node[38].core_layer 	interests[38] 	12101
scalar tree_4_3_u07_r6_network.node[38].core_layer 	data[38] 	8868
scalar tree_4_3_u07_r6_network.node[38].content_store 	p_hit[38] 	0.26716800264441
scalar tree_4_3_u07_r6_network.node[38].content_store 	hits[38] 	3233
scalar tree_4_3_u07_r6_network.node[38].content_store 	misses[38] 	8868
scalar tree_4_3_u07_r6_network.node[38].content_store 	decision_yes[38] 	268
scalar tree_4_3_u07_r6_network.node[38].content_store 	decision_no[38] 	8600
scalar tree_4_3_u07_r6_network.node[38].content_store 	decision_ratio[38] 	0.03022101939558
scalar tree_4_3_u07_r6_network.node[39].core_layer 	interests[39] 	12004
scalar tree_4_3_u07_r6_network.node[39].core_layer 	data[39] 	8842
scalar tree_4_3_u07_r6_network.node[39].content_store 	p_hit[39] 	0.26341219593469
scalar tree_4_3_u07_r6_network.node[39].content_store 	hits[39] 	3162
scalar tree_4_3_u07_r6_network.node[39].content_store 	misses[39] 	8842
scalar tree_4_3_u07_r6_network.node[39].content_store 	decision_yes[39] 	164
scalar tree_4_3_u07_r6_network.node[39].content_store 	decision_no[39] 	8678
scalar tree_4_3_u07_r6_network.node[39].content_store 	decision_ratio[39] 	0.018547839855236
scalar tree_4_3_u07_r6_network.client[13] 	hdistance[13] 	2.831355299195
scalar tree_4_3_u07_r6_network.client[13] 	downloads[13] 	12049
scalar tree_4_3_u07_r6_network.client[13] 	avg_time[13] 	0.004284667944
scalar tree_4_3_u07_r6_network.client[14] 	hdistance[14] 	2.806699975428
scalar tree_4_3_u07_r6_network.client[14] 	downloads[14] 	12209
scalar tree_4_3_u07_r6_network.client[14] 	avg_time[14] 	0.004248502118
scalar tree_4_3_u07_r6_network.client[15] 	hdistance[15] 	2.8259539389819
scalar tree_4_3_u07_r6_network.client[15] 	downloads[15] 	11767
scalar tree_4_3_u07_r6_network.client[15] 	avg_time[15] 	0.004277382975
scalar tree_4_3_u07_r6_network.client[16] 	hdistance[16] 	2.8395509790682
scalar tree_4_3_u07_r6_network.client[16] 	downloads[16] 	11848
scalar tree_4_3_u07_r6_network.client[16] 	avg_time[16] 	0.004295765519
scalar tree_4_3_u07_r6_network.client[17] 	hdistance[17] 	2.7981369042668
scalar tree_4_3_u07_r6_network.client[17] 	downloads[17] 	12023
scalar tree_4_3_u07_r6_network.client[17] 	avg_time[17] 	0.004237375394
scalar tree_4_3_u07_r6_network.client[18] 	hdistance[18] 	2.8224573780129
scalar tree_4_3_u07_r6_network.client[18] 	downloads[18] 	11907
scalar tree_4_3_u07_r6_network.client[18] 	avg_time[18] 	0.004275633184
scalar tree_4_3_u07_r6_network.client[19] 	hdistance[19] 	2.8387069618655
scalar tree_4_3_u07_r6_network.client[19] 	downloads[19] 	11879
scalar tree_4_3_u07_r6_network.client[19] 	avg_time[19] 	0.004291267351
scalar tree_4_3_u07_r6_network.client[20] 	hdistance[20] 	2.8310873022516
scalar tree_4_3_u07_r6_network.client[20] 	downloads[20] 	11947
scalar tree_4_3_u07_r6_network.client[20] 	avg_time[20] 	0.004285768625
scalar tree_4_3_u07_r6_network.client[21] 	hdistance[21] 	2.8182649920985
scalar tree_4_3_u07_r6_network.client[21] 	downloads[21] 	12023
scalar tree_4_3_u07_r6_network.client[21] 	avg_time[21] 	0.004270990099
scalar tree_4_3_u07_r6_network.client[22] 	hdistance[22] 	2.822753782436
scalar tree_4_3_u07_r6_network.client[22] 	downloads[22] 	11831
scalar tree_4_3_u07_r6_network.client[22] 	avg_time[22] 	0.004272821937
scalar tree_4_3_u07_r6_network.client[23] 	hdistance[23] 	2.8660343805572
scalar tree_4_3_u07_r6_network.client[23] 	downloads[23] 	11809
scalar tree_4_3_u07_r6_network.client[23] 	avg_time[23] 	0.004334318318
scalar tree_4_3_u07_r6_network.client[24] 	hdistance[24] 	2.8161495962601
scalar tree_4_3_u07_r6_network.client[24] 	downloads[24] 	11765
scalar tree_4_3_u07_r6_network.client[24] 	avg_time[24] 	0.004263552303
scalar tree_4_3_u07_r6_network.client[25] 	hdistance[25] 	2.8198716345753
scalar tree_4_3_u07_r6_network.client[25] 	downloads[25] 	11997
scalar tree_4_3_u07_r6_network.client[25] 	avg_time[25] 	0.004267897317
scalar tree_4_3_u07_r6_network.client[26] 	hdistance[26] 	2.8663213301028
scalar tree_4_3_u07_r6_network.client[26] 	downloads[26] 	11969
scalar tree_4_3_u07_r6_network.client[26] 	avg_time[26] 	0.004332522712
scalar tree_4_3_u07_r6_network.client[27] 	hdistance[27] 	2.8524997927203
scalar tree_4_3_u07_r6_network.client[27] 	downloads[27] 	12061
scalar tree_4_3_u07_r6_network.client[27] 	avg_time[27] 	0.004311369593
scalar tree_4_3_u07_r6_network.client[28] 	hdistance[28] 	2.8181818181818
scalar tree_4_3_u07_r6_network.client[28] 	downloads[28] 	11902
scalar tree_4_3_u07_r6_network.client[28] 	avg_time[28] 	0.004264910014
scalar tree_4_3_u07_r6_network.client[29] 	hdistance[29] 	2.8534263438654
scalar tree_4_3_u07_r6_network.client[29] 	downloads[29] 	12185
scalar tree_4_3_u07_r6_network.client[29] 	avg_time[29] 	0.004313004759
scalar tree_4_3_u07_r6_network.client[30] 	hdistance[30] 	2.8056335701305
scalar tree_4_3_u07_r6_network.client[30] 	downloads[30] 	12106
scalar tree_4_3_u07_r6_network.client[30] 	avg_time[30] 	0.0042413649
scalar tree_4_3_u07_r6_network.client[31] 	hdistance[31] 	2.8255236813326
scalar tree_4_3_u07_r6_network.client[31] 	downloads[31] 	11887
scalar tree_4_3_u07_r6_network.client[31] 	avg_time[31] 	0.004277513265
scalar tree_4_3_u07_r6_network.client[32] 	hdistance[32] 	2.7999332554647
scalar tree_4_3_u07_r6_network.client[32] 	downloads[32] 	11986
scalar tree_4_3_u07_r6_network.client[32] 	avg_time[32] 	0.004239943605
scalar tree_4_3_u07_r6_network.client[33] 	hdistance[33] 	2.8024441635061
scalar tree_4_3_u07_r6_network.client[33] 	downloads[33] 	11865
scalar tree_4_3_u07_r6_network.client[33] 	avg_time[33] 	0.004242896316
scalar tree_4_3_u07_r6_network.client[34] 	hdistance[34] 	2.8705480023355
scalar tree_4_3_u07_r6_network.client[34] 	downloads[34] 	11989
scalar tree_4_3_u07_r6_network.client[34] 	avg_time[34] 	0.004337647289
scalar tree_4_3_u07_r6_network.client[35] 	hdistance[35] 	2.8284155715348
scalar tree_4_3_u07_r6_network.client[35] 	downloads[35] 	12099
scalar tree_4_3_u07_r6_network.client[35] 	avg_time[35] 	0.004277375247
scalar tree_4_3_u07_r6_network.client[36] 	hdistance[36] 	2.8502978937652
scalar tree_4_3_u07_r6_network.client[36] 	downloads[36] 	11917
scalar tree_4_3_u07_r6_network.client[36] 	avg_time[36] 	0.004308296112
scalar tree_4_3_u07_r6_network.client[37] 	hdistance[37] 	2.82736508994
scalar tree_4_3_u07_r6_network.client[37] 	downloads[37] 	12008
scalar tree_4_3_u07_r6_network.client[37] 	avg_time[37] 	0.004277811774
scalar tree_4_3_u07_r6_network.client[38] 	hdistance[38] 	2.836459796711
scalar tree_4_3_u07_r6_network.client[38] 	downloads[38] 	12101
scalar tree_4_3_u07_r6_network.client[38] 	avg_time[38] 	0.004286915391
scalar tree_4_3_u07_r6_network.client[39] 	hdistance[39] 	2.8863712095968
scalar tree_4_3_u07_r6_network.client[39] 	downloads[39] 	12004
scalar tree_4_3_u07_r6_network.client[39] 	avg_time[39] 	0.004352879407
