version 2
run General-140-20160820-09:42:45-856
attr a 0.9
attr cd lcd
attr configname General
attr cr lru
attr datetime 20160820-09:42:45
attr experiment General
attr fsize 1
attr inifile hw5115/scenario_A/SPR-LCD.ini
attr iterationvars "$name=tree_4_3, $un=07, $rep=1, $cd=lcd, $cr=lru, $fsize=1, $a=0.9, $sl=spr, $ttl=1000, $variance=0.05"
attr iterationvars2 "$name=tree_4_3, $un=07, $rep=1, $cd=lcd, $cr=lru, $fsize=1, $a=0.9, $sl=spr, $ttl=1000, $variance=0.05, $repetition=0"
attr measurement "$name=tree_4_3, $un=07, $rep=1, $cd=lcd, $cr=lru, $fsize=1, $a=0.9, $sl=spr, $ttl=1000, $variance=0.05"
attr name tree_4_3
attr network networks.${name}_u${un}_r${rep}_network
attr processid 856
attr rep 1
attr repetition 0
attr replication #0
attr resultdir results
attr runnumber 140
attr seedset 1
attr sl spr
attr ttl 1000
attr un 07
attr variance 0.05

scalar . 	a 	0.9
scalar . 	fsize 	1
scalar . 	rep 	1
scalar . 	ttl 	1000
scalar . 	un 	07
scalar . 	variance 	0.05
scalar tree_4_3_u07_r1_network.content_distribution 	repo-0 	0
scalar tree_4_3_u07_r1_network.content_distribution 	client-0 	13
scalar tree_4_3_u07_r1_network.content_distribution 	client-1 	14
scalar tree_4_3_u07_r1_network.content_distribution 	client-2 	15
scalar tree_4_3_u07_r1_network.content_distribution 	client-3 	16
scalar tree_4_3_u07_r1_network.content_distribution 	client-4 	17
scalar tree_4_3_u07_r1_network.content_distribution 	client-5 	18
scalar tree_4_3_u07_r1_network.content_distribution 	client-6 	19
scalar tree_4_3_u07_r1_network.content_distribution 	client-7 	20
scalar tree_4_3_u07_r1_network.content_distribution 	client-8 	21
scalar tree_4_3_u07_r1_network.content_distribution 	client-9 	22
scalar tree_4_3_u07_r1_network.content_distribution 	client-10 	23
scalar tree_4_3_u07_r1_network.content_distribution 	client-11 	24
scalar tree_4_3_u07_r1_network.content_distribution 	client-12 	25
scalar tree_4_3_u07_r1_network.content_distribution 	client-13 	26
scalar tree_4_3_u07_r1_network.content_distribution 	client-14 	27
scalar tree_4_3_u07_r1_network.content_distribution 	client-15 	28
scalar tree_4_3_u07_r1_network.content_distribution 	client-16 	29
scalar tree_4_3_u07_r1_network.content_distribution 	client-17 	30
scalar tree_4_3_u07_r1_network.content_distribution 	client-18 	31
scalar tree_4_3_u07_r1_network.content_distribution 	client-19 	32
scalar tree_4_3_u07_r1_network.content_distribution 	client-20 	33
scalar tree_4_3_u07_r1_network.content_distribution 	client-21 	34
scalar tree_4_3_u07_r1_network.content_distribution 	client-22 	35
scalar tree_4_3_u07_r1_network.content_distribution 	client-23 	36
scalar tree_4_3_u07_r1_network.content_distribution 	client-24 	37
scalar tree_4_3_u07_r1_network.content_distribution 	client-25 	38
scalar tree_4_3_u07_r1_network.content_distribution 	client-26 	39
scalar tree_4_3_u07_r1_network.content_distribution 	repo-0_card 	100000
scalar tree_4_3_u07_r1_network.content_distribution 	repo-0_price 	0
scalar tree_4_3_u07_r1_network.statistics 	stabilization_time 	1278.1
scalar tree_4_3_u07_r1_network.statistics 	p_hit 	0.18744939830501
scalar tree_4_3_u07_r1_network.statistics 	interests 	25572.65
scalar tree_4_3_u07_r1_network.statistics 	data 	17442.925
scalar tree_4_3_u07_r1_network.statistics 	hdistance 	2.8384593815065
scalar tree_4_3_u07_r1_network.statistics 	avg_time 	0.004291272316
scalar tree_4_3_u07_r1_network.statistics 	downloads 	325185
scalar tree_4_3_u07_r1_network.statistics 	total_cost 	0
scalar tree_4_3_u07_r1_network.statistics 	total_replicas 	100000
scalar tree_4_3_u07_r1_network.statistics 	inner_hit 	0.30726509525347
scalar tree_4_3_u07_r1_network.node[0].core_layer 	interests[0] 	227483
scalar tree_4_3_u07_r1_network.node[0].core_layer 	repo_load[0] 	225267
scalar tree_4_3_u07_r1_network.node[0].core_layer 	data[0] 	0
scalar tree_4_3_u07_r1_network.node[0].core_layer 	repo_int[0] 	225267
scalar tree_4_3_u07_r1_network.node[0].content_store 	p_hit[0] 	0.0097413872684992
scalar tree_4_3_u07_r1_network.node[0].content_store 	hits[0] 	2216
scalar tree_4_3_u07_r1_network.node[0].content_store 	misses[0] 	225267
scalar tree_4_3_u07_r1_network.node[0].content_store 	decision_yes[0] 	225267
scalar tree_4_3_u07_r1_network.node[0].content_store 	decision_no[0] 	0
scalar tree_4_3_u07_r1_network.node[0].content_store 	decision_ratio[0] 	1
scalar tree_4_3_u07_r1_network.node[1].core_layer 	interests[1] 	110673
scalar tree_4_3_u07_r1_network.node[1].core_layer 	data[1] 	108637
scalar tree_4_3_u07_r1_network.node[1].content_store 	p_hit[1] 	0.018351359410154
scalar tree_4_3_u07_r1_network.node[1].content_store 	hits[1] 	2031
scalar tree_4_3_u07_r1_network.node[1].content_store 	misses[1] 	108642
scalar tree_4_3_u07_r1_network.node[1].content_store 	decision_yes[1] 	1054
scalar tree_4_3_u07_r1_network.node[1].content_store 	decision_no[1] 	107583
scalar tree_4_3_u07_r1_network.node[1].content_store 	decision_ratio[1] 	0.0097020352182037
scalar tree_4_3_u07_r1_network.node[2].core_layer 	interests[2] 	43230
scalar tree_4_3_u07_r1_network.node[2].core_layer 	data[2] 	42651
scalar tree_4_3_u07_r1_network.node[2].content_store 	p_hit[2] 	0.013393476752255
scalar tree_4_3_u07_r1_network.node[2].content_store 	hits[2] 	579
scalar tree_4_3_u07_r1_network.node[2].content_store 	misses[2] 	42651
scalar tree_4_3_u07_r1_network.node[2].content_store 	decision_yes[2] 	399
scalar tree_4_3_u07_r1_network.node[2].content_store 	decision_no[2] 	42252
scalar tree_4_3_u07_r1_network.node[2].content_store 	decision_ratio[2] 	0.0093549975381585
scalar tree_4_3_u07_r1_network.node[3].core_layer 	interests[3] 	77470
scalar tree_4_3_u07_r1_network.node[3].core_layer 	data[3] 	76195
scalar tree_4_3_u07_r1_network.node[3].content_store 	p_hit[3] 	0.016419259068026
scalar tree_4_3_u07_r1_network.node[3].content_store 	hits[3] 	1272
scalar tree_4_3_u07_r1_network.node[3].content_store 	misses[3] 	76198
scalar tree_4_3_u07_r1_network.node[3].content_store 	decision_yes[3] 	763
scalar tree_4_3_u07_r1_network.node[3].content_store 	decision_no[3] 	75432
scalar tree_4_3_u07_r1_network.node[3].content_store 	decision_ratio[3] 	0.010013780431787
scalar tree_4_3_u07_r1_network.node[4].core_layer 	interests[4] 	43959
scalar tree_4_3_u07_r1_network.node[4].core_layer 	data[4] 	42424
scalar tree_4_3_u07_r1_network.node[4].content_store 	p_hit[4] 	0.034850656293364
scalar tree_4_3_u07_r1_network.node[4].content_store 	hits[4] 	1532
scalar tree_4_3_u07_r1_network.node[4].content_store 	misses[4] 	42427
scalar tree_4_3_u07_r1_network.node[4].content_store 	decision_yes[4] 	676
scalar tree_4_3_u07_r1_network.node[4].content_store 	decision_no[4] 	41748
scalar tree_4_3_u07_r1_network.node[4].content_store 	decision_ratio[4] 	0.015934376767867
scalar tree_4_3_u07_r1_network.node[5].core_layer 	interests[5] 	26517
scalar tree_4_3_u07_r1_network.node[5].core_layer 	data[5] 	25643
scalar tree_4_3_u07_r1_network.node[5].content_store 	p_hit[5] 	0.032922276275597
scalar tree_4_3_u07_r1_network.node[5].content_store 	hits[5] 	873
scalar tree_4_3_u07_r1_network.node[5].content_store 	misses[5] 	25644
scalar tree_4_3_u07_r1_network.node[5].content_store 	decision_yes[5] 	512
scalar tree_4_3_u07_r1_network.node[5].content_store 	decision_no[5] 	25131
scalar tree_4_3_u07_r1_network.node[5].content_store 	decision_ratio[5] 	0.019966462582381
scalar tree_4_3_u07_r1_network.node[6].core_layer 	interests[6] 	8826
scalar tree_4_3_u07_r1_network.node[6].core_layer 	data[6] 	8581
scalar tree_4_3_u07_r1_network.node[6].content_store 	p_hit[6] 	0.027758894176297
scalar tree_4_3_u07_r1_network.node[6].content_store 	hits[6] 	245
scalar tree_4_3_u07_r1_network.node[6].content_store 	misses[6] 	8581
scalar tree_4_3_u07_r1_network.node[6].content_store 	decision_yes[6] 	242
scalar tree_4_3_u07_r1_network.node[6].content_store 	decision_no[6] 	8339
scalar tree_4_3_u07_r1_network.node[6].content_store 	decision_ratio[6] 	0.02820184127724
scalar tree_4_3_u07_r1_network.node[7].core_layer 	interests[7] 	35259
scalar tree_4_3_u07_r1_network.node[7].core_layer 	data[7] 	34024
scalar tree_4_3_u07_r1_network.node[7].content_store 	p_hit[7] 	0.035026518052129
scalar tree_4_3_u07_r1_network.node[7].content_store 	hits[7] 	1235
scalar tree_4_3_u07_r1_network.node[7].content_store 	misses[7] 	34024
scalar tree_4_3_u07_r1_network.node[7].content_store 	decision_yes[7] 	601
scalar tree_4_3_u07_r1_network.node[7].content_store 	decision_no[7] 	33423
scalar tree_4_3_u07_r1_network.node[7].content_store 	decision_ratio[7] 	0.017664001881025
scalar tree_4_3_u07_r1_network.node[8].core_layer 	interests[8] 	26760
scalar tree_4_3_u07_r1_network.node[8].core_layer 	data[8] 	26077
scalar tree_4_3_u07_r1_network.node[8].content_store 	p_hit[8] 	0.025523168908819
scalar tree_4_3_u07_r1_network.node[8].content_store 	hits[8] 	683
scalar tree_4_3_u07_r1_network.node[8].content_store 	misses[8] 	26077
scalar tree_4_3_u07_r1_network.node[8].content_store 	decision_yes[8] 	317
scalar tree_4_3_u07_r1_network.node[8].content_store 	decision_no[8] 	25760
scalar tree_4_3_u07_r1_network.node[8].content_store 	decision_ratio[8] 	0.01215630632358
scalar tree_4_3_u07_r1_network.node[9].core_layer 	interests[9] 	17603
scalar tree_4_3_u07_r1_network.node[9].core_layer 	data[9] 	17153
scalar tree_4_3_u07_r1_network.node[9].content_store 	p_hit[9] 	0.025563824348122
scalar tree_4_3_u07_r1_network.node[9].content_store 	hits[9] 	450
scalar tree_4_3_u07_r1_network.node[9].content_store 	misses[9] 	17153
scalar tree_4_3_u07_r1_network.node[9].content_store 	decision_yes[9] 	262
scalar tree_4_3_u07_r1_network.node[9].content_store 	decision_no[9] 	16891
scalar tree_4_3_u07_r1_network.node[9].content_store 	decision_ratio[9] 	0.015274296041509
scalar tree_4_3_u07_r1_network.node[10].core_layer 	interests[10] 	44260
scalar tree_4_3_u07_r1_network.node[10].core_layer 	data[10] 	42857
scalar tree_4_3_u07_r1_network.node[10].content_store 	p_hit[10] 	0.031676457297786
scalar tree_4_3_u07_r1_network.node[10].content_store 	hits[10] 	1402
scalar tree_4_3_u07_r1_network.node[10].content_store 	misses[10] 	42858
scalar tree_4_3_u07_r1_network.node[10].content_store 	decision_yes[10] 	548
scalar tree_4_3_u07_r1_network.node[10].content_store 	decision_no[10] 	42309
scalar tree_4_3_u07_r1_network.node[10].content_store 	decision_ratio[10] 	0.012786709289031
scalar tree_4_3_u07_r1_network.node[11].core_layer 	interests[11] 	18007
scalar tree_4_3_u07_r1_network.node[11].core_layer 	data[11] 	17469
scalar tree_4_3_u07_r1_network.node[11].content_store 	p_hit[11] 	0.029877269950575
scalar tree_4_3_u07_r1_network.node[11].content_store 	hits[11] 	538
scalar tree_4_3_u07_r1_network.node[11].content_store 	misses[11] 	17469
scalar tree_4_3_u07_r1_network.node[11].content_store 	decision_yes[11] 	368
scalar tree_4_3_u07_r1_network.node[11].content_store 	decision_no[11] 	17101
scalar tree_4_3_u07_r1_network.node[11].content_store 	decision_ratio[11] 	0.021065888144713
scalar tree_4_3_u07_r1_network.node[12].core_layer 	interests[12] 	17672
scalar tree_4_3_u07_r1_network.node[12].core_layer 	data[12] 	17143
scalar tree_4_3_u07_r1_network.node[12].content_store 	p_hit[12] 	0.02993435943866
scalar tree_4_3_u07_r1_network.node[12].content_store 	hits[12] 	529
scalar tree_4_3_u07_r1_network.node[12].content_store 	misses[12] 	17143
scalar tree_4_3_u07_r1_network.node[12].content_store 	decision_yes[12] 	356
scalar tree_4_3_u07_r1_network.node[12].content_store 	decision_no[12] 	16787
scalar tree_4_3_u07_r1_network.node[12].content_store 	decision_ratio[12] 	0.020766493612553
scalar tree_4_3_u07_r1_network.node[13].core_layer 	interests[13] 	12040
scalar tree_4_3_u07_r1_network.node[13].core_layer 	data[13] 	8814
scalar tree_4_3_u07_r1_network.node[13].content_store 	p_hit[13] 	0.26794019933555
scalar tree_4_3_u07_r1_network.node[13].content_store 	hits[13] 	3226
scalar tree_4_3_u07_r1_network.node[13].content_store 	misses[13] 	8814
scalar tree_4_3_u07_r1_network.node[13].content_store 	decision_yes[13] 	313
scalar tree_4_3_u07_r1_network.node[13].content_store 	decision_no[13] 	8501
scalar tree_4_3_u07_r1_network.node[13].content_store 	decision_ratio[13] 	0.035511685954164
scalar tree_4_3_u07_r1_network.node[14].core_layer 	interests[14] 	12044
scalar tree_4_3_u07_r1_network.node[14].core_layer 	data[14] 	8860
scalar tree_4_3_u07_r1_network.node[14].content_store 	p_hit[14] 	0.26436399867154
scalar tree_4_3_u07_r1_network.node[14].content_store 	hits[14] 	3184
scalar tree_4_3_u07_r1_network.node[14].content_store 	misses[14] 	8860
scalar tree_4_3_u07_r1_network.node[14].content_store 	decision_yes[14] 	326
scalar tree_4_3_u07_r1_network.node[14].content_store 	decision_no[14] 	8534
scalar tree_4_3_u07_r1_network.node[14].content_store 	decision_ratio[14] 	0.036794582392777
scalar tree_4_3_u07_r1_network.node[15].core_layer 	interests[15] 	12125
scalar tree_4_3_u07_r1_network.node[15].core_layer 	data[15] 	8855
scalar tree_4_3_u07_r1_network.node[15].content_store 	p_hit[15] 	0.26969072164948
scalar tree_4_3_u07_r1_network.node[15].content_store 	hits[15] 	3270
scalar tree_4_3_u07_r1_network.node[15].content_store 	misses[15] 	8855
scalar tree_4_3_u07_r1_network.node[15].content_store 	decision_yes[15] 	310
scalar tree_4_3_u07_r1_network.node[15].content_store 	decision_no[15] 	8545
scalar tree_4_3_u07_r1_network.node[15].content_store 	decision_ratio[15] 	0.035008469791078
scalar tree_4_3_u07_r1_network.node[16].core_layer 	interests[16] 	11915
scalar tree_4_3_u07_r1_network.node[16].core_layer 	data[16] 	8657
scalar tree_4_3_u07_r1_network.node[16].content_store 	p_hit[16] 	0.27343684431389
scalar tree_4_3_u07_r1_network.node[16].content_store 	hits[16] 	3258
scalar tree_4_3_u07_r1_network.node[16].content_store 	misses[16] 	8657
scalar tree_4_3_u07_r1_network.node[16].content_store 	decision_yes[16] 	285
scalar tree_4_3_u07_r1_network.node[16].content_store 	decision_no[16] 	8372
scalar tree_4_3_u07_r1_network.node[16].content_store 	decision_ratio[16] 	0.032921335335567
scalar tree_4_3_u07_r1_network.node[17].core_layer 	interests[17] 	11927
scalar tree_4_3_u07_r1_network.node[17].core_layer 	data[17] 	8873
scalar tree_4_3_u07_r1_network.node[17].content_store 	p_hit[17] 	0.25605768424583
scalar tree_4_3_u07_r1_network.node[17].content_store 	hits[17] 	3054
scalar tree_4_3_u07_r1_network.node[17].content_store 	misses[17] 	8873
scalar tree_4_3_u07_r1_network.node[17].content_store 	decision_yes[17] 	279
scalar tree_4_3_u07_r1_network.node[17].content_store 	decision_no[17] 	8594
scalar tree_4_3_u07_r1_network.node[17].content_store 	decision_ratio[17] 	0.031443705623803
scalar tree_4_3_u07_r1_network.node[18].core_layer 	interests[18] 	11912
scalar tree_4_3_u07_r1_network.node[18].core_layer 	data[18] 	8868
scalar tree_4_3_u07_r1_network.node[18].content_store 	p_hit[18] 	0.25545668233714
scalar tree_4_3_u07_r1_network.node[18].content_store 	hits[18] 	3043
scalar tree_4_3_u07_r1_network.node[18].content_store 	misses[18] 	8869
scalar tree_4_3_u07_r1_network.node[18].content_store 	decision_yes[18] 	311
scalar tree_4_3_u07_r1_network.node[18].content_store 	decision_no[18] 	8557
scalar tree_4_3_u07_r1_network.node[18].content_store 	decision_ratio[18] 	0.035069914298602
scalar tree_4_3_u07_r1_network.node[19].core_layer 	interests[19] 	11976
scalar tree_4_3_u07_r1_network.node[19].core_layer 	data[19] 	8773
scalar tree_4_3_u07_r1_network.node[19].content_store 	p_hit[19] 	0.26745156980628
scalar tree_4_3_u07_r1_network.node[19].content_store 	hits[19] 	3203
scalar tree_4_3_u07_r1_network.node[19].content_store 	misses[19] 	8773
scalar tree_4_3_u07_r1_network.node[19].content_store 	decision_yes[19] 	298
scalar tree_4_3_u07_r1_network.node[19].content_store 	decision_no[19] 	8475
scalar tree_4_3_u07_r1_network.node[19].content_store 	decision_ratio[19] 	0.033967855921578
scalar tree_4_3_u07_r1_network.node[20].core_layer 	interests[20] 	11997
scalar tree_4_3_u07_r1_network.node[20].core_layer 	data[20] 	8775
scalar tree_4_3_u07_r1_network.node[20].content_store 	p_hit[20] 	0.26856714178545
scalar tree_4_3_u07_r1_network.node[20].content_store 	hits[20] 	3222
scalar tree_4_3_u07_r1_network.node[20].content_store 	misses[20] 	8775
scalar tree_4_3_u07_r1_network.node[20].content_store 	decision_yes[20] 	283
scalar tree_4_3_u07_r1_network.node[20].content_store 	decision_no[20] 	8492
scalar tree_4_3_u07_r1_network.node[20].content_store 	decision_ratio[20] 	0.032250712250712
scalar tree_4_3_u07_r1_network.node[21].core_layer 	interests[21] 	12078
scalar tree_4_3_u07_r1_network.node[21].core_layer 	data[21] 	8826
scalar tree_4_3_u07_r1_network.node[21].content_store 	p_hit[21] 	0.26924987580725
scalar tree_4_3_u07_r1_network.node[21].content_store 	hits[21] 	3252
scalar tree_4_3_u07_r1_network.node[21].content_store 	misses[21] 	8826
scalar tree_4_3_u07_r1_network.node[21].content_store 	decision_yes[21] 	245
scalar tree_4_3_u07_r1_network.node[21].content_store 	decision_no[21] 	8581
scalar tree_4_3_u07_r1_network.node[21].content_store 	decision_ratio[21] 	0.027758894176297
scalar tree_4_3_u07_r1_network.node[22].core_layer 	interests[22] 	11971
scalar tree_4_3_u07_r1_network.node[22].core_layer 	data[22] 	8775
scalar tree_4_3_u07_r1_network.node[22].content_store 	p_hit[22] 	0.26697853145101
scalar tree_4_3_u07_r1_network.node[22].content_store 	hits[22] 	3196
scalar tree_4_3_u07_r1_network.node[22].content_store 	misses[22] 	8775
scalar tree_4_3_u07_r1_network.node[22].content_store 	decision_yes[22] 	306
scalar tree_4_3_u07_r1_network.node[22].content_store 	decision_no[22] 	8469
scalar tree_4_3_u07_r1_network.node[22].content_store 	decision_ratio[22] 	0.034871794871795
scalar tree_4_3_u07_r1_network.node[23].core_layer 	interests[23] 	12211
scalar tree_4_3_u07_r1_network.node[23].core_layer 	data[23] 	8908
scalar tree_4_3_u07_r1_network.node[23].content_store 	p_hit[23] 	0.27041192367537
scalar tree_4_3_u07_r1_network.node[23].content_store 	hits[23] 	3302
scalar tree_4_3_u07_r1_network.node[23].content_store 	misses[23] 	8909
scalar tree_4_3_u07_r1_network.node[23].content_store 	decision_yes[23] 	320
scalar tree_4_3_u07_r1_network.node[23].content_store 	decision_no[23] 	8588
scalar tree_4_3_u07_r1_network.node[23].content_store 	decision_ratio[23] 	0.035922766052986
scalar tree_4_3_u07_r1_network.node[24].core_layer 	interests[24] 	11984
scalar tree_4_3_u07_r1_network.node[24].core_layer 	data[24] 	8793
scalar tree_4_3_u07_r1_network.node[24].content_store 	p_hit[24] 	0.26627169559413
scalar tree_4_3_u07_r1_network.node[24].content_store 	hits[24] 	3191
scalar tree_4_3_u07_r1_network.node[24].content_store 	misses[24] 	8793
scalar tree_4_3_u07_r1_network.node[24].content_store 	decision_yes[24] 	310
scalar tree_4_3_u07_r1_network.node[24].content_store 	decision_no[24] 	8483
scalar tree_4_3_u07_r1_network.node[24].content_store 	decision_ratio[24] 	0.035255316729216
scalar tree_4_3_u07_r1_network.node[25].core_layer 	interests[25] 	11992
scalar tree_4_3_u07_r1_network.node[25].core_layer 	data[25] 	8783
scalar tree_4_3_u07_r1_network.node[25].content_store 	p_hit[25] 	0.26759506337558
scalar tree_4_3_u07_r1_network.node[25].content_store 	hits[25] 	3209
scalar tree_4_3_u07_r1_network.node[25].content_store 	misses[25] 	8783
scalar tree_4_3_u07_r1_network.node[25].content_store 	decision_yes[25] 	299
scalar tree_4_3_u07_r1_network.node[25].content_store 	decision_no[25] 	8484
scalar tree_4_3_u07_r1_network.node[25].content_store 	decision_ratio[25] 	0.03404303768644
scalar tree_4_3_u07_r1_network.node[26].core_layer 	interests[26] 	12153
scalar tree_4_3_u07_r1_network.node[26].core_layer 	data[26] 	9000
scalar tree_4_3_u07_r1_network.node[26].content_store 	p_hit[26] 	0.2594421130585
scalar tree_4_3_u07_r1_network.node[26].content_store 	hits[26] 	3153
scalar tree_4_3_u07_r1_network.node[26].content_store 	misses[26] 	9000
scalar tree_4_3_u07_r1_network.node[26].content_store 	decision_yes[26] 	240
scalar tree_4_3_u07_r1_network.node[26].content_store 	decision_no[26] 	8760
scalar tree_4_3_u07_r1_network.node[26].content_store 	decision_ratio[26] 	0.026666666666667
scalar tree_4_3_u07_r1_network.node[27].core_layer 	interests[27] 	12045
scalar tree_4_3_u07_r1_network.node[27].core_layer 	data[27] 	8964
scalar tree_4_3_u07_r1_network.node[27].content_store 	p_hit[27] 	0.25587380655874
scalar tree_4_3_u07_r1_network.node[27].content_store 	hits[27] 	3082
scalar tree_4_3_u07_r1_network.node[27].content_store 	misses[27] 	8963
scalar tree_4_3_u07_r1_network.node[27].content_store 	decision_yes[27] 	218
scalar tree_4_3_u07_r1_network.node[27].content_store 	decision_no[27] 	8746
scalar tree_4_3_u07_r1_network.node[27].content_store 	decision_ratio[27] 	0.024319500223115
scalar tree_4_3_u07_r1_network.node[28].core_layer 	interests[28] 	11932
scalar tree_4_3_u07_r1_network.node[28].core_layer 	data[28] 	8761
scalar tree_4_3_u07_r1_network.node[28].content_store 	p_hit[28] 	0.26575595038552
scalar tree_4_3_u07_r1_network.node[28].content_store 	hits[28] 	3171
scalar tree_4_3_u07_r1_network.node[28].content_store 	misses[28] 	8761
scalar tree_4_3_u07_r1_network.node[28].content_store 	decision_yes[28] 	231
scalar tree_4_3_u07_r1_network.node[28].content_store 	decision_no[28] 	8530
scalar tree_4_3_u07_r1_network.node[28].content_store 	decision_ratio[28] 	0.026366853098961
scalar tree_4_3_u07_r1_network.node[29].core_layer 	interests[29] 	11992
scalar tree_4_3_u07_r1_network.node[29].core_layer 	data[29] 	8797
scalar tree_4_3_u07_r1_network.node[29].content_store 	p_hit[29] 	0.26642761841227
scalar tree_4_3_u07_r1_network.node[29].content_store 	hits[29] 	3195
scalar tree_4_3_u07_r1_network.node[29].content_store 	misses[29] 	8797
scalar tree_4_3_u07_r1_network.node[29].content_store 	decision_yes[29] 	225
scalar tree_4_3_u07_r1_network.node[29].content_store 	decision_no[29] 	8572
scalar tree_4_3_u07_r1_network.node[29].content_store 	decision_ratio[29] 	0.025576901216324
scalar tree_4_3_u07_r1_network.node[30].core_layer 	interests[30] 	12167
scalar tree_4_3_u07_r1_network.node[30].core_layer 	data[30] 	8842
scalar tree_4_3_u07_r1_network.node[30].content_store 	p_hit[30] 	0.27319799457549
scalar tree_4_3_u07_r1_network.node[30].content_store 	hits[30] 	3324
scalar tree_4_3_u07_r1_network.node[30].content_store 	misses[30] 	8843
scalar tree_4_3_u07_r1_network.node[30].content_store 	decision_yes[30] 	219
scalar tree_4_3_u07_r1_network.node[30].content_store 	decision_no[30] 	8623
scalar tree_4_3_u07_r1_network.node[30].content_store 	decision_ratio[30] 	0.02476815200181
scalar tree_4_3_u07_r1_network.node[31].core_layer 	interests[31] 	11985
scalar tree_4_3_u07_r1_network.node[31].core_layer 	data[31] 	8842
scalar tree_4_3_u07_r1_network.node[31].content_store 	p_hit[31] 	0.26216103462662
scalar tree_4_3_u07_r1_network.node[31].content_store 	hits[31] 	3142
scalar tree_4_3_u07_r1_network.node[31].content_store 	misses[31] 	8843
scalar tree_4_3_u07_r1_network.node[31].content_store 	decision_yes[31] 	280
scalar tree_4_3_u07_r1_network.node[31].content_store 	decision_no[31] 	8562
scalar tree_4_3_u07_r1_network.node[31].content_store 	decision_ratio[31] 	0.031667043655282
scalar tree_4_3_u07_r1_network.node[32].core_layer 	interests[32] 	12116
scalar tree_4_3_u07_r1_network.node[32].core_layer 	data[32] 	8794
scalar tree_4_3_u07_r1_network.node[32].content_store 	p_hit[32] 	0.27418289864642
scalar tree_4_3_u07_r1_network.node[32].content_store 	hits[32] 	3322
scalar tree_4_3_u07_r1_network.node[32].content_store 	misses[32] 	8794
scalar tree_4_3_u07_r1_network.node[32].content_store 	decision_yes[32] 	277
scalar tree_4_3_u07_r1_network.node[32].content_store 	decision_no[32] 	8517
scalar tree_4_3_u07_r1_network.node[32].content_store 	decision_ratio[32] 	0.031498749147146
scalar tree_4_3_u07_r1_network.node[33].core_layer 	interests[33] 	12055
scalar tree_4_3_u07_r1_network.node[33].core_layer 	data[33] 	8911
scalar tree_4_3_u07_r1_network.node[33].content_store 	p_hit[33] 	0.26088759850684
scalar tree_4_3_u07_r1_network.node[33].content_store 	hits[33] 	3145
scalar tree_4_3_u07_r1_network.node[33].content_store 	misses[33] 	8910
scalar tree_4_3_u07_r1_network.node[33].content_store 	decision_yes[33] 	266
scalar tree_4_3_u07_r1_network.node[33].content_store 	decision_no[33] 	8645
scalar tree_4_3_u07_r1_network.node[33].content_store 	decision_ratio[33] 	0.029850746268657
scalar tree_4_3_u07_r1_network.node[34].core_layer 	interests[34] 	12002
scalar tree_4_3_u07_r1_network.node[34].core_layer 	data[34] 	8908
scalar tree_4_3_u07_r1_network.node[34].content_store 	p_hit[34] 	0.25779036827195
scalar tree_4_3_u07_r1_network.node[34].content_store 	hits[34] 	3094
scalar tree_4_3_u07_r1_network.node[34].content_store 	misses[34] 	8908
scalar tree_4_3_u07_r1_network.node[34].content_store 	decision_yes[34] 	296
scalar tree_4_3_u07_r1_network.node[34].content_store 	decision_no[34] 	8612
scalar tree_4_3_u07_r1_network.node[34].content_store 	decision_ratio[34] 	0.033228558599012
scalar tree_4_3_u07_r1_network.node[35].core_layer 	interests[35] 	12275
scalar tree_4_3_u07_r1_network.node[35].core_layer 	data[35] 	9020
scalar tree_4_3_u07_r1_network.node[35].content_store 	p_hit[35] 	0.26517311608961
scalar tree_4_3_u07_r1_network.node[35].content_store 	hits[35] 	3255
scalar tree_4_3_u07_r1_network.node[35].content_store 	misses[35] 	9020
scalar tree_4_3_u07_r1_network.node[35].content_store 	decision_yes[35] 	265
scalar tree_4_3_u07_r1_network.node[35].content_store 	decision_no[35] 	8755
scalar tree_4_3_u07_r1_network.node[35].content_store 	decision_ratio[35] 	0.029379157427938
scalar tree_4_3_u07_r1_network.node[36].core_layer 	interests[36] 	12217
scalar tree_4_3_u07_r1_network.node[36].core_layer 	data[36] 	8987
scalar tree_4_3_u07_r1_network.node[36].content_store 	p_hit[36] 	0.26438569206843
scalar tree_4_3_u07_r1_network.node[36].content_store 	hits[36] 	3230
scalar tree_4_3_u07_r1_network.node[36].content_store 	misses[36] 	8987
scalar tree_4_3_u07_r1_network.node[36].content_store 	decision_yes[36] 	273
scalar tree_4_3_u07_r1_network.node[36].content_store 	decision_no[36] 	8714
scalar tree_4_3_u07_r1_network.node[36].content_store 	decision_ratio[36] 	0.030377211527762
scalar tree_4_3_u07_r1_network.node[37].core_layer 	interests[37] 	11935
scalar tree_4_3_u07_r1_network.node[37].core_layer 	data[37] 	8805
scalar tree_4_3_u07_r1_network.node[37].content_store 	p_hit[37] 	0.2622538751571
scalar tree_4_3_u07_r1_network.node[37].content_store 	hits[37] 	3130
scalar tree_4_3_u07_r1_network.node[37].content_store 	misses[37] 	8805
scalar tree_4_3_u07_r1_network.node[37].content_store 	decision_yes[37] 	283
scalar tree_4_3_u07_r1_network.node[37].content_store 	decision_no[37] 	8522
scalar tree_4_3_u07_r1_network.node[37].content_store 	decision_ratio[37] 	0.03214082907439
scalar tree_4_3_u07_r1_network.node[38].core_layer 	interests[38] 	12091
scalar tree_4_3_u07_r1_network.node[38].core_layer 	data[38] 	8845
scalar tree_4_3_u07_r1_network.node[38].content_store 	p_hit[38] 	0.26846414688611
scalar tree_4_3_u07_r1_network.node[38].content_store 	hits[38] 	3246
scalar tree_4_3_u07_r1_network.node[38].content_store 	misses[38] 	8845
scalar tree_4_3_u07_r1_network.node[38].content_store 	decision_yes[38] 	256
scalar tree_4_3_u07_r1_network.node[38].content_store 	decision_no[38] 	8589
scalar tree_4_3_u07_r1_network.node[38].content_store 	decision_ratio[38] 	0.028942905596382
scalar tree_4_3_u07_r1_network.node[39].core_layer 	interests[39] 	12050
scalar tree_4_3_u07_r1_network.node[39].core_layer 	data[39] 	8827
scalar tree_4_3_u07_r1_network.node[39].content_store 	p_hit[39] 	0.26746887966805
scalar tree_4_3_u07_r1_network.node[39].content_store 	hits[39] 	3223
scalar tree_4_3_u07_r1_network.node[39].content_store 	misses[39] 	8827
scalar tree_4_3_u07_r1_network.node[39].content_store 	decision_yes[39] 	273
scalar tree_4_3_u07_r1_network.node[39].content_store 	decision_no[39] 	8554
scalar tree_4_3_u07_r1_network.node[39].content_store 	decision_ratio[39] 	0.030927835051546
scalar tree_4_3_u07_r1_network.client[13] 	hdistance[13] 	2.8220930232558
scalar tree_4_3_u07_r1_network.client[13] 	downloads[13] 	12040
scalar tree_4_3_u07_r1_network.client[13] 	avg_time[13] 	0.004267604975
scalar tree_4_3_u07_r1_network.client[14] 	hdistance[14] 	2.8300398538691
scalar tree_4_3_u07_r1_network.client[14] 	downloads[14] 	12044
scalar tree_4_3_u07_r1_network.client[14] 	avg_time[14] 	0.004282210589
scalar tree_4_3_u07_r1_network.client[15] 	hdistance[15] 	2.8139381443299
scalar tree_4_3_u07_r1_network.client[15] 	downloads[15] 	12125
scalar tree_4_3_u07_r1_network.client[15] 	avg_time[15] 	0.00425583596
scalar tree_4_3_u07_r1_network.client[16] 	hdistance[16] 	2.8031053294167
scalar tree_4_3_u07_r1_network.client[16] 	downloads[16] 	11915
scalar tree_4_3_u07_r1_network.client[16] 	avg_time[16] 	0.004238690737
scalar tree_4_3_u07_r1_network.client[17] 	hdistance[17] 	2.8693720130796
scalar tree_4_3_u07_r1_network.client[17] 	downloads[17] 	11927
scalar tree_4_3_u07_r1_network.client[17] 	avg_time[17] 	0.004340233436
scalar tree_4_3_u07_r1_network.client[18] 	hdistance[18] 	2.8648308286458
scalar tree_4_3_u07_r1_network.client[18] 	downloads[18] 	11911
scalar tree_4_3_u07_r1_network.client[18] 	avg_time[18] 	0.00433408105
scalar tree_4_3_u07_r1_network.client[19] 	hdistance[19] 	2.8284068136273
scalar tree_4_3_u07_r1_network.client[19] 	downloads[19] 	11976
scalar tree_4_3_u07_r1_network.client[19] 	avg_time[19] 	0.00427521411
scalar tree_4_3_u07_r1_network.client[20] 	hdistance[20] 	2.8193715095441
scalar tree_4_3_u07_r1_network.client[20] 	downloads[20] 	11997
scalar tree_4_3_u07_r1_network.client[20] 	avg_time[20] 	0.004266739595
scalar tree_4_3_u07_r1_network.client[21] 	hdistance[21] 	2.8171054810399
scalar tree_4_3_u07_r1_network.client[21] 	downloads[21] 	12078
scalar tree_4_3_u07_r1_network.client[21] 	avg_time[21] 	0.004263285614
scalar tree_4_3_u07_r1_network.client[22] 	hdistance[22] 	2.8254114109097
scalar tree_4_3_u07_r1_network.client[22] 	downloads[22] 	11971
scalar tree_4_3_u07_r1_network.client[22] 	avg_time[22] 	0.004271152315
scalar tree_4_3_u07_r1_network.client[23] 	hdistance[23] 	2.8074529074529
scalar tree_4_3_u07_r1_network.client[23] 	downloads[23] 	12210
scalar tree_4_3_u07_r1_network.client[23] 	avg_time[23] 	0.004247021845
scalar tree_4_3_u07_r1_network.client[24] 	hdistance[24] 	2.8275200267023
scalar tree_4_3_u07_r1_network.client[24] 	downloads[24] 	11984
scalar tree_4_3_u07_r1_network.client[24] 	avg_time[24] 	0.004275197268
scalar tree_4_3_u07_r1_network.client[25] 	hdistance[25] 	2.8212975316878
scalar tree_4_3_u07_r1_network.client[25] 	downloads[25] 	11992
scalar tree_4_3_u07_r1_network.client[25] 	avg_time[25] 	0.004268509354
scalar tree_4_3_u07_r1_network.client[26] 	hdistance[26] 	2.8803587591541
scalar tree_4_3_u07_r1_network.client[26] 	downloads[26] 	12153
scalar tree_4_3_u07_r1_network.client[26] 	avg_time[26] 	0.004348388281
scalar tree_4_3_u07_r1_network.client[27] 	hdistance[27] 	2.8972272953678
scalar tree_4_3_u07_r1_network.client[27] 	downloads[27] 	12046
scalar tree_4_3_u07_r1_network.client[27] 	avg_time[27] 	0.004374395149
scalar tree_4_3_u07_r1_network.client[28] 	hdistance[28] 	2.8542574589339
scalar tree_4_3_u07_r1_network.client[28] 	downloads[28] 	11932
scalar tree_4_3_u07_r1_network.client[28] 	avg_time[28] 	0.004309584701
scalar tree_4_3_u07_r1_network.client[29] 	hdistance[29] 	2.8532354903269
scalar tree_4_3_u07_r1_network.client[29] 	downloads[29] 	11992
scalar tree_4_3_u07_r1_network.client[29] 	avg_time[29] 	0.004307638523
scalar tree_4_3_u07_r1_network.client[30] 	hdistance[30] 	2.821140884432
scalar tree_4_3_u07_r1_network.client[30] 	downloads[30] 	12166
scalar tree_4_3_u07_r1_network.client[30] 	avg_time[30] 	0.004263424733
scalar tree_4_3_u07_r1_network.client[31] 	hdistance[31] 	2.8580607476636
scalar tree_4_3_u07_r1_network.client[31] 	downloads[31] 	11984
scalar tree_4_3_u07_r1_network.client[31] 	avg_time[31] 	0.004318421552
scalar tree_4_3_u07_r1_network.client[32] 	hdistance[32] 	2.8065368108287
scalar tree_4_3_u07_r1_network.client[32] 	downloads[32] 	12116
scalar tree_4_3_u07_r1_network.client[32] 	avg_time[32] 	0.004243311574
scalar tree_4_3_u07_r1_network.client[33] 	hdistance[33] 	2.8657929661579
scalar tree_4_3_u07_r1_network.client[33] 	downloads[33] 	12056
scalar tree_4_3_u07_r1_network.client[33] 	avg_time[33] 	0.004328961822
scalar tree_4_3_u07_r1_network.client[34] 	hdistance[34] 	2.8688551908015
scalar tree_4_3_u07_r1_network.client[34] 	downloads[34] 	12002
scalar tree_4_3_u07_r1_network.client[34] 	avg_time[34] 	0.004335220496
scalar tree_4_3_u07_r1_network.client[35] 	hdistance[35] 	2.8358452138493
scalar tree_4_3_u07_r1_network.client[35] 	downloads[35] 	12275
scalar tree_4_3_u07_r1_network.client[35] 	avg_time[35] 	0.004290017288
scalar tree_4_3_u07_r1_network.client[36] 	hdistance[36] 	2.8400589342719
scalar tree_4_3_u07_r1_network.client[36] 	downloads[36] 	12217
scalar tree_4_3_u07_r1_network.client[36] 	avg_time[36] 	0.004296757776
scalar tree_4_3_u07_r1_network.client[37] 	hdistance[37] 	2.8543778801843
scalar tree_4_3_u07_r1_network.client[37] 	downloads[37] 	11935
scalar tree_4_3_u07_r1_network.client[37] 	avg_time[37] 	0.004312355634
scalar tree_4_3_u07_r1_network.client[38] 	hdistance[38] 	2.8252419154743
scalar tree_4_3_u07_r1_network.client[38] 	downloads[38] 	12091
scalar tree_4_3_u07_r1_network.client[38] 	avg_time[38] 	0.00427425057
scalar tree_4_3_u07_r1_network.client[39] 	hdistance[39] 	2.827468879668
scalar tree_4_3_u07_r1_network.client[39] 	downloads[39] 	12050
scalar tree_4_3_u07_r1_network.client[39] 	avg_time[39] 	0.004275847589
