version 2
run General-171-20160818-23:18:56-32642
attr a 0.9
attr cd lce
attr configname General
attr cr lru
attr datetime 20160818-23:18:56
attr experiment General
attr fsize 1
attr inifile hw5115/scenario_A/Edge.ini
attr iterationvars "$name=tree_4_3, $un=08, $rep=12, $scenario=Edge, $cd=lce, $cr=lru, $fsize=1, $a=0.9, $sl=spr, $ttl=1000, $variance=0.05"
attr iterationvars2 "$name=tree_4_3, $un=08, $rep=12, $scenario=Edge, $cd=lce, $cr=lru, $fsize=1, $a=0.9, $sl=spr, $ttl=1000, $variance=0.05, $repetition=0"
attr measurement "$name=tree_4_3, $un=08, $rep=12, $scenario=Edge, $cd=lce, $cr=lru, $fsize=1, $a=0.9, $sl=spr, $ttl=1000, $variance=0.05"
attr name tree_4_3
attr network networks.${name}_u${un}_r${rep}_network
attr processid 32642
attr rep 12
attr repetition 0
attr replication #0
attr resultdir results
attr runnumber 171
attr scenario Edge
attr seedset 12
attr sl spr
attr ttl 1000
attr un 08
attr variance 0.05

scalar . 	a 	0.9
scalar . 	fsize 	1
scalar . 	rep 	12
scalar . 	ttl 	1000
scalar . 	un 	08
scalar . 	variance 	0.05
scalar tree_4_3_u08_r12_network.content_distribution 	repo-0 	0
scalar tree_4_3_u08_r12_network.content_distribution 	client-0 	13
scalar tree_4_3_u08_r12_network.content_distribution 	client-1 	14
scalar tree_4_3_u08_r12_network.content_distribution 	client-2 	15
scalar tree_4_3_u08_r12_network.content_distribution 	client-3 	16
scalar tree_4_3_u08_r12_network.content_distribution 	client-4 	17
scalar tree_4_3_u08_r12_network.content_distribution 	client-5 	18
scalar tree_4_3_u08_r12_network.content_distribution 	client-6 	19
scalar tree_4_3_u08_r12_network.content_distribution 	client-7 	20
scalar tree_4_3_u08_r12_network.content_distribution 	client-8 	21
scalar tree_4_3_u08_r12_network.content_distribution 	client-9 	22
scalar tree_4_3_u08_r12_network.content_distribution 	client-10 	23
scalar tree_4_3_u08_r12_network.content_distribution 	client-11 	24
scalar tree_4_3_u08_r12_network.content_distribution 	client-12 	25
scalar tree_4_3_u08_r12_network.content_distribution 	client-13 	26
scalar tree_4_3_u08_r12_network.content_distribution 	client-14 	27
scalar tree_4_3_u08_r12_network.content_distribution 	client-15 	28
scalar tree_4_3_u08_r12_network.content_distribution 	client-16 	29
scalar tree_4_3_u08_r12_network.content_distribution 	client-17 	30
scalar tree_4_3_u08_r12_network.content_distribution 	client-18 	31
scalar tree_4_3_u08_r12_network.content_distribution 	client-19 	32
scalar tree_4_3_u08_r12_network.content_distribution 	client-20 	33
scalar tree_4_3_u08_r12_network.content_distribution 	client-21 	34
scalar tree_4_3_u08_r12_network.content_distribution 	client-22 	35
scalar tree_4_3_u08_r12_network.content_distribution 	client-23 	36
scalar tree_4_3_u08_r12_network.content_distribution 	client-24 	37
scalar tree_4_3_u08_r12_network.content_distribution 	client-25 	38
scalar tree_4_3_u08_r12_network.content_distribution 	client-26 	39
scalar tree_4_3_u08_r12_network.content_distribution 	repo-0_card 	100000
scalar tree_4_3_u08_r12_network.content_distribution 	repo-0_price 	0
scalar tree_4_3_u08_r12_network.statistics 	stabilization_time 	422.8
scalar tree_4_3_u08_r12_network.statistics 	p_hit 	0.10560326140695
scalar tree_4_3_u08_r12_network.statistics 	interests 	28619.075
scalar tree_4_3_u08_r12_network.statistics 	data 	20512.075
scalar tree_4_3_u08_r12_network.statistics 	hdistance 	3.3741566199915
scalar tree_4_3_u08_r12_network.statistics 	avg_time 	0.005060874746
scalar tree_4_3_u08_r12_network.statistics 	downloads 	324253
scalar tree_4_3_u08_r12_network.statistics 	total_cost 	0
scalar tree_4_3_u08_r12_network.statistics 	total_replicas 	100000
scalar tree_4_3_u08_r12_network.statistics 	inner_hit 	0.1566431150984
scalar tree_4_3_u08_r12_network.node[0].core_layer 	interests[0] 	273461
scalar tree_4_3_u08_r12_network.node[0].core_layer 	repo_load[0] 	273461
scalar tree_4_3_u08_r12_network.node[0].core_layer 	data[0] 	0
scalar tree_4_3_u08_r12_network.node[0].core_layer 	repo_int[0] 	273461
scalar tree_4_3_u08_r12_network.node[0].content_store 	p_hit[0] 	0
scalar tree_4_3_u08_r12_network.node[0].content_store 	hits[0] 	0
scalar tree_4_3_u08_r12_network.node[0].content_store 	misses[0] 	273461
scalar tree_4_3_u08_r12_network.node[0].content_store 	decision_yes[0] 	0
scalar tree_4_3_u08_r12_network.node[0].content_store 	decision_no[0] 	273461
scalar tree_4_3_u08_r12_network.node[0].content_store 	decision_ratio[0] 	0
scalar tree_4_3_u08_r12_network.node[1].core_layer 	interests[1] 	182381
scalar tree_4_3_u08_r12_network.node[1].core_layer 	data[1] 	182340
scalar tree_4_3_u08_r12_network.node[1].content_store 	p_hit[1] 	0
scalar tree_4_3_u08_r12_network.node[1].content_store 	hits[1] 	0
scalar tree_4_3_u08_r12_network.node[1].content_store 	misses[1] 	182381
scalar tree_4_3_u08_r12_network.node[1].content_store 	decision_yes[1] 	0
scalar tree_4_3_u08_r12_network.node[1].content_store 	decision_no[1] 	182340
scalar tree_4_3_u08_r12_network.node[1].content_store 	decision_ratio[1] 	0
scalar tree_4_3_u08_r12_network.node[2].core_layer 	interests[2] 	80999
scalar tree_4_3_u08_r12_network.node[2].core_layer 	data[2] 	80996
scalar tree_4_3_u08_r12_network.node[2].content_store 	p_hit[2] 	0
scalar tree_4_3_u08_r12_network.node[2].content_store 	hits[2] 	0
scalar tree_4_3_u08_r12_network.node[2].content_store 	misses[2] 	80999
scalar tree_4_3_u08_r12_network.node[2].content_store 	decision_yes[2] 	0
scalar tree_4_3_u08_r12_network.node[2].content_store 	decision_no[2] 	80996
scalar tree_4_3_u08_r12_network.node[2].content_store 	decision_ratio[2] 	0
scalar tree_4_3_u08_r12_network.node[3].core_layer 	interests[3] 	10125
scalar tree_4_3_u08_r12_network.node[3].core_layer 	data[3] 	10125
scalar tree_4_3_u08_r12_network.node[3].content_store 	p_hit[3] 	0
scalar tree_4_3_u08_r12_network.node[3].content_store 	hits[3] 	0
scalar tree_4_3_u08_r12_network.node[3].content_store 	misses[3] 	10125
scalar tree_4_3_u08_r12_network.node[3].content_store 	decision_yes[3] 	0
scalar tree_4_3_u08_r12_network.node[3].content_store 	decision_no[3] 	10125
scalar tree_4_3_u08_r12_network.node[3].content_store 	decision_ratio[3] 	0
scalar tree_4_3_u08_r12_network.node[4].core_layer 	interests[4] 	40417
scalar tree_4_3_u08_r12_network.node[4].core_layer 	data[4] 	40415
scalar tree_4_3_u08_r12_network.node[4].content_store 	p_hit[4] 	0
scalar tree_4_3_u08_r12_network.node[4].content_store 	hits[4] 	0
scalar tree_4_3_u08_r12_network.node[4].content_store 	misses[4] 	40417
scalar tree_4_3_u08_r12_network.node[4].content_store 	decision_yes[4] 	0
scalar tree_4_3_u08_r12_network.node[4].content_store 	decision_no[4] 	40415
scalar tree_4_3_u08_r12_network.node[4].content_store 	decision_ratio[4] 	0
scalar tree_4_3_u08_r12_network.node[5].core_layer 	interests[5] 	30341
scalar tree_4_3_u08_r12_network.node[5].core_layer 	data[5] 	30340
scalar tree_4_3_u08_r12_network.node[5].content_store 	p_hit[5] 	0
scalar tree_4_3_u08_r12_network.node[5].content_store 	hits[5] 	0
scalar tree_4_3_u08_r12_network.node[5].content_store 	misses[5] 	30341
scalar tree_4_3_u08_r12_network.node[5].content_store 	decision_yes[5] 	0
scalar tree_4_3_u08_r12_network.node[5].content_store 	decision_no[5] 	30340
scalar tree_4_3_u08_r12_network.node[5].content_store 	decision_ratio[5] 	0
scalar tree_4_3_u08_r12_network.node[6].core_layer 	interests[6] 	20388
scalar tree_4_3_u08_r12_network.node[6].core_layer 	data[6] 	20387
scalar tree_4_3_u08_r12_network.node[6].content_store 	p_hit[6] 	0
scalar tree_4_3_u08_r12_network.node[6].content_store 	hits[6] 	0
scalar tree_4_3_u08_r12_network.node[6].content_store 	misses[6] 	20388
scalar tree_4_3_u08_r12_network.node[6].content_store 	decision_yes[6] 	0
scalar tree_4_3_u08_r12_network.node[6].content_store 	decision_no[6] 	20387
scalar tree_4_3_u08_r12_network.node[6].content_store 	decision_ratio[6] 	0
scalar tree_4_3_u08_r12_network.node[7].core_layer 	interests[7] 	50604
scalar tree_4_3_u08_r12_network.node[7].core_layer 	data[7] 	50600
scalar tree_4_3_u08_r12_network.node[7].content_store 	p_hit[7] 	0
scalar tree_4_3_u08_r12_network.node[7].content_store 	hits[7] 	0
scalar tree_4_3_u08_r12_network.node[7].content_store 	misses[7] 	50604
scalar tree_4_3_u08_r12_network.node[7].content_store 	decision_yes[7] 	0
scalar tree_4_3_u08_r12_network.node[7].content_store 	decision_no[7] 	50600
scalar tree_4_3_u08_r12_network.node[7].content_store 	decision_ratio[7] 	0
scalar tree_4_3_u08_r12_network.node[8].core_layer 	interests[8] 	30322
scalar tree_4_3_u08_r12_network.node[8].core_layer 	data[8] 	30320
scalar tree_4_3_u08_r12_network.node[8].content_store 	p_hit[8] 	0
scalar tree_4_3_u08_r12_network.node[8].content_store 	hits[8] 	0
scalar tree_4_3_u08_r12_network.node[8].content_store 	misses[8] 	30322
scalar tree_4_3_u08_r12_network.node[8].content_store 	decision_yes[8] 	0
scalar tree_4_3_u08_r12_network.node[8].content_store 	decision_no[8] 	30320
scalar tree_4_3_u08_r12_network.node[8].content_store 	decision_ratio[8] 	0
scalar tree_4_3_u08_r12_network.node[9].core_layer 	interests[9] 	10266
scalar tree_4_3_u08_r12_network.node[9].core_layer 	data[9] 	10266
scalar tree_4_3_u08_r12_network.node[9].content_store 	p_hit[9] 	0
scalar tree_4_3_u08_r12_network.node[9].content_store 	hits[9] 	0
scalar tree_4_3_u08_r12_network.node[9].content_store 	misses[9] 	10266
scalar tree_4_3_u08_r12_network.node[9].content_store 	decision_yes[9] 	0
scalar tree_4_3_u08_r12_network.node[9].content_store 	decision_no[9] 	10266
scalar tree_4_3_u08_r12_network.node[9].content_store 	decision_ratio[9] 	0
scalar tree_4_3_u08_r12_network.node[10].core_layer 	interests[10] 	40642
scalar tree_4_3_u08_r12_network.node[10].core_layer 	data[10] 	40638
scalar tree_4_3_u08_r12_network.node[10].content_store 	p_hit[10] 	0
scalar tree_4_3_u08_r12_network.node[10].content_store 	hits[10] 	0
scalar tree_4_3_u08_r12_network.node[10].content_store 	misses[10] 	40642
scalar tree_4_3_u08_r12_network.node[10].content_store 	decision_yes[10] 	0
scalar tree_4_3_u08_r12_network.node[10].content_store 	decision_no[10] 	40638
scalar tree_4_3_u08_r12_network.node[10].content_store 	decision_ratio[10] 	0
scalar tree_4_3_u08_r12_network.node[11].core_layer 	interests[11] 	40416
scalar tree_4_3_u08_r12_network.node[11].core_layer 	data[11] 	40412
scalar tree_4_3_u08_r12_network.node[11].content_store 	p_hit[11] 	0
scalar tree_4_3_u08_r12_network.node[11].content_store 	hits[11] 	0
scalar tree_4_3_u08_r12_network.node[11].content_store 	misses[11] 	40416
scalar tree_4_3_u08_r12_network.node[11].content_store 	decision_yes[11] 	0
scalar tree_4_3_u08_r12_network.node[11].content_store 	decision_no[11] 	40412
scalar tree_4_3_u08_r12_network.node[11].content_store 	decision_ratio[11] 	0
scalar tree_4_3_u08_r12_network.node[12].core_layer 	interests[12] 	10124
scalar tree_4_3_u08_r12_network.node[12].core_layer 	data[12] 	10125
scalar tree_4_3_u08_r12_network.node[12].content_store 	p_hit[12] 	0
scalar tree_4_3_u08_r12_network.node[12].content_store 	hits[12] 	0
scalar tree_4_3_u08_r12_network.node[12].content_store 	misses[12] 	10124
scalar tree_4_3_u08_r12_network.node[12].content_store 	decision_yes[12] 	0
scalar tree_4_3_u08_r12_network.node[12].content_store 	decision_no[12] 	10125
scalar tree_4_3_u08_r12_network.node[12].content_store 	decision_ratio[12] 	0
scalar tree_4_3_u08_r12_network.node[13].core_layer 	interests[13] 	12074
scalar tree_4_3_u08_r12_network.node[13].core_layer 	data[13] 	10130
scalar tree_4_3_u08_r12_network.node[13].content_store 	p_hit[13] 	0.16092430014908
scalar tree_4_3_u08_r12_network.node[13].content_store 	hits[13] 	1943
scalar tree_4_3_u08_r12_network.node[13].content_store 	misses[13] 	10131
scalar tree_4_3_u08_r12_network.node[13].content_store 	decision_yes[13] 	10130
scalar tree_4_3_u08_r12_network.node[13].content_store 	decision_no[13] 	0
scalar tree_4_3_u08_r12_network.node[13].content_store 	decision_ratio[13] 	1
scalar tree_4_3_u08_r12_network.node[14].core_layer 	interests[14] 	12029
scalar tree_4_3_u08_r12_network.node[14].core_layer 	data[14] 	10113
scalar tree_4_3_u08_r12_network.node[14].content_store 	p_hit[14] 	0.15919860337518
scalar tree_4_3_u08_r12_network.node[14].content_store 	hits[14] 	1915
scalar tree_4_3_u08_r12_network.node[14].content_store 	misses[14] 	10114
scalar tree_4_3_u08_r12_network.node[14].content_store 	decision_yes[14] 	10113
scalar tree_4_3_u08_r12_network.node[14].content_store 	decision_no[14] 	0
scalar tree_4_3_u08_r12_network.node[14].content_store 	decision_ratio[14] 	1
scalar tree_4_3_u08_r12_network.node[15].core_layer 	interests[15] 	11927
scalar tree_4_3_u08_r12_network.node[15].core_layer 	data[15] 	10062
scalar tree_4_3_u08_r12_network.node[15].content_store 	p_hit[15] 	0.15628406137335
scalar tree_4_3_u08_r12_network.node[15].content_store 	hits[15] 	1864
scalar tree_4_3_u08_r12_network.node[15].content_store 	misses[15] 	10063
scalar tree_4_3_u08_r12_network.node[15].content_store 	decision_yes[15] 	10062
scalar tree_4_3_u08_r12_network.node[15].content_store 	decision_no[15] 	0
scalar tree_4_3_u08_r12_network.node[15].content_store 	decision_ratio[15] 	1
scalar tree_4_3_u08_r12_network.node[16].core_layer 	interests[16] 	12001
scalar tree_4_3_u08_r12_network.node[16].core_layer 	data[16] 	10112
scalar tree_4_3_u08_r12_network.node[16].content_store 	p_hit[16] 	0.15723689692526
scalar tree_4_3_u08_r12_network.node[16].content_store 	hits[16] 	1887
scalar tree_4_3_u08_r12_network.node[16].content_store 	misses[16] 	10114
scalar tree_4_3_u08_r12_network.node[16].content_store 	decision_yes[16] 	10112
scalar tree_4_3_u08_r12_network.node[16].content_store 	decision_no[16] 	0
scalar tree_4_3_u08_r12_network.node[16].content_store 	decision_ratio[16] 	1
scalar tree_4_3_u08_r12_network.node[17].core_layer 	interests[17] 	12022
scalar tree_4_3_u08_r12_network.node[17].core_layer 	data[17] 	10050
scalar tree_4_3_u08_r12_network.node[17].content_store 	p_hit[17] 	0.16394942605224
scalar tree_4_3_u08_r12_network.node[17].content_store 	hits[17] 	1971
scalar tree_4_3_u08_r12_network.node[17].content_store 	misses[17] 	10051
scalar tree_4_3_u08_r12_network.node[17].content_store 	decision_yes[17] 	10050
scalar tree_4_3_u08_r12_network.node[17].content_store 	decision_no[17] 	0
scalar tree_4_3_u08_r12_network.node[17].content_store 	decision_ratio[17] 	1
scalar tree_4_3_u08_r12_network.node[18].core_layer 	interests[18] 	11908
scalar tree_4_3_u08_r12_network.node[18].core_layer 	data[18] 	10123
scalar tree_4_3_u08_r12_network.node[18].content_store 	p_hit[18] 	0.14981525025193
scalar tree_4_3_u08_r12_network.node[18].content_store 	hits[18] 	1784
scalar tree_4_3_u08_r12_network.node[18].content_store 	misses[18] 	10124
scalar tree_4_3_u08_r12_network.node[18].content_store 	decision_yes[18] 	10123
scalar tree_4_3_u08_r12_network.node[18].content_store 	decision_no[18] 	0
scalar tree_4_3_u08_r12_network.node[18].content_store 	decision_ratio[18] 	1
scalar tree_4_3_u08_r12_network.node[19].core_layer 	interests[19] 	11927
scalar tree_4_3_u08_r12_network.node[19].core_layer 	data[19] 	10111
scalar tree_4_3_u08_r12_network.node[19].content_store 	p_hit[19] 	0.1520918923451
scalar tree_4_3_u08_r12_network.node[19].content_store 	hits[19] 	1814
scalar tree_4_3_u08_r12_network.node[19].content_store 	misses[19] 	10113
scalar tree_4_3_u08_r12_network.node[19].content_store 	decision_yes[19] 	10111
scalar tree_4_3_u08_r12_network.node[19].content_store 	decision_no[19] 	0
scalar tree_4_3_u08_r12_network.node[19].content_store 	decision_ratio[19] 	1
scalar tree_4_3_u08_r12_network.node[20].core_layer 	interests[20] 	12006
scalar tree_4_3_u08_r12_network.node[20].core_layer 	data[20] 	10168
scalar tree_4_3_u08_r12_network.node[20].content_store 	p_hit[20] 	0.15309012160586
scalar tree_4_3_u08_r12_network.node[20].content_store 	hits[20] 	1838
scalar tree_4_3_u08_r12_network.node[20].content_store 	misses[20] 	10168
scalar tree_4_3_u08_r12_network.node[20].content_store 	decision_yes[20] 	10168
scalar tree_4_3_u08_r12_network.node[20].content_store 	decision_no[20] 	0
scalar tree_4_3_u08_r12_network.node[20].content_store 	decision_ratio[20] 	1
scalar tree_4_3_u08_r12_network.node[21].core_layer 	interests[21] 	12085
scalar tree_4_3_u08_r12_network.node[21].core_layer 	data[21] 	10277
scalar tree_4_3_u08_r12_network.node[21].content_store 	p_hit[21] 	0.14952420355813
scalar tree_4_3_u08_r12_network.node[21].content_store 	hits[21] 	1807
scalar tree_4_3_u08_r12_network.node[21].content_store 	misses[21] 	10278
scalar tree_4_3_u08_r12_network.node[21].content_store 	decision_yes[21] 	10277
scalar tree_4_3_u08_r12_network.node[21].content_store 	decision_no[21] 	0
scalar tree_4_3_u08_r12_network.node[21].content_store 	decision_ratio[21] 	1
scalar tree_4_3_u08_r12_network.node[22].core_layer 	interests[22] 	12212
scalar tree_4_3_u08_r12_network.node[22].core_layer 	data[22] 	10283
scalar tree_4_3_u08_r12_network.node[22].content_store 	p_hit[22] 	0.15795938421225
scalar tree_4_3_u08_r12_network.node[22].content_store 	hits[22] 	1929
scalar tree_4_3_u08_r12_network.node[22].content_store 	misses[22] 	10283
scalar tree_4_3_u08_r12_network.node[22].content_store 	decision_yes[22] 	10283
scalar tree_4_3_u08_r12_network.node[22].content_store 	decision_no[22] 	0
scalar tree_4_3_u08_r12_network.node[22].content_store 	decision_ratio[22] 	1
scalar tree_4_3_u08_r12_network.node[23].core_layer 	interests[23] 	11979
scalar tree_4_3_u08_r12_network.node[23].core_layer 	data[23] 	10132
scalar tree_4_3_u08_r12_network.node[23].content_store 	p_hit[23] 	0.15410301360715
scalar tree_4_3_u08_r12_network.node[23].content_store 	hits[23] 	1846
scalar tree_4_3_u08_r12_network.node[23].content_store 	misses[23] 	10133
scalar tree_4_3_u08_r12_network.node[23].content_store 	decision_yes[23] 	10132
scalar tree_4_3_u08_r12_network.node[23].content_store 	decision_no[23] 	0
scalar tree_4_3_u08_r12_network.node[23].content_store 	decision_ratio[23] 	1
scalar tree_4_3_u08_r12_network.node[24].core_layer 	interests[24] 	11916
scalar tree_4_3_u08_r12_network.node[24].core_layer 	data[24] 	10087
scalar tree_4_3_u08_r12_network.node[24].content_store 	p_hit[24] 	0.15349110439745
scalar tree_4_3_u08_r12_network.node[24].content_store 	hits[24] 	1829
scalar tree_4_3_u08_r12_network.node[24].content_store 	misses[24] 	10087
scalar tree_4_3_u08_r12_network.node[24].content_store 	decision_yes[24] 	10087
scalar tree_4_3_u08_r12_network.node[24].content_store 	decision_no[24] 	0
scalar tree_4_3_u08_r12_network.node[24].content_store 	decision_ratio[24] 	1
scalar tree_4_3_u08_r12_network.node[25].core_layer 	interests[25] 	12033
scalar tree_4_3_u08_r12_network.node[25].core_layer 	data[25] 	10181
scalar tree_4_3_u08_r12_network.node[25].content_store 	p_hit[25] 	0.1538269758165
scalar tree_4_3_u08_r12_network.node[25].content_store 	hits[25] 	1851
scalar tree_4_3_u08_r12_network.node[25].content_store 	misses[25] 	10182
scalar tree_4_3_u08_r12_network.node[25].content_store 	decision_yes[25] 	10181
scalar tree_4_3_u08_r12_network.node[25].content_store 	decision_no[25] 	0
scalar tree_4_3_u08_r12_network.node[25].content_store 	decision_ratio[25] 	1
scalar tree_4_3_u08_r12_network.node[26].core_layer 	interests[26] 	12043
scalar tree_4_3_u08_r12_network.node[26].core_layer 	data[26] 	10123
scalar tree_4_3_u08_r12_network.node[26].content_store 	p_hit[26] 	0.15934567798721
scalar tree_4_3_u08_r12_network.node[26].content_store 	hits[26] 	1919
scalar tree_4_3_u08_r12_network.node[26].content_store 	misses[26] 	10124
scalar tree_4_3_u08_r12_network.node[26].content_store 	decision_yes[26] 	10123
scalar tree_4_3_u08_r12_network.node[26].content_store 	decision_no[26] 	0
scalar tree_4_3_u08_r12_network.node[26].content_store 	decision_ratio[26] 	1
scalar tree_4_3_u08_r12_network.node[27].core_layer 	interests[27] 	12121
scalar tree_4_3_u08_r12_network.node[27].core_layer 	data[27] 	10182
scalar tree_4_3_u08_r12_network.node[27].content_store 	p_hit[27] 	0.15988779803647
scalar tree_4_3_u08_r12_network.node[27].content_store 	hits[27] 	1938
scalar tree_4_3_u08_r12_network.node[27].content_store 	misses[27] 	10183
scalar tree_4_3_u08_r12_network.node[27].content_store 	decision_yes[27] 	10182
scalar tree_4_3_u08_r12_network.node[27].content_store 	decision_no[27] 	0
scalar tree_4_3_u08_r12_network.node[27].content_store 	decision_ratio[27] 	1
scalar tree_4_3_u08_r12_network.node[28].core_layer 	interests[28] 	11855
scalar tree_4_3_u08_r12_network.node[28].core_layer 	data[28] 	9921
scalar tree_4_3_u08_r12_network.node[28].content_store 	p_hit[28] 	0.16313791649093
scalar tree_4_3_u08_r12_network.node[28].content_store 	hits[28] 	1934
scalar tree_4_3_u08_r12_network.node[28].content_store 	misses[28] 	9921
scalar tree_4_3_u08_r12_network.node[28].content_store 	decision_yes[28] 	9921
scalar tree_4_3_u08_r12_network.node[28].content_store 	decision_no[28] 	0
scalar tree_4_3_u08_r12_network.node[28].content_store 	decision_ratio[28] 	1
scalar tree_4_3_u08_r12_network.node[29].core_layer 	interests[29] 	11926
scalar tree_4_3_u08_r12_network.node[29].core_layer 	data[29] 	10017
scalar tree_4_3_u08_r12_network.node[29].content_store 	p_hit[29] 	0.15998658393426
scalar tree_4_3_u08_r12_network.node[29].content_store 	hits[29] 	1908
scalar tree_4_3_u08_r12_network.node[29].content_store 	misses[29] 	10018
scalar tree_4_3_u08_r12_network.node[29].content_store 	decision_yes[29] 	10017
scalar tree_4_3_u08_r12_network.node[29].content_store 	decision_no[29] 	0
scalar tree_4_3_u08_r12_network.node[29].content_store 	decision_ratio[29] 	1
scalar tree_4_3_u08_r12_network.node[30].core_layer 	interests[30] 	12101
scalar tree_4_3_u08_r12_network.node[30].core_layer 	data[30] 	10266
scalar tree_4_3_u08_r12_network.node[30].content_store 	p_hit[30] 	0.1516403603008
scalar tree_4_3_u08_r12_network.node[30].content_store 	hits[30] 	1835
scalar tree_4_3_u08_r12_network.node[30].content_store 	misses[30] 	10266
scalar tree_4_3_u08_r12_network.node[30].content_store 	decision_yes[30] 	10266
scalar tree_4_3_u08_r12_network.node[30].content_store 	decision_no[30] 	0
scalar tree_4_3_u08_r12_network.node[30].content_store 	decision_ratio[30] 	1
scalar tree_4_3_u08_r12_network.node[31].core_layer 	interests[31] 	11985
scalar tree_4_3_u08_r12_network.node[31].core_layer 	data[31] 	10073
scalar tree_4_3_u08_r12_network.node[31].content_store 	p_hit[31] 	0.15944931163955
scalar tree_4_3_u08_r12_network.node[31].content_store 	hits[31] 	1911
scalar tree_4_3_u08_r12_network.node[31].content_store 	misses[31] 	10074
scalar tree_4_3_u08_r12_network.node[31].content_store 	decision_yes[31] 	10073
scalar tree_4_3_u08_r12_network.node[31].content_store 	decision_no[31] 	0
scalar tree_4_3_u08_r12_network.node[31].content_store 	decision_ratio[31] 	1
scalar tree_4_3_u08_r12_network.node[32].core_layer 	interests[32] 	12180
scalar tree_4_3_u08_r12_network.node[32].core_layer 	data[32] 	10237
scalar tree_4_3_u08_r12_network.node[32].content_store 	p_hit[32] 	0.15952380952381
scalar tree_4_3_u08_r12_network.node[32].content_store 	hits[32] 	1943
scalar tree_4_3_u08_r12_network.node[32].content_store 	misses[32] 	10237
scalar tree_4_3_u08_r12_network.node[32].content_store 	decision_yes[32] 	10237
scalar tree_4_3_u08_r12_network.node[32].content_store 	decision_no[32] 	0
scalar tree_4_3_u08_r12_network.node[32].content_store 	decision_ratio[32] 	1
scalar tree_4_3_u08_r12_network.node[33].core_layer 	interests[33] 	12047
scalar tree_4_3_u08_r12_network.node[33].core_layer 	data[33] 	10209
scalar tree_4_3_u08_r12_network.node[33].content_store 	p_hit[33] 	0.1524030879057
scalar tree_4_3_u08_r12_network.node[33].content_store 	hits[33] 	1836
scalar tree_4_3_u08_r12_network.node[33].content_store 	misses[33] 	10211
scalar tree_4_3_u08_r12_network.node[33].content_store 	decision_yes[33] 	10209
scalar tree_4_3_u08_r12_network.node[33].content_store 	decision_no[33] 	0
scalar tree_4_3_u08_r12_network.node[33].content_store 	decision_ratio[33] 	1
scalar tree_4_3_u08_r12_network.node[34].core_layer 	interests[34] 	12016
scalar tree_4_3_u08_r12_network.node[34].core_layer 	data[34] 	10155
scalar tree_4_3_u08_r12_network.node[34].content_store 	p_hit[34] 	0.15487683089214
scalar tree_4_3_u08_r12_network.node[34].content_store 	hits[34] 	1861
scalar tree_4_3_u08_r12_network.node[34].content_store 	misses[34] 	10155
scalar tree_4_3_u08_r12_network.node[34].content_store 	decision_yes[34] 	10155
scalar tree_4_3_u08_r12_network.node[34].content_store 	decision_no[34] 	0
scalar tree_4_3_u08_r12_network.node[34].content_store 	decision_ratio[34] 	1
scalar tree_4_3_u08_r12_network.node[35].core_layer 	interests[35] 	11882
scalar tree_4_3_u08_r12_network.node[35].core_layer 	data[35] 	10047
scalar tree_4_3_u08_r12_network.node[35].content_store 	p_hit[35] 	0.15418279750884
scalar tree_4_3_u08_r12_network.node[35].content_store 	hits[35] 	1832
scalar tree_4_3_u08_r12_network.node[35].content_store 	misses[35] 	10050
scalar tree_4_3_u08_r12_network.node[35].content_store 	decision_yes[35] 	10047
scalar tree_4_3_u08_r12_network.node[35].content_store 	decision_no[35] 	0
scalar tree_4_3_u08_r12_network.node[35].content_store 	decision_ratio[35] 	1
scalar tree_4_3_u08_r12_network.node[36].core_layer 	interests[36] 	11967
scalar tree_4_3_u08_r12_network.node[36].core_layer 	data[36] 	10116
scalar tree_4_3_u08_r12_network.node[36].content_store 	p_hit[36] 	0.15459179410044
scalar tree_4_3_u08_r12_network.node[36].content_store 	hits[36] 	1850
scalar tree_4_3_u08_r12_network.node[36].content_store 	misses[36] 	10117
scalar tree_4_3_u08_r12_network.node[36].content_store 	decision_yes[36] 	10116
scalar tree_4_3_u08_r12_network.node[36].content_store 	decision_no[36] 	0
scalar tree_4_3_u08_r12_network.node[36].content_store 	decision_ratio[36] 	1
scalar tree_4_3_u08_r12_network.node[37].core_layer 	interests[37] 	12057
scalar tree_4_3_u08_r12_network.node[37].core_layer 	data[37] 	10122
scalar tree_4_3_u08_r12_network.node[37].content_store 	p_hit[37] 	0.16040474413204
scalar tree_4_3_u08_r12_network.node[37].content_store 	hits[37] 	1934
scalar tree_4_3_u08_r12_network.node[37].content_store 	misses[37] 	10123
scalar tree_4_3_u08_r12_network.node[37].content_store 	decision_yes[37] 	10122
scalar tree_4_3_u08_r12_network.node[37].content_store 	decision_no[37] 	0
scalar tree_4_3_u08_r12_network.node[37].content_store 	decision_ratio[37] 	1
scalar tree_4_3_u08_r12_network.node[38].core_layer 	interests[38] 	11980
scalar tree_4_3_u08_r12_network.node[38].core_layer 	data[38] 	10097
scalar tree_4_3_u08_r12_network.node[38].content_store 	p_hit[38] 	0.15709515859766
scalar tree_4_3_u08_r12_network.node[38].content_store 	hits[38] 	1882
scalar tree_4_3_u08_r12_network.node[38].content_store 	misses[38] 	10098
scalar tree_4_3_u08_r12_network.node[38].content_store 	decision_yes[38] 	10097
scalar tree_4_3_u08_r12_network.node[38].content_store 	decision_no[38] 	0
scalar tree_4_3_u08_r12_network.node[38].content_store 	decision_ratio[38] 	1
scalar tree_4_3_u08_r12_network.node[39].core_layer 	interests[39] 	11998
scalar tree_4_3_u08_r12_network.node[39].core_layer 	data[39] 	10125
scalar tree_4_3_u08_r12_network.node[39].content_store 	p_hit[39] 	0.15610935155859
scalar tree_4_3_u08_r12_network.node[39].content_store 	hits[39] 	1873
scalar tree_4_3_u08_r12_network.node[39].content_store 	misses[39] 	10125
scalar tree_4_3_u08_r12_network.node[39].content_store 	decision_yes[39] 	10125
scalar tree_4_3_u08_r12_network.node[39].content_store 	decision_no[39] 	0
scalar tree_4_3_u08_r12_network.node[39].content_store 	decision_ratio[39] 	1
scalar tree_4_3_u08_r12_network.client[13] 	hdistance[13] 	3.3562494823159
scalar tree_4_3_u08_r12_network.client[13] 	downloads[13] 	12073
scalar tree_4_3_u08_r12_network.client[13] 	avg_time[13] 	0.005034269771
scalar tree_4_3_u08_r12_network.client[14] 	hdistance[14] 	3.3631526438311
scalar tree_4_3_u08_r12_network.client[14] 	downloads[14] 	12028
scalar tree_4_3_u08_r12_network.client[14] 	avg_time[14] 	0.005044227576
scalar tree_4_3_u08_r12_network.client[15] 	hdistance[15] 	3.3748113365755
scalar tree_4_3_u08_r12_network.client[15] 	downloads[15] 	11926
scalar tree_4_3_u08_r12_network.client[15] 	avg_time[15] 	0.00506179492
scalar tree_4_3_u08_r12_network.client[16] 	hdistance[16] 	3.3709475789649
scalar tree_4_3_u08_r12_network.client[16] 	downloads[16] 	11999
scalar tree_4_3_u08_r12_network.client[16] 	avg_time[16] 	0.005055817022
scalar tree_4_3_u08_r12_network.client[17] 	hdistance[17] 	3.3441477414525
scalar tree_4_3_u08_r12_network.client[17] 	downloads[17] 	12021
scalar tree_4_3_u08_r12_network.client[17] 	avg_time[17] 	0.005016057431
scalar tree_4_3_u08_r12_network.client[18] 	hdistance[18] 	3.4006886705299
scalar tree_4_3_u08_r12_network.client[18] 	downloads[18] 	11907
scalar tree_4_3_u08_r12_network.client[18] 	avg_time[18] 	0.005100589253
scalar tree_4_3_u08_r12_network.client[19] 	hdistance[19] 	3.3915303983229
scalar tree_4_3_u08_r12_network.client[19] 	downloads[19] 	11925
scalar tree_4_3_u08_r12_network.client[19] 	avg_time[19] 	0.00508617692
scalar tree_4_3_u08_r12_network.client[20] 	hdistance[20] 	3.3876395135765
scalar tree_4_3_u08_r12_network.client[20] 	downloads[20] 	12006
scalar tree_4_3_u08_r12_network.client[20] 	avg_time[20] 	0.005081392824
scalar tree_4_3_u08_r12_network.client[21] 	hdistance[21] 	3.4018536908309
scalar tree_4_3_u08_r12_network.client[21] 	downloads[21] 	12084
scalar tree_4_3_u08_r12_network.client[21] 	avg_time[21] 	0.005101828871
scalar tree_4_3_u08_r12_network.client[22] 	hdistance[22] 	3.368162463151
scalar tree_4_3_u08_r12_network.client[22] 	downloads[22] 	12212
scalar tree_4_3_u08_r12_network.client[22] 	avg_time[22] 	0.005052074066
scalar tree_4_3_u08_r12_network.client[23] 	hdistance[23] 	3.3835364835532
scalar tree_4_3_u08_r12_network.client[23] 	downloads[23] 	11978
scalar tree_4_3_u08_r12_network.client[23] 	avg_time[23] 	0.005074615112
scalar tree_4_3_u08_r12_network.client[24] 	hdistance[24] 	3.3860355824102
scalar tree_4_3_u08_r12_network.client[24] 	downloads[24] 	11916
scalar tree_4_3_u08_r12_network.client[24] 	avg_time[24] 	0.005078572111
scalar tree_4_3_u08_r12_network.client[25] 	hdistance[25] 	3.3846409574468
scalar tree_4_3_u08_r12_network.client[25] 	downloads[25] 	12032
scalar tree_4_3_u08_r12_network.client[25] 	avg_time[25] 	0.005076945329
scalar tree_4_3_u08_r12_network.client[26] 	hdistance[26] 	3.3625643580801
scalar tree_4_3_u08_r12_network.client[26] 	downloads[26] 	12042
scalar tree_4_3_u08_r12_network.client[26] 	avg_time[26] 	0.005043664751
scalar tree_4_3_u08_r12_network.client[27] 	hdistance[27] 	3.360396039604
scalar tree_4_3_u08_r12_network.client[27] 	downloads[27] 	12120
scalar tree_4_3_u08_r12_network.client[27] 	avg_time[27] 	0.005040029953
scalar tree_4_3_u08_r12_network.client[28] 	hdistance[28] 	3.3474483340363
scalar tree_4_3_u08_r12_network.client[28] 	downloads[28] 	11855
scalar tree_4_3_u08_r12_network.client[28] 	avg_time[28] 	0.005021075673
scalar tree_4_3_u08_r12_network.client[29] 	hdistance[29] 	3.36
scalar tree_4_3_u08_r12_network.client[29] 	downloads[29] 	11925
scalar tree_4_3_u08_r12_network.client[29] 	avg_time[29] 	0.005039533592
scalar tree_4_3_u08_r12_network.client[30] 	hdistance[30] 	3.3934385587968
scalar tree_4_3_u08_r12_network.client[30] 	downloads[30] 	12101
scalar tree_4_3_u08_r12_network.client[30] 	avg_time[30] 	0.005090154798
scalar tree_4_3_u08_r12_network.client[31] 	hdistance[31] 	3.3621495327103
scalar tree_4_3_u08_r12_network.client[31] 	downloads[31] 	11984
scalar tree_4_3_u08_r12_network.client[31] 	avg_time[31] 	0.005042649304
scalar tree_4_3_u08_r12_network.client[32] 	hdistance[32] 	3.3619047619048
scalar tree_4_3_u08_r12_network.client[32] 	downloads[32] 	12180
scalar tree_4_3_u08_r12_network.client[32] 	avg_time[32] 	0.005042561278
scalar tree_4_3_u08_r12_network.client[33] 	hdistance[33] 	3.3902864259029
scalar tree_4_3_u08_r12_network.client[33] 	downloads[33] 	12045
scalar tree_4_3_u08_r12_network.client[33] 	avg_time[33] 	0.005085147623
scalar tree_4_3_u08_r12_network.client[34] 	hdistance[34] 	3.3804926764314
scalar tree_4_3_u08_r12_network.client[34] 	downloads[34] 	12016
scalar tree_4_3_u08_r12_network.client[34] 	avg_time[34] 	0.005070736015
scalar tree_4_3_u08_r12_network.client[35] 	hdistance[35] 	3.3831130566546
scalar tree_4_3_u08_r12_network.client[35] 	downloads[35] 	11879
scalar tree_4_3_u08_r12_network.client[35] 	avg_time[35] 	0.00507411084
scalar tree_4_3_u08_r12_network.client[36] 	hdistance[36] 	3.381581146582
scalar tree_4_3_u08_r12_network.client[36] 	downloads[36] 	11966
scalar tree_4_3_u08_r12_network.client[36] 	avg_time[36] 	0.005072345938
scalar tree_4_3_u08_r12_network.client[37] 	hdistance[37] 	3.3583278035833
scalar tree_4_3_u08_r12_network.client[37] 	downloads[37] 	12056
scalar tree_4_3_u08_r12_network.client[37] 	avg_time[37] 	0.005037263149
scalar tree_4_3_u08_r12_network.client[38] 	hdistance[38] 	3.371566908757
scalar tree_4_3_u08_r12_network.client[38] 	downloads[38] 	11979
scalar tree_4_3_u08_r12_network.client[38] 	avg_time[38] 	0.005056678616
scalar tree_4_3_u08_r12_network.client[39] 	hdistance[39] 	3.3755625937656
scalar tree_4_3_u08_r12_network.client[39] 	downloads[39] 	11998
scalar tree_4_3_u08_r12_network.client[39] 	avg_time[39] 	0.005063305432
