version 2
run General-145-20160818-20:04:01-19481
attr a 0.9
attr cd lce
attr configname General
attr cr lru
attr datetime 20160818-20:04:01
attr experiment General
attr fsize 1
attr inifile hw5115/scenario_A/EdgeCoop.ini
attr iterationvars "$name=tree_4_3, $un=07, $rep=6, $scenario=Edge, $cd=lce, $cr=lru, $fsize=1, $a=0.9, $sl=nrr, $ttl=1000, $variance=0.05"
attr iterationvars2 "$name=tree_4_3, $un=07, $rep=6, $scenario=Edge, $cd=lce, $cr=lru, $fsize=1, $a=0.9, $sl=nrr, $ttl=1000, $variance=0.05, $repetition=0"
attr measurement "$name=tree_4_3, $un=07, $rep=6, $scenario=Edge, $cd=lce, $cr=lru, $fsize=1, $a=0.9, $sl=nrr, $ttl=1000, $variance=0.05"
attr name tree_4_3
attr network networks.${name}_u${un}_r${rep}_network
attr processid 19481
attr rep 6
attr repetition 0
attr replication #0
attr resultdir results
attr runnumber 145
attr scenario Edge
attr seedset 6
attr sl nrr
attr ttl 1000
attr un 07
attr variance 0.05

scalar . 	a 	0.9
scalar . 	fsize 	1
scalar . 	rep 	6
scalar . 	ttl 	1000
scalar . 	un 	07
scalar . 	variance 	0.05
scalar tree_4_3_u07_r6_network.content_distribution 	repo-0 	0
scalar tree_4_3_u07_r6_network.content_distribution 	client-0 	13
scalar tree_4_3_u07_r6_network.content_distribution 	client-1 	14
scalar tree_4_3_u07_r6_network.content_distribution 	client-2 	15
scalar tree_4_3_u07_r6_network.content_distribution 	client-3 	16
scalar tree_4_3_u07_r6_network.content_distribution 	client-4 	17
scalar tree_4_3_u07_r6_network.content_distribution 	client-5 	18
scalar tree_4_3_u07_r6_network.content_distribution 	client-6 	19
scalar tree_4_3_u07_r6_network.content_distribution 	client-7 	20
scalar tree_4_3_u07_r6_network.content_distribution 	client-8 	21
scalar tree_4_3_u07_r6_network.content_distribution 	client-9 	22
scalar tree_4_3_u07_r6_network.content_distribution 	client-10 	23
scalar tree_4_3_u07_r6_network.content_distribution 	client-11 	24
scalar tree_4_3_u07_r6_network.content_distribution 	client-12 	25
scalar tree_4_3_u07_r6_network.content_distribution 	client-13 	26
scalar tree_4_3_u07_r6_network.content_distribution 	client-14 	27
scalar tree_4_3_u07_r6_network.content_distribution 	client-15 	28
scalar tree_4_3_u07_r6_network.content_distribution 	client-16 	29
scalar tree_4_3_u07_r6_network.content_distribution 	client-17 	30
scalar tree_4_3_u07_r6_network.content_distribution 	client-18 	31
scalar tree_4_3_u07_r6_network.content_distribution 	client-19 	32
scalar tree_4_3_u07_r6_network.content_distribution 	client-20 	33
scalar tree_4_3_u07_r6_network.content_distribution 	client-21 	34
scalar tree_4_3_u07_r6_network.content_distribution 	client-22 	35
scalar tree_4_3_u07_r6_network.content_distribution 	client-23 	36
scalar tree_4_3_u07_r6_network.content_distribution 	client-24 	37
scalar tree_4_3_u07_r6_network.content_distribution 	client-25 	38
scalar tree_4_3_u07_r6_network.content_distribution 	client-26 	39
scalar tree_4_3_u07_r6_network.content_distribution 	repo-0_card 	100000
scalar tree_4_3_u07_r6_network.content_distribution 	repo-0_price 	0
scalar tree_4_3_u07_r6_network.statistics 	stabilization_time 	272.8
scalar tree_4_3_u07_r6_network.statistics 	p_hit 	0.20755054995917
scalar tree_4_3_u07_r6_network.statistics 	interests 	28094.875
scalar tree_4_3_u07_r6_network.statistics 	data 	19988.675
scalar tree_4_3_u07_r6_network.statistics 	hdistance 	3.091148649743
scalar tree_4_3_u07_r6_network.statistics 	avg_time 	0.004931447525
scalar tree_4_3_u07_r6_network.statistics 	downloads 	324243
scalar tree_4_3_u07_r6_network.statistics 	total_cost 	0
scalar tree_4_3_u07_r6_network.statistics 	total_replicas 	100000
scalar tree_4_3_u07_r6_network.statistics 	inner_hit 	0.37460793293918
scalar tree_4_3_u07_r6_network.node[0].core_layer 	interests[0] 	202779
scalar tree_4_3_u07_r6_network.node[0].core_layer 	repo_load[0] 	202779
scalar tree_4_3_u07_r6_network.node[0].core_layer 	data[0] 	0
scalar tree_4_3_u07_r6_network.node[0].core_layer 	repo_int[0] 	202779
scalar tree_4_3_u07_r6_network.node[0].content_store 	p_hit[0] 	0
scalar tree_4_3_u07_r6_network.node[0].content_store 	hits[0] 	0
scalar tree_4_3_u07_r6_network.node[0].content_store 	misses[0] 	202779
scalar tree_4_3_u07_r6_network.node[0].content_store 	decision_yes[0] 	0
scalar tree_4_3_u07_r6_network.node[0].content_store 	decision_no[0] 	202779
scalar tree_4_3_u07_r6_network.node[0].content_store 	decision_ratio[0] 	0
scalar tree_4_3_u07_r6_network.node[1].core_layer 	interests[1] 	141217
scalar tree_4_3_u07_r6_network.node[1].core_layer 	data[1] 	141205
scalar tree_4_3_u07_r6_network.node[1].content_store 	p_hit[1] 	0
scalar tree_4_3_u07_r6_network.node[1].content_store 	hits[1] 	0
scalar tree_4_3_u07_r6_network.node[1].content_store 	misses[1] 	141217
scalar tree_4_3_u07_r6_network.node[1].content_store 	decision_yes[1] 	0
scalar tree_4_3_u07_r6_network.node[1].content_store 	decision_no[1] 	141197
scalar tree_4_3_u07_r6_network.node[1].content_store 	decision_ratio[1] 	0
scalar tree_4_3_u07_r6_network.node[2].core_layer 	interests[2] 	78665
scalar tree_4_3_u07_r6_network.node[2].core_layer 	data[2] 	78665
scalar tree_4_3_u07_r6_network.node[2].content_store 	p_hit[2] 	0
scalar tree_4_3_u07_r6_network.node[2].content_store 	hits[2] 	0
scalar tree_4_3_u07_r6_network.node[2].content_store 	misses[2] 	78665
scalar tree_4_3_u07_r6_network.node[2].content_store 	decision_yes[2] 	0
scalar tree_4_3_u07_r6_network.node[2].content_store 	decision_no[2] 	78658
scalar tree_4_3_u07_r6_network.node[2].content_store 	decision_ratio[2] 	0
scalar tree_4_3_u07_r6_network.node[3].core_layer 	interests[3] 	10374
scalar tree_4_3_u07_r6_network.node[3].core_layer 	data[3] 	10374
scalar tree_4_3_u07_r6_network.node[3].content_store 	p_hit[3] 	0
scalar tree_4_3_u07_r6_network.node[3].content_store 	hits[3] 	0
scalar tree_4_3_u07_r6_network.node[3].content_store 	misses[3] 	10374
scalar tree_4_3_u07_r6_network.node[3].content_store 	decision_yes[3] 	0
scalar tree_4_3_u07_r6_network.node[3].content_store 	decision_no[3] 	10374
scalar tree_4_3_u07_r6_network.node[3].content_store 	decision_ratio[3] 	0
scalar tree_4_3_u07_r6_network.node[4].core_layer 	interests[4] 	50918
scalar tree_4_3_u07_r6_network.node[4].core_layer 	data[4] 	50916
scalar tree_4_3_u07_r6_network.node[4].content_store 	p_hit[4] 	0
scalar tree_4_3_u07_r6_network.node[4].content_store 	hits[4] 	0
scalar tree_4_3_u07_r6_network.node[4].content_store 	misses[4] 	50918
scalar tree_4_3_u07_r6_network.node[4].content_store 	decision_yes[4] 	0
scalar tree_4_3_u07_r6_network.node[4].content_store 	decision_no[4] 	50913
scalar tree_4_3_u07_r6_network.node[4].content_store 	decision_ratio[4] 	0
scalar tree_4_3_u07_r6_network.node[5].core_layer 	interests[5] 	21563
scalar tree_4_3_u07_r6_network.node[5].core_layer 	data[5] 	21563
scalar tree_4_3_u07_r6_network.node[5].content_store 	p_hit[5] 	0
scalar tree_4_3_u07_r6_network.node[5].content_store 	hits[5] 	0
scalar tree_4_3_u07_r6_network.node[5].content_store 	misses[5] 	21563
scalar tree_4_3_u07_r6_network.node[5].content_store 	decision_yes[5] 	0
scalar tree_4_3_u07_r6_network.node[5].content_store 	decision_no[5] 	21561
scalar tree_4_3_u07_r6_network.node[5].content_store 	decision_ratio[5] 	0
scalar tree_4_3_u07_r6_network.node[6].core_layer 	interests[6] 	24306
scalar tree_4_3_u07_r6_network.node[6].core_layer 	data[6] 	24304
scalar tree_4_3_u07_r6_network.node[6].content_store 	p_hit[6] 	0
scalar tree_4_3_u07_r6_network.node[6].content_store 	hits[6] 	0
scalar tree_4_3_u07_r6_network.node[6].content_store 	misses[6] 	24306
scalar tree_4_3_u07_r6_network.node[6].content_store 	decision_yes[6] 	0
scalar tree_4_3_u07_r6_network.node[6].content_store 	decision_no[6] 	24302
scalar tree_4_3_u07_r6_network.node[6].content_store 	decision_ratio[6] 	0
scalar tree_4_3_u07_r6_network.node[7].core_layer 	interests[7] 	44688
scalar tree_4_3_u07_r6_network.node[7].core_layer 	data[7] 	44685
scalar tree_4_3_u07_r6_network.node[7].content_store 	p_hit[7] 	0
scalar tree_4_3_u07_r6_network.node[7].content_store 	hits[7] 	0
scalar tree_4_3_u07_r6_network.node[7].content_store 	misses[7] 	44688
scalar tree_4_3_u07_r6_network.node[7].content_store 	decision_yes[7] 	0
scalar tree_4_3_u07_r6_network.node[7].content_store 	decision_no[7] 	44679
scalar tree_4_3_u07_r6_network.node[7].content_store 	decision_ratio[7] 	0
scalar tree_4_3_u07_r6_network.node[8].core_layer 	interests[8] 	33105
scalar tree_4_3_u07_r6_network.node[8].core_layer 	data[8] 	33102
scalar tree_4_3_u07_r6_network.node[8].content_store 	p_hit[8] 	0
scalar tree_4_3_u07_r6_network.node[8].content_store 	hits[8] 	0
scalar tree_4_3_u07_r6_network.node[8].content_store 	misses[8] 	33105
scalar tree_4_3_u07_r6_network.node[8].content_store 	decision_yes[8] 	0
scalar tree_4_3_u07_r6_network.node[8].content_store 	decision_no[8] 	33099
scalar tree_4_3_u07_r6_network.node[8].content_store 	decision_ratio[8] 	0
scalar tree_4_3_u07_r6_network.node[9].core_layer 	interests[9] 	22968
scalar tree_4_3_u07_r6_network.node[9].core_layer 	data[9] 	22968
scalar tree_4_3_u07_r6_network.node[9].content_store 	p_hit[9] 	0
scalar tree_4_3_u07_r6_network.node[9].content_store 	hits[9] 	0
scalar tree_4_3_u07_r6_network.node[9].content_store 	misses[9] 	22968
scalar tree_4_3_u07_r6_network.node[9].content_store 	decision_yes[9] 	0
scalar tree_4_3_u07_r6_network.node[9].content_store 	decision_no[9] 	22966
scalar tree_4_3_u07_r6_network.node[9].content_store 	decision_ratio[9] 	0
scalar tree_4_3_u07_r6_network.node[10].core_layer 	interests[10] 	42506
scalar tree_4_3_u07_r6_network.node[10].core_layer 	data[10] 	42505
scalar tree_4_3_u07_r6_network.node[10].content_store 	p_hit[10] 	0
scalar tree_4_3_u07_r6_network.node[10].content_store 	hits[10] 	0
scalar tree_4_3_u07_r6_network.node[10].content_store 	misses[10] 	42506
scalar tree_4_3_u07_r6_network.node[10].content_store 	decision_yes[10] 	0
scalar tree_4_3_u07_r6_network.node[10].content_store 	decision_no[10] 	42501
scalar tree_4_3_u07_r6_network.node[10].content_store 	decision_ratio[10] 	0
scalar tree_4_3_u07_r6_network.node[11].core_layer 	interests[11] 	44782
scalar tree_4_3_u07_r6_network.node[11].core_layer 	data[11] 	44781
scalar tree_4_3_u07_r6_network.node[11].content_store 	p_hit[11] 	0
scalar tree_4_3_u07_r6_network.node[11].content_store 	hits[11] 	0
scalar tree_4_3_u07_r6_network.node[11].content_store 	misses[11] 	44782
scalar tree_4_3_u07_r6_network.node[11].content_store 	decision_yes[11] 	0
scalar tree_4_3_u07_r6_network.node[11].content_store 	decision_no[11] 	44775
scalar tree_4_3_u07_r6_network.node[11].content_store 	decision_ratio[11] 	0
scalar tree_4_3_u07_r6_network.node[12].core_layer 	interests[12] 	13552
scalar tree_4_3_u07_r6_network.node[12].core_layer 	data[12] 	13551
scalar tree_4_3_u07_r6_network.node[12].content_store 	p_hit[12] 	0
scalar tree_4_3_u07_r6_network.node[12].content_store 	hits[12] 	0
scalar tree_4_3_u07_r6_network.node[12].content_store 	misses[12] 	13552
scalar tree_4_3_u07_r6_network.node[12].content_store 	decision_yes[12] 	0
scalar tree_4_3_u07_r6_network.node[12].content_store 	decision_no[12] 	13550
scalar tree_4_3_u07_r6_network.node[12].content_store 	decision_ratio[12] 	0
scalar tree_4_3_u07_r6_network.node[13].core_layer 	interests[13] 	13716
scalar tree_4_3_u07_r6_network.node[13].core_layer 	data[13] 	10029
scalar tree_4_3_u07_r6_network.node[13].content_store 	p_hit[13] 	0.26873724117819
scalar tree_4_3_u07_r6_network.node[13].content_store 	hits[13] 	3686
scalar tree_4_3_u07_r6_network.node[13].content_store 	misses[13] 	10030
scalar tree_4_3_u07_r6_network.node[13].content_store 	decision_yes[13] 	10029
scalar tree_4_3_u07_r6_network.node[13].content_store 	decision_no[13] 	0
scalar tree_4_3_u07_r6_network.node[13].content_store 	decision_ratio[13] 	1
scalar tree_4_3_u07_r6_network.node[14].core_layer 	interests[14] 	14270
scalar tree_4_3_u07_r6_network.node[14].core_layer 	data[14] 	9979
scalar tree_4_3_u07_r6_network.node[14].content_store 	p_hit[14] 	0.30056061667835
scalar tree_4_3_u07_r6_network.node[14].content_store 	hits[14] 	4289
scalar tree_4_3_u07_r6_network.node[14].content_store 	misses[14] 	9981
scalar tree_4_3_u07_r6_network.node[14].content_store 	decision_yes[14] 	9979
scalar tree_4_3_u07_r6_network.node[14].content_store 	decision_no[14] 	0
scalar tree_4_3_u07_r6_network.node[14].content_store 	decision_ratio[14] 	1
scalar tree_4_3_u07_r6_network.node[15].core_layer 	interests[15] 	14625
scalar tree_4_3_u07_r6_network.node[15].core_layer 	data[15] 	9768
scalar tree_4_3_u07_r6_network.node[15].content_store 	p_hit[15] 	0.33210256410256
scalar tree_4_3_u07_r6_network.node[15].content_store 	hits[15] 	4857
scalar tree_4_3_u07_r6_network.node[15].content_store 	misses[15] 	9768
scalar tree_4_3_u07_r6_network.node[15].content_store 	decision_yes[15] 	9768
scalar tree_4_3_u07_r6_network.node[15].content_store 	decision_no[15] 	0
scalar tree_4_3_u07_r6_network.node[15].content_store 	decision_ratio[15] 	1
scalar tree_4_3_u07_r6_network.node[16].core_layer 	interests[16] 	14570
scalar tree_4_3_u07_r6_network.node[16].core_layer 	data[16] 	10054
scalar tree_4_3_u07_r6_network.node[16].content_store 	p_hit[16] 	0.3098833218943
scalar tree_4_3_u07_r6_network.node[16].content_store 	hits[16] 	4515
scalar tree_4_3_u07_r6_network.node[16].content_store 	misses[16] 	10055
scalar tree_4_3_u07_r6_network.node[16].content_store 	decision_yes[16] 	10054
scalar tree_4_3_u07_r6_network.node[16].content_store 	decision_no[16] 	0
scalar tree_4_3_u07_r6_network.node[16].content_store 	decision_ratio[16] 	1
scalar tree_4_3_u07_r6_network.node[17].core_layer 	interests[17] 	13512
scalar tree_4_3_u07_r6_network.node[17].core_layer 	data[17] 	9959
scalar tree_4_3_u07_r6_network.node[17].content_store 	p_hit[17] 	0.26295145056246
scalar tree_4_3_u07_r6_network.node[17].content_store 	hits[17] 	3553
scalar tree_4_3_u07_r6_network.node[17].content_store 	misses[17] 	9959
scalar tree_4_3_u07_r6_network.node[17].content_store 	decision_yes[17] 	9959
scalar tree_4_3_u07_r6_network.node[17].content_store 	decision_no[17] 	0
scalar tree_4_3_u07_r6_network.node[17].content_store 	decision_ratio[17] 	1
scalar tree_4_3_u07_r6_network.node[18].core_layer 	interests[18] 	14722
scalar tree_4_3_u07_r6_network.node[18].core_layer 	data[18] 	9978
scalar tree_4_3_u07_r6_network.node[18].content_store 	p_hit[18] 	0.32217090069284
scalar tree_4_3_u07_r6_network.node[18].content_store 	hits[18] 	4743
scalar tree_4_3_u07_r6_network.node[18].content_store 	misses[18] 	9979
scalar tree_4_3_u07_r6_network.node[18].content_store 	decision_yes[18] 	9978
scalar tree_4_3_u07_r6_network.node[18].content_store 	decision_no[18] 	0
scalar tree_4_3_u07_r6_network.node[18].content_store 	decision_ratio[18] 	1
scalar tree_4_3_u07_r6_network.node[19].core_layer 	interests[19] 	14723
scalar tree_4_3_u07_r6_network.node[19].core_layer 	data[19] 	9953
scalar tree_4_3_u07_r6_network.node[19].content_store 	p_hit[19] 	0.32391496298309
scalar tree_4_3_u07_r6_network.node[19].content_store 	hits[19] 	4769
scalar tree_4_3_u07_r6_network.node[19].content_store 	misses[19] 	9954
scalar tree_4_3_u07_r6_network.node[19].content_store 	decision_yes[19] 	9953
scalar tree_4_3_u07_r6_network.node[19].content_store 	decision_no[19] 	0
scalar tree_4_3_u07_r6_network.node[19].content_store 	decision_ratio[19] 	1
scalar tree_4_3_u07_r6_network.node[20].core_layer 	interests[20] 	13942
scalar tree_4_3_u07_r6_network.node[20].core_layer 	data[20] 	10084
scalar tree_4_3_u07_r6_network.node[20].content_store 	p_hit[20] 	0.2767178310142
scalar tree_4_3_u07_r6_network.node[20].content_store 	hits[20] 	3858
scalar tree_4_3_u07_r6_network.node[20].content_store 	misses[20] 	10084
scalar tree_4_3_u07_r6_network.node[20].content_store 	decision_yes[20] 	10084
scalar tree_4_3_u07_r6_network.node[20].content_store 	decision_no[20] 	0
scalar tree_4_3_u07_r6_network.node[20].content_store 	decision_ratio[20] 	1
scalar tree_4_3_u07_r6_network.node[21].core_layer 	interests[21] 	13797
scalar tree_4_3_u07_r6_network.node[21].core_layer 	data[21] 	10101
scalar tree_4_3_u07_r6_network.node[21].content_store 	p_hit[21] 	0.26795680220338
scalar tree_4_3_u07_r6_network.node[21].content_store 	hits[21] 	3697
scalar tree_4_3_u07_r6_network.node[21].content_store 	misses[21] 	10100
scalar tree_4_3_u07_r6_network.node[21].content_store 	decision_yes[21] 	10101
scalar tree_4_3_u07_r6_network.node[21].content_store 	decision_no[21] 	0
scalar tree_4_3_u07_r6_network.node[21].content_store 	decision_ratio[21] 	1
scalar tree_4_3_u07_r6_network.node[22].core_layer 	interests[22] 	14663
scalar tree_4_3_u07_r6_network.node[22].core_layer 	data[22] 	10073
scalar tree_4_3_u07_r6_network.node[22].content_store 	p_hit[22] 	0.31303280365546
scalar tree_4_3_u07_r6_network.node[22].content_store 	hits[22] 	4590
scalar tree_4_3_u07_r6_network.node[22].content_store 	misses[22] 	10073
scalar tree_4_3_u07_r6_network.node[22].content_store 	decision_yes[22] 	10073
scalar tree_4_3_u07_r6_network.node[22].content_store 	decision_no[22] 	0
scalar tree_4_3_u07_r6_network.node[22].content_store 	decision_ratio[22] 	1
scalar tree_4_3_u07_r6_network.node[23].core_layer 	interests[23] 	15795
scalar tree_4_3_u07_r6_network.node[23].core_layer 	data[23] 	10065
scalar tree_4_3_u07_r6_network.node[23].content_store 	p_hit[23] 	0.36283634061412
scalar tree_4_3_u07_r6_network.node[23].content_store 	hits[23] 	5731
scalar tree_4_3_u07_r6_network.node[23].content_store 	misses[23] 	10064
scalar tree_4_3_u07_r6_network.node[23].content_store 	decision_yes[23] 	10065
scalar tree_4_3_u07_r6_network.node[23].content_store 	decision_no[23] 	0
scalar tree_4_3_u07_r6_network.node[23].content_store 	decision_ratio[23] 	1
scalar tree_4_3_u07_r6_network.node[24].core_layer 	interests[24] 	15752
scalar tree_4_3_u07_r6_network.node[24].core_layer 	data[24] 	9805
scalar tree_4_3_u07_r6_network.node[24].content_store 	p_hit[24] 	0.37747587607923
scalar tree_4_3_u07_r6_network.node[24].content_store 	hits[24] 	5946
scalar tree_4_3_u07_r6_network.node[24].content_store 	misses[24] 	9806
scalar tree_4_3_u07_r6_network.node[24].content_store 	decision_yes[24] 	9805
scalar tree_4_3_u07_r6_network.node[24].content_store 	decision_no[24] 	0
scalar tree_4_3_u07_r6_network.node[24].content_store 	decision_ratio[24] 	1
scalar tree_4_3_u07_r6_network.node[25].core_layer 	interests[25] 	15742
scalar tree_4_3_u07_r6_network.node[25].core_layer 	data[25] 	10009
scalar tree_4_3_u07_r6_network.node[25].content_store 	p_hit[25] 	0.36412145851861
scalar tree_4_3_u07_r6_network.node[25].content_store 	hits[25] 	5732
scalar tree_4_3_u07_r6_network.node[25].content_store 	misses[25] 	10010
scalar tree_4_3_u07_r6_network.node[25].content_store 	decision_yes[25] 	10009
scalar tree_4_3_u07_r6_network.node[25].content_store 	decision_no[25] 	0
scalar tree_4_3_u07_r6_network.node[25].content_store 	decision_ratio[25] 	1
scalar tree_4_3_u07_r6_network.node[26].core_layer 	interests[26] 	14003
scalar tree_4_3_u07_r6_network.node[26].core_layer 	data[26] 	10177
scalar tree_4_3_u07_r6_network.node[26].content_store 	p_hit[26] 	0.27301292580161
scalar tree_4_3_u07_r6_network.node[26].content_store 	hits[26] 	3823
scalar tree_4_3_u07_r6_network.node[26].content_store 	misses[26] 	10180
scalar tree_4_3_u07_r6_network.node[26].content_store 	decision_yes[26] 	10177
scalar tree_4_3_u07_r6_network.node[26].content_store 	decision_no[26] 	0
scalar tree_4_3_u07_r6_network.node[26].content_store 	decision_ratio[26] 	1
scalar tree_4_3_u07_r6_network.node[27].core_layer 	interests[27] 	13878
scalar tree_4_3_u07_r6_network.node[27].core_layer 	data[27] 	10213
scalar tree_4_3_u07_r6_network.node[27].content_store 	p_hit[27] 	0.26394293125811
scalar tree_4_3_u07_r6_network.node[27].content_store 	hits[27] 	3663
scalar tree_4_3_u07_r6_network.node[27].content_store 	misses[27] 	10215
scalar tree_4_3_u07_r6_network.node[27].content_store 	decision_yes[27] 	10213
scalar tree_4_3_u07_r6_network.node[27].content_store 	decision_no[27] 	0
scalar tree_4_3_u07_r6_network.node[27].content_store 	decision_ratio[27] 	1
scalar tree_4_3_u07_r6_network.node[28].core_layer 	interests[28] 	13615
scalar tree_4_3_u07_r6_network.node[28].core_layer 	data[28] 	10196
scalar tree_4_3_u07_r6_network.node[28].content_store 	p_hit[28] 	0.25119353654058
scalar tree_4_3_u07_r6_network.node[28].content_store 	hits[28] 	3420
scalar tree_4_3_u07_r6_network.node[28].content_store 	misses[28] 	10195
scalar tree_4_3_u07_r6_network.node[28].content_store 	decision_yes[28] 	10196
scalar tree_4_3_u07_r6_network.node[28].content_store 	decision_no[28] 	0
scalar tree_4_3_u07_r6_network.node[28].content_store 	decision_ratio[28] 	1
scalar tree_4_3_u07_r6_network.node[29].core_layer 	interests[29] 	14836
scalar tree_4_3_u07_r6_network.node[29].core_layer 	data[29] 	9947
scalar tree_4_3_u07_r6_network.node[29].content_store 	p_hit[29] 	0.3295362631437
scalar tree_4_3_u07_r6_network.node[29].content_store 	hits[29] 	4889
scalar tree_4_3_u07_r6_network.node[29].content_store 	misses[29] 	9947
scalar tree_4_3_u07_r6_network.node[29].content_store 	decision_yes[29] 	9947
scalar tree_4_3_u07_r6_network.node[29].content_store 	decision_no[29] 	0
scalar tree_4_3_u07_r6_network.node[29].content_store 	decision_ratio[29] 	1
scalar tree_4_3_u07_r6_network.node[30].core_layer 	interests[30] 	13465
scalar tree_4_3_u07_r6_network.node[30].core_layer 	data[30] 	9905
scalar tree_4_3_u07_r6_network.node[30].content_store 	p_hit[30] 	0.2643891570739
scalar tree_4_3_u07_r6_network.node[30].content_store 	hits[30] 	3560
scalar tree_4_3_u07_r6_network.node[30].content_store 	misses[30] 	9905
scalar tree_4_3_u07_r6_network.node[30].content_store 	decision_yes[30] 	9905
scalar tree_4_3_u07_r6_network.node[30].content_store 	decision_no[30] 	0
scalar tree_4_3_u07_r6_network.node[30].content_store 	decision_ratio[30] 	1
scalar tree_4_3_u07_r6_network.node[31].core_layer 	interests[31] 	14537
scalar tree_4_3_u07_r6_network.node[31].core_layer 	data[31] 	10194
scalar tree_4_3_u07_r6_network.node[31].content_store 	p_hit[31] 	0.29868611130219
scalar tree_4_3_u07_r6_network.node[31].content_store 	hits[31] 	4342
scalar tree_4_3_u07_r6_network.node[31].content_store 	misses[31] 	10195
scalar tree_4_3_u07_r6_network.node[31].content_store 	decision_yes[31] 	10194
scalar tree_4_3_u07_r6_network.node[31].content_store 	decision_no[31] 	0
scalar tree_4_3_u07_r6_network.node[31].content_store 	decision_ratio[31] 	1
scalar tree_4_3_u07_r6_network.node[32].core_layer 	interests[32] 	16145
scalar tree_4_3_u07_r6_network.node[32].core_layer 	data[32] 	9923
scalar tree_4_3_u07_r6_network.node[32].content_store 	p_hit[32] 	0.38538247135336
scalar tree_4_3_u07_r6_network.node[32].content_store 	hits[32] 	6222
scalar tree_4_3_u07_r6_network.node[32].content_store 	misses[32] 	9923
scalar tree_4_3_u07_r6_network.node[32].content_store 	decision_yes[32] 	9923
scalar tree_4_3_u07_r6_network.node[32].content_store 	decision_no[32] 	0
scalar tree_4_3_u07_r6_network.node[32].content_store 	decision_ratio[32] 	1
scalar tree_4_3_u07_r6_network.node[33].core_layer 	interests[33] 	14980
scalar tree_4_3_u07_r6_network.node[33].core_layer 	data[33] 	9948
scalar tree_4_3_u07_r6_network.node[33].content_store 	p_hit[33] 	0.33591455273698
scalar tree_4_3_u07_r6_network.node[33].content_store 	hits[33] 	5032
scalar tree_4_3_u07_r6_network.node[33].content_store 	misses[33] 	9948
scalar tree_4_3_u07_r6_network.node[33].content_store 	decision_yes[33] 	9948
scalar tree_4_3_u07_r6_network.node[33].content_store 	decision_no[33] 	0
scalar tree_4_3_u07_r6_network.node[33].content_store 	decision_ratio[33] 	1
scalar tree_4_3_u07_r6_network.node[34].core_layer 	interests[34] 	14174
scalar tree_4_3_u07_r6_network.node[34].core_layer 	data[34] 	9985
scalar tree_4_3_u07_r6_network.node[34].content_store 	p_hit[34] 	0.2955411316495
scalar tree_4_3_u07_r6_network.node[34].content_store 	hits[34] 	4189
scalar tree_4_3_u07_r6_network.node[34].content_store 	misses[34] 	9985
scalar tree_4_3_u07_r6_network.node[34].content_store 	decision_yes[34] 	9985
scalar tree_4_3_u07_r6_network.node[34].content_store 	decision_no[34] 	0
scalar tree_4_3_u07_r6_network.node[34].content_store 	decision_ratio[34] 	1
scalar tree_4_3_u07_r6_network.node[35].core_layer 	interests[35] 	14320
scalar tree_4_3_u07_r6_network.node[35].core_layer 	data[35] 	10194
scalar tree_4_3_u07_r6_network.node[35].content_store 	p_hit[35] 	0.28812849162011
scalar tree_4_3_u07_r6_network.node[35].content_store 	hits[35] 	4126
scalar tree_4_3_u07_r6_network.node[35].content_store 	misses[35] 	10194
scalar tree_4_3_u07_r6_network.node[35].content_store 	decision_yes[35] 	10194
scalar tree_4_3_u07_r6_network.node[35].content_store 	decision_no[35] 	0
scalar tree_4_3_u07_r6_network.node[35].content_store 	decision_ratio[35] 	1
scalar tree_4_3_u07_r6_network.node[36].core_layer 	interests[36] 	15228
scalar tree_4_3_u07_r6_network.node[36].core_layer 	data[36] 	10147
scalar tree_4_3_u07_r6_network.node[36].content_store 	p_hit[36] 	0.33359600735487
scalar tree_4_3_u07_r6_network.node[36].content_store 	hits[36] 	5080
scalar tree_4_3_u07_r6_network.node[36].content_store 	misses[36] 	10148
scalar tree_4_3_u07_r6_network.node[36].content_store 	decision_yes[36] 	10147
scalar tree_4_3_u07_r6_network.node[36].content_store 	decision_no[36] 	0
scalar tree_4_3_u07_r6_network.node[36].content_store 	decision_ratio[36] 	1
scalar tree_4_3_u07_r6_network.node[37].core_layer 	interests[37] 	15154
scalar tree_4_3_u07_r6_network.node[37].core_layer 	data[37] 	10119
scalar tree_4_3_u07_r6_network.node[37].content_store 	p_hit[37] 	0.33218952091857
scalar tree_4_3_u07_r6_network.node[37].content_store 	hits[37] 	5034
scalar tree_4_3_u07_r6_network.node[37].content_store 	misses[37] 	10120
scalar tree_4_3_u07_r6_network.node[37].content_store 	decision_yes[37] 	10119
scalar tree_4_3_u07_r6_network.node[37].content_store 	decision_no[37] 	0
scalar tree_4_3_u07_r6_network.node[37].content_store 	decision_ratio[37] 	1
scalar tree_4_3_u07_r6_network.node[38].core_layer 	interests[38] 	14871
scalar tree_4_3_u07_r6_network.node[38].core_layer 	data[38] 	9937
scalar tree_4_3_u07_r6_network.node[38].content_store 	p_hit[38] 	0.33178669894425
scalar tree_4_3_u07_r6_network.node[38].content_store 	hits[38] 	4934
scalar tree_4_3_u07_r6_network.node[38].content_store 	misses[38] 	9937
scalar tree_4_3_u07_r6_network.node[38].content_store 	decision_yes[38] 	9937
scalar tree_4_3_u07_r6_network.node[38].content_store 	decision_no[38] 	0
scalar tree_4_3_u07_r6_network.node[38].content_store 	decision_ratio[38] 	1
scalar tree_4_3_u07_r6_network.node[39].core_layer 	interests[39] 	13337
scalar tree_4_3_u07_r6_network.node[39].core_layer 	data[39] 	10186
scalar tree_4_3_u07_r6_network.node[39].content_store 	p_hit[39] 	0.23626002849216
scalar tree_4_3_u07_r6_network.node[39].content_store 	hits[39] 	3151
scalar tree_4_3_u07_r6_network.node[39].content_store 	misses[39] 	10186
scalar tree_4_3_u07_r6_network.node[39].content_store 	decision_yes[39] 	10186
scalar tree_4_3_u07_r6_network.node[39].content_store 	decision_no[39] 	0
scalar tree_4_3_u07_r6_network.node[39].content_store 	decision_ratio[39] 	1
scalar tree_4_3_u07_r6_network.client[13] 	hdistance[13] 	3.1487603305785
scalar tree_4_3_u07_r6_network.client[13] 	downloads[13] 	11858
scalar tree_4_3_u07_r6_network.client[13] 	avg_time[13] 	0.005020735336
scalar tree_4_3_u07_r6_network.client[14] 	hdistance[14] 	3.0868795820342
scalar tree_4_3_u07_r6_network.client[14] 	downloads[14] 	11867
scalar tree_4_3_u07_r6_network.client[14] 	avg_time[14] 	0.004903467274
scalar tree_4_3_u07_r6_network.client[15] 	hdistance[15] 	3.0085829686974
scalar tree_4_3_u07_r6_network.client[15] 	downloads[15] 	11884
scalar tree_4_3_u07_r6_network.client[15] 	avg_time[15] 	0.004777849616
scalar tree_4_3_u07_r6_network.client[16] 	hdistance[16] 	3.0704342061651
scalar tree_4_3_u07_r6_network.client[16] 	downloads[16] 	12068
scalar tree_4_3_u07_r6_network.client[16] 	avg_time[16] 	0.004879206798
scalar tree_4_3_u07_r6_network.client[17] 	hdistance[17] 	3.1620092866188
scalar tree_4_3_u07_r6_network.client[17] 	downloads[17] 	11845
scalar tree_4_3_u07_r6_network.client[17] 	avg_time[17] 	0.005060866606
scalar tree_4_3_u07_r6_network.client[18] 	hdistance[18] 	3.0545576071518
scalar tree_4_3_u07_r6_network.client[18] 	downloads[18] 	11969
scalar tree_4_3_u07_r6_network.client[18] 	avg_time[18] 	0.004842837531
scalar tree_4_3_u07_r6_network.client[19] 	hdistance[19] 	3.0548175550698
scalar tree_4_3_u07_r6_network.client[19] 	downloads[19] 	11894
scalar tree_4_3_u07_r6_network.client[19] 	avg_time[19] 	0.004842162957
scalar tree_4_3_u07_r6_network.client[20] 	hdistance[20] 	3.1186019546132
scalar tree_4_3_u07_r6_network.client[20] 	downloads[20] 	12074
scalar tree_4_3_u07_r6_network.client[20] 	avg_time[20] 	0.004974344671
scalar tree_4_3_u07_r6_network.client[21] 	hdistance[21] 	3.1515151515152
scalar tree_4_3_u07_r6_network.client[21] 	downloads[21] 	11946
scalar tree_4_3_u07_r6_network.client[21] 	avg_time[21] 	0.005036173374
scalar tree_4_3_u07_r6_network.client[22] 	hdistance[22] 	3.1511666666667
scalar tree_4_3_u07_r6_network.client[22] 	downloads[22] 	12000
scalar tree_4_3_u07_r6_network.client[22] 	avg_time[22] 	0.005101816128
scalar tree_4_3_u07_r6_network.client[23] 	hdistance[23] 	3.0725457570715
scalar tree_4_3_u07_r6_network.client[23] 	downloads[23] 	12020
scalar tree_4_3_u07_r6_network.client[23] 	avg_time[23] 	0.004940263227
scalar tree_4_3_u07_r6_network.client[24] 	hdistance[24] 	3.0378360158422
scalar tree_4_3_u07_r6_network.client[24] 	downloads[24] 	11867
scalar tree_4_3_u07_r6_network.client[24] 	avg_time[24] 	0.004896241808
scalar tree_4_3_u07_r6_network.client[25] 	hdistance[25] 	3.0582362728785
scalar tree_4_3_u07_r6_network.client[25] 	downloads[25] 	12020
scalar tree_4_3_u07_r6_network.client[25] 	avg_time[25] 	0.004919374488
scalar tree_4_3_u07_r6_network.client[26] 	hdistance[26] 	3.1022345911435
scalar tree_4_3_u07_r6_network.client[26] 	downloads[26] 	12217
scalar tree_4_3_u07_r6_network.client[26] 	avg_time[26] 	0.004919837091
scalar tree_4_3_u07_r6_network.client[27] 	hdistance[27] 	3.1424079437319
scalar tree_4_3_u07_r6_network.client[27] 	downloads[27] 	12085
scalar tree_4_3_u07_r6_network.client[27] 	avg_time[27] 	0.004986739774
scalar tree_4_3_u07_r6_network.client[28] 	hdistance[28] 	3.1670522141441
scalar tree_4_3_u07_r6_network.client[28] 	downloads[28] 	12104
scalar tree_4_3_u07_r6_network.client[28] 	avg_time[28] 	0.00505202938
scalar tree_4_3_u07_r6_network.client[29] 	hdistance[29] 	3.0128385653939
scalar tree_4_3_u07_r6_network.client[29] 	downloads[29] 	12073
scalar tree_4_3_u07_r6_network.client[29] 	avg_time[29] 	0.004747536096
scalar tree_4_3_u07_r6_network.client[30] 	hdistance[30] 	3.123586091328
scalar tree_4_3_u07_r6_network.client[30] 	downloads[30] 	11935
scalar tree_4_3_u07_r6_network.client[30] 	avg_time[30] 	0.00496657823
scalar tree_4_3_u07_r6_network.client[31] 	hdistance[31] 	3.1368524751662
scalar tree_4_3_u07_r6_network.client[31] 	downloads[31] 	12181
scalar tree_4_3_u07_r6_network.client[31] 	avg_time[31] 	0.00507288103
scalar tree_4_3_u07_r6_network.client[32] 	hdistance[32] 	3.0289964067853
scalar tree_4_3_u07_r6_network.client[32] 	downloads[32] 	11967
scalar tree_4_3_u07_r6_network.client[32] 	avg_time[32] 	0.004878496125
scalar tree_4_3_u07_r6_network.client[33] 	hdistance[33] 	3.0542193916031
scalar tree_4_3_u07_r6_network.client[33] 	downloads[33] 	11933
scalar tree_4_3_u07_r6_network.client[33] 	avg_time[33] 	0.004894192875
scalar tree_4_3_u07_r6_network.client[34] 	hdistance[34] 	3.0928161158745
scalar tree_4_3_u07_r6_network.client[34] 	downloads[34] 	12013
scalar tree_4_3_u07_r6_network.client[34] 	avg_time[34] 	0.004937481375
scalar tree_4_3_u07_r6_network.client[35] 	hdistance[35] 	3.1275543836519
scalar tree_4_3_u07_r6_network.client[35] 	downloads[35] 	12136
scalar tree_4_3_u07_r6_network.client[35] 	avg_time[35] 	0.004998843351
scalar tree_4_3_u07_r6_network.client[36] 	hdistance[36] 	3.0472595996062
scalar tree_4_3_u07_r6_network.client[36] 	downloads[36] 	12188
scalar tree_4_3_u07_r6_network.client[36] 	avg_time[36] 	0.004835158796
scalar tree_4_3_u07_r6_network.client[37] 	hdistance[37] 	3.0590849242923
scalar tree_4_3_u07_r6_network.client[37] 	downloads[37] 	12152
scalar tree_4_3_u07_r6_network.client[37] 	avg_time[37] 	0.004903180776
scalar tree_4_3_u07_r6_network.client[38] 	hdistance[38] 	3.0573860284823
scalar tree_4_3_u07_r6_network.client[38] 	downloads[38] 	11867
scalar tree_4_3_u07_r6_network.client[38] 	avg_time[38] 	0.0048563213
scalar tree_4_3_u07_r6_network.client[39] 	hdistance[39] 	3.1327814569536
scalar tree_4_3_u07_r6_network.client[39] 	downloads[39] 	12080
scalar tree_4_3_u07_r6_network.client[39] 	avg_time[39] 	0.004904467179
