version 2
run General-148-20160818-20:06:15-19481
attr a 0.9
attr cd lce
attr configname General
attr cr lru
attr datetime 20160818-20:06:15
attr experiment General
attr fsize 1
attr inifile hw5115/scenario_A/EdgeCoop.ini
attr iterationvars "$name=tree_4_3, $un=07, $rep=9, $scenario=Edge, $cd=lce, $cr=lru, $fsize=1, $a=0.9, $sl=nrr, $ttl=1000, $variance=0.05"
attr iterationvars2 "$name=tree_4_3, $un=07, $rep=9, $scenario=Edge, $cd=lce, $cr=lru, $fsize=1, $a=0.9, $sl=nrr, $ttl=1000, $variance=0.05, $repetition=0"
attr measurement "$name=tree_4_3, $un=07, $rep=9, $scenario=Edge, $cd=lce, $cr=lru, $fsize=1, $a=0.9, $sl=nrr, $ttl=1000, $variance=0.05"
attr name tree_4_3
attr network networks.${name}_u${un}_r${rep}_network
attr processid 19481
attr rep 9
attr repetition 0
attr replication #0
attr resultdir results
attr runnumber 148
attr scenario Edge
attr seedset 9
attr sl nrr
attr ttl 1000
attr un 07
attr variance 0.05

scalar . 	a 	0.9
scalar . 	fsize 	1
scalar . 	rep 	9
scalar . 	ttl 	1000
scalar . 	un 	07
scalar . 	variance 	0.05
scalar tree_4_3_u07_r9_network.content_distribution 	repo-0 	0
scalar tree_4_3_u07_r9_network.content_distribution 	client-0 	13
scalar tree_4_3_u07_r9_network.content_distribution 	client-1 	14
scalar tree_4_3_u07_r9_network.content_distribution 	client-2 	15
scalar tree_4_3_u07_r9_network.content_distribution 	client-3 	16
scalar tree_4_3_u07_r9_network.content_distribution 	client-4 	17
scalar tree_4_3_u07_r9_network.content_distribution 	client-5 	18
scalar tree_4_3_u07_r9_network.content_distribution 	client-6 	19
scalar tree_4_3_u07_r9_network.content_distribution 	client-7 	20
scalar tree_4_3_u07_r9_network.content_distribution 	client-8 	21
scalar tree_4_3_u07_r9_network.content_distribution 	client-9 	22
scalar tree_4_3_u07_r9_network.content_distribution 	client-10 	23
scalar tree_4_3_u07_r9_network.content_distribution 	client-11 	24
scalar tree_4_3_u07_r9_network.content_distribution 	client-12 	25
scalar tree_4_3_u07_r9_network.content_distribution 	client-13 	26
scalar tree_4_3_u07_r9_network.content_distribution 	client-14 	27
scalar tree_4_3_u07_r9_network.content_distribution 	client-15 	28
scalar tree_4_3_u07_r9_network.content_distribution 	client-16 	29
scalar tree_4_3_u07_r9_network.content_distribution 	client-17 	30
scalar tree_4_3_u07_r9_network.content_distribution 	client-18 	31
scalar tree_4_3_u07_r9_network.content_distribution 	client-19 	32
scalar tree_4_3_u07_r9_network.content_distribution 	client-20 	33
scalar tree_4_3_u07_r9_network.content_distribution 	client-21 	34
scalar tree_4_3_u07_r9_network.content_distribution 	client-22 	35
scalar tree_4_3_u07_r9_network.content_distribution 	client-23 	36
scalar tree_4_3_u07_r9_network.content_distribution 	client-24 	37
scalar tree_4_3_u07_r9_network.content_distribution 	client-25 	38
scalar tree_4_3_u07_r9_network.content_distribution 	client-26 	39
scalar tree_4_3_u07_r9_network.content_distribution 	repo-0_card 	100000
scalar tree_4_3_u07_r9_network.content_distribution 	repo-0_price 	0
scalar tree_4_3_u07_r9_network.statistics 	stabilization_time 	273.1
scalar tree_4_3_u07_r9_network.statistics 	p_hit 	0.20796608780927
scalar tree_4_3_u07_r9_network.statistics 	interests 	28166.625
scalar tree_4_3_u07_r9_network.statistics 	data 	20067.225
scalar tree_4_3_u07_r9_network.statistics 	hdistance 	3.1011152655459
scalar tree_4_3_u07_r9_network.statistics 	avg_time 	0.004955379231
scalar tree_4_3_u07_r9_network.statistics 	downloads 	323964
scalar tree_4_3_u07_r9_network.statistics 	total_cost 	0
scalar tree_4_3_u07_r9_network.statistics 	total_replicas 	100000
scalar tree_4_3_u07_r9_network.statistics 	inner_hit 	0.37662209381289
scalar tree_4_3_u07_r9_network.node[0].core_layer 	interests[0] 	201952
scalar tree_4_3_u07_r9_network.node[0].core_layer 	repo_load[0] 	201952
scalar tree_4_3_u07_r9_network.node[0].core_layer 	data[0] 	0
scalar tree_4_3_u07_r9_network.node[0].core_layer 	repo_int[0] 	201952
scalar tree_4_3_u07_r9_network.node[0].content_store 	p_hit[0] 	0
scalar tree_4_3_u07_r9_network.node[0].content_store 	hits[0] 	0
scalar tree_4_3_u07_r9_network.node[0].content_store 	misses[0] 	201952
scalar tree_4_3_u07_r9_network.node[0].content_store 	decision_yes[0] 	0
scalar tree_4_3_u07_r9_network.node[0].content_store 	decision_no[0] 	201952
scalar tree_4_3_u07_r9_network.node[0].content_store 	decision_ratio[0] 	0
scalar tree_4_3_u07_r9_network.node[1].core_layer 	interests[1] 	69098
scalar tree_4_3_u07_r9_network.node[1].core_layer 	data[1] 	69096
scalar tree_4_3_u07_r9_network.node[1].content_store 	p_hit[1] 	0
scalar tree_4_3_u07_r9_network.node[1].content_store 	hits[1] 	0
scalar tree_4_3_u07_r9_network.node[1].content_store 	misses[1] 	69098
scalar tree_4_3_u07_r9_network.node[1].content_store 	decision_yes[1] 	0
scalar tree_4_3_u07_r9_network.node[1].content_store 	decision_no[1] 	69096
scalar tree_4_3_u07_r9_network.node[1].content_store 	decision_ratio[1] 	0
scalar tree_4_3_u07_r9_network.node[2].core_layer 	interests[2] 	75737
scalar tree_4_3_u07_r9_network.node[2].core_layer 	data[2] 	75736
scalar tree_4_3_u07_r9_network.node[2].content_store 	p_hit[2] 	0
scalar tree_4_3_u07_r9_network.node[2].content_store 	hits[2] 	0
scalar tree_4_3_u07_r9_network.node[2].content_store 	misses[2] 	75737
scalar tree_4_3_u07_r9_network.node[2].content_store 	decision_yes[2] 	0
scalar tree_4_3_u07_r9_network.node[2].content_store 	decision_no[2] 	75731
scalar tree_4_3_u07_r9_network.node[2].content_store 	decision_ratio[2] 	0
scalar tree_4_3_u07_r9_network.node[3].core_layer 	interests[3] 	86080
scalar tree_4_3_u07_r9_network.node[3].core_layer 	data[3] 	86071
scalar tree_4_3_u07_r9_network.node[3].content_store 	p_hit[3] 	0
scalar tree_4_3_u07_r9_network.node[3].content_store 	hits[3] 	0
scalar tree_4_3_u07_r9_network.node[3].content_store 	misses[3] 	86080
scalar tree_4_3_u07_r9_network.node[3].content_store 	decision_yes[3] 	0
scalar tree_4_3_u07_r9_network.node[3].content_store 	decision_no[3] 	86064
scalar tree_4_3_u07_r9_network.node[3].content_store 	decision_ratio[3] 	0
scalar tree_4_3_u07_r9_network.node[4].core_layer 	interests[4] 	44853
scalar tree_4_3_u07_r9_network.node[4].core_layer 	data[4] 	44850
scalar tree_4_3_u07_r9_network.node[4].content_store 	p_hit[4] 	0
scalar tree_4_3_u07_r9_network.node[4].content_store 	hits[4] 	0
scalar tree_4_3_u07_r9_network.node[4].content_store 	misses[4] 	44853
scalar tree_4_3_u07_r9_network.node[4].content_store 	decision_yes[4] 	0
scalar tree_4_3_u07_r9_network.node[4].content_store 	decision_no[4] 	44849
scalar tree_4_3_u07_r9_network.node[4].content_store 	decision_ratio[4] 	0
scalar tree_4_3_u07_r9_network.node[5].core_layer 	interests[5] 	24849
scalar tree_4_3_u07_r9_network.node[5].core_layer 	data[5] 	24848
scalar tree_4_3_u07_r9_network.node[5].content_store 	p_hit[5] 	0
scalar tree_4_3_u07_r9_network.node[5].content_store 	hits[5] 	0
scalar tree_4_3_u07_r9_network.node[5].content_store 	misses[5] 	24849
scalar tree_4_3_u07_r9_network.node[5].content_store 	decision_yes[5] 	0
scalar tree_4_3_u07_r9_network.node[5].content_store 	decision_no[5] 	24845
scalar tree_4_3_u07_r9_network.node[5].content_store 	decision_ratio[5] 	0
scalar tree_4_3_u07_r9_network.node[6].core_layer 	interests[6] 	30840
scalar tree_4_3_u07_r9_network.node[6].core_layer 	data[6] 	30838
scalar tree_4_3_u07_r9_network.node[6].content_store 	p_hit[6] 	0
scalar tree_4_3_u07_r9_network.node[6].content_store 	hits[6] 	0
scalar tree_4_3_u07_r9_network.node[6].content_store 	misses[6] 	30840
scalar tree_4_3_u07_r9_network.node[6].content_store 	decision_yes[6] 	0
scalar tree_4_3_u07_r9_network.node[6].content_store 	decision_no[6] 	30835
scalar tree_4_3_u07_r9_network.node[6].content_store 	decision_ratio[6] 	0
scalar tree_4_3_u07_r9_network.node[7].core_layer 	interests[7] 	28941
scalar tree_4_3_u07_r9_network.node[7].core_layer 	data[7] 	28939
scalar tree_4_3_u07_r9_network.node[7].content_store 	p_hit[7] 	0
scalar tree_4_3_u07_r9_network.node[7].content_store 	hits[7] 	0
scalar tree_4_3_u07_r9_network.node[7].content_store 	misses[7] 	28941
scalar tree_4_3_u07_r9_network.node[7].content_store 	decision_yes[7] 	0
scalar tree_4_3_u07_r9_network.node[7].content_store 	decision_no[7] 	28936
scalar tree_4_3_u07_r9_network.node[7].content_store 	decision_ratio[7] 	0
scalar tree_4_3_u07_r9_network.node[8].core_layer 	interests[8] 	40345
scalar tree_4_3_u07_r9_network.node[8].core_layer 	data[8] 	40345
scalar tree_4_3_u07_r9_network.node[8].content_store 	p_hit[8] 	0
scalar tree_4_3_u07_r9_network.node[8].content_store 	hits[8] 	0
scalar tree_4_3_u07_r9_network.node[8].content_store 	misses[8] 	40345
scalar tree_4_3_u07_r9_network.node[8].content_store 	decision_yes[8] 	0
scalar tree_4_3_u07_r9_network.node[8].content_store 	decision_no[8] 	40341
scalar tree_4_3_u07_r9_network.node[8].content_store 	decision_ratio[8] 	0
scalar tree_4_3_u07_r9_network.node[9].core_layer 	interests[9] 	31768
scalar tree_4_3_u07_r9_network.node[9].core_layer 	data[9] 	31765
scalar tree_4_3_u07_r9_network.node[9].content_store 	p_hit[9] 	0
scalar tree_4_3_u07_r9_network.node[9].content_store 	hits[9] 	0
scalar tree_4_3_u07_r9_network.node[9].content_store 	misses[9] 	31768
scalar tree_4_3_u07_r9_network.node[9].content_store 	decision_yes[9] 	0
scalar tree_4_3_u07_r9_network.node[9].content_store 	decision_no[9] 	31759
scalar tree_4_3_u07_r9_network.node[9].content_store 	decision_ratio[9] 	0
scalar tree_4_3_u07_r9_network.node[10].core_layer 	interests[10] 	51948
scalar tree_4_3_u07_r9_network.node[10].core_layer 	data[10] 	51944
scalar tree_4_3_u07_r9_network.node[10].content_store 	p_hit[10] 	0
scalar tree_4_3_u07_r9_network.node[10].content_store 	hits[10] 	0
scalar tree_4_3_u07_r9_network.node[10].content_store 	misses[10] 	51948
scalar tree_4_3_u07_r9_network.node[10].content_store 	decision_yes[10] 	0
scalar tree_4_3_u07_r9_network.node[10].content_store 	decision_no[10] 	51940
scalar tree_4_3_u07_r9_network.node[10].content_store 	decision_ratio[10] 	0
scalar tree_4_3_u07_r9_network.node[11].core_layer 	interests[11] 	33936
scalar tree_4_3_u07_r9_network.node[11].core_layer 	data[11] 	33934
scalar tree_4_3_u07_r9_network.node[11].content_store 	p_hit[11] 	0
scalar tree_4_3_u07_r9_network.node[11].content_store 	hits[11] 	0
scalar tree_4_3_u07_r9_network.node[11].content_store 	misses[11] 	33936
scalar tree_4_3_u07_r9_network.node[11].content_store 	decision_yes[11] 	0
scalar tree_4_3_u07_r9_network.node[11].content_store 	decision_no[11] 	33932
scalar tree_4_3_u07_r9_network.node[11].content_store 	decision_ratio[11] 	0
scalar tree_4_3_u07_r9_network.node[12].core_layer 	interests[12] 	12896
scalar tree_4_3_u07_r9_network.node[12].core_layer 	data[12] 	12896
scalar tree_4_3_u07_r9_network.node[12].content_store 	p_hit[12] 	0
scalar tree_4_3_u07_r9_network.node[12].content_store 	hits[12] 	0
scalar tree_4_3_u07_r9_network.node[12].content_store 	misses[12] 	12896
scalar tree_4_3_u07_r9_network.node[12].content_store 	decision_yes[12] 	0
scalar tree_4_3_u07_r9_network.node[12].content_store 	decision_no[12] 	12894
scalar tree_4_3_u07_r9_network.node[12].content_store 	decision_ratio[12] 	0
scalar tree_4_3_u07_r9_network.node[13].core_layer 	interests[13] 	13281
scalar tree_4_3_u07_r9_network.node[13].core_layer 	data[13] 	10127
scalar tree_4_3_u07_r9_network.node[13].content_store 	p_hit[13] 	0.23748211731044
scalar tree_4_3_u07_r9_network.node[13].content_store 	hits[13] 	3154
scalar tree_4_3_u07_r9_network.node[13].content_store 	misses[13] 	10127
scalar tree_4_3_u07_r9_network.node[13].content_store 	decision_yes[13] 	10127
scalar tree_4_3_u07_r9_network.node[13].content_store 	decision_no[13] 	0
scalar tree_4_3_u07_r9_network.node[13].content_store 	decision_ratio[13] 	1
scalar tree_4_3_u07_r9_network.node[14].core_layer 	interests[14] 	14689
scalar tree_4_3_u07_r9_network.node[14].core_layer 	data[14] 	10026
scalar tree_4_3_u07_r9_network.node[14].content_store 	p_hit[14] 	0.31744843079856
scalar tree_4_3_u07_r9_network.node[14].content_store 	hits[14] 	4663
scalar tree_4_3_u07_r9_network.node[14].content_store 	misses[14] 	10026
scalar tree_4_3_u07_r9_network.node[14].content_store 	decision_yes[14] 	10026
scalar tree_4_3_u07_r9_network.node[14].content_store 	decision_no[14] 	0
scalar tree_4_3_u07_r9_network.node[14].content_store 	decision_ratio[14] 	1
scalar tree_4_3_u07_r9_network.node[15].core_layer 	interests[15] 	15359
scalar tree_4_3_u07_r9_network.node[15].core_layer 	data[15] 	10002
scalar tree_4_3_u07_r9_network.node[15].content_store 	p_hit[15] 	0.34878572823752
scalar tree_4_3_u07_r9_network.node[15].content_store 	hits[15] 	5357
scalar tree_4_3_u07_r9_network.node[15].content_store 	misses[15] 	10002
scalar tree_4_3_u07_r9_network.node[15].content_store 	decision_yes[15] 	10002
scalar tree_4_3_u07_r9_network.node[15].content_store 	decision_no[15] 	0
scalar tree_4_3_u07_r9_network.node[15].content_store 	decision_ratio[15] 	1
scalar tree_4_3_u07_r9_network.node[16].core_layer 	interests[16] 	14560
scalar tree_4_3_u07_r9_network.node[16].core_layer 	data[16] 	9911
scalar tree_4_3_u07_r9_network.node[16].content_store 	p_hit[16] 	0.31916208791209
scalar tree_4_3_u07_r9_network.node[16].content_store 	hits[16] 	4647
scalar tree_4_3_u07_r9_network.node[16].content_store 	misses[16] 	9913
scalar tree_4_3_u07_r9_network.node[16].content_store 	decision_yes[16] 	9911
scalar tree_4_3_u07_r9_network.node[16].content_store 	decision_no[16] 	0
scalar tree_4_3_u07_r9_network.node[16].content_store 	decision_ratio[16] 	1
scalar tree_4_3_u07_r9_network.node[17].core_layer 	interests[17] 	13783
scalar tree_4_3_u07_r9_network.node[17].core_layer 	data[17] 	10112
scalar tree_4_3_u07_r9_network.node[17].content_store 	p_hit[17] 	0.26627004280636
scalar tree_4_3_u07_r9_network.node[17].content_store 	hits[17] 	3670
scalar tree_4_3_u07_r9_network.node[17].content_store 	misses[17] 	10113
scalar tree_4_3_u07_r9_network.node[17].content_store 	decision_yes[17] 	10112
scalar tree_4_3_u07_r9_network.node[17].content_store 	decision_no[17] 	0
scalar tree_4_3_u07_r9_network.node[17].content_store 	decision_ratio[17] 	1
scalar tree_4_3_u07_r9_network.node[18].core_layer 	interests[18] 	16087
scalar tree_4_3_u07_r9_network.node[18].core_layer 	data[18] 	10192
scalar tree_4_3_u07_r9_network.node[18].content_store 	p_hit[18] 	0.36638279356002
scalar tree_4_3_u07_r9_network.node[18].content_store 	hits[18] 	5894
scalar tree_4_3_u07_r9_network.node[18].content_store 	misses[18] 	10193
scalar tree_4_3_u07_r9_network.node[18].content_store 	decision_yes[18] 	10192
scalar tree_4_3_u07_r9_network.node[18].content_store 	decision_no[18] 	0
scalar tree_4_3_u07_r9_network.node[18].content_store 	decision_ratio[18] 	1
scalar tree_4_3_u07_r9_network.node[19].core_layer 	interests[19] 	15060
scalar tree_4_3_u07_r9_network.node[19].core_layer 	data[19] 	9716
scalar tree_4_3_u07_r9_network.node[19].content_store 	p_hit[19] 	0.35471447543161
scalar tree_4_3_u07_r9_network.node[19].content_store 	hits[19] 	5342
scalar tree_4_3_u07_r9_network.node[19].content_store 	misses[19] 	9718
scalar tree_4_3_u07_r9_network.node[19].content_store 	decision_yes[19] 	9716
scalar tree_4_3_u07_r9_network.node[19].content_store 	decision_no[19] 	0
scalar tree_4_3_u07_r9_network.node[19].content_store 	decision_ratio[19] 	1
scalar tree_4_3_u07_r9_network.node[20].core_layer 	interests[20] 	14500
scalar tree_4_3_u07_r9_network.node[20].core_layer 	data[20] 	10062
scalar tree_4_3_u07_r9_network.node[20].content_store 	p_hit[20] 	0.30606896551724
scalar tree_4_3_u07_r9_network.node[20].content_store 	hits[20] 	4438
scalar tree_4_3_u07_r9_network.node[20].content_store 	misses[20] 	10062
scalar tree_4_3_u07_r9_network.node[20].content_store 	decision_yes[20] 	10062
scalar tree_4_3_u07_r9_network.node[20].content_store 	decision_no[20] 	0
scalar tree_4_3_u07_r9_network.node[20].content_store 	decision_ratio[20] 	1
scalar tree_4_3_u07_r9_network.node[21].core_layer 	interests[21] 	14476
scalar tree_4_3_u07_r9_network.node[21].core_layer 	data[21] 	10022
scalar tree_4_3_u07_r9_network.node[21].content_store 	p_hit[21] 	0.30761260016579
scalar tree_4_3_u07_r9_network.node[21].content_store 	hits[21] 	4453
scalar tree_4_3_u07_r9_network.node[21].content_store 	misses[21] 	10023
scalar tree_4_3_u07_r9_network.node[21].content_store 	decision_yes[21] 	10022
scalar tree_4_3_u07_r9_network.node[21].content_store 	decision_no[21] 	0
scalar tree_4_3_u07_r9_network.node[21].content_store 	decision_ratio[21] 	1
scalar tree_4_3_u07_r9_network.node[22].core_layer 	interests[22] 	13110
scalar tree_4_3_u07_r9_network.node[22].core_layer 	data[22] 	9988
scalar tree_4_3_u07_r9_network.node[22].content_store 	p_hit[22] 	0.23806254767353
scalar tree_4_3_u07_r9_network.node[22].content_store 	hits[22] 	3121
scalar tree_4_3_u07_r9_network.node[22].content_store 	misses[22] 	9989
scalar tree_4_3_u07_r9_network.node[22].content_store 	decision_yes[22] 	9988
scalar tree_4_3_u07_r9_network.node[22].content_store 	decision_no[22] 	0
scalar tree_4_3_u07_r9_network.node[22].content_store 	decision_ratio[22] 	1
scalar tree_4_3_u07_r9_network.node[23].core_layer 	interests[23] 	14417
scalar tree_4_3_u07_r9_network.node[23].core_layer 	data[23] 	10050
scalar tree_4_3_u07_r9_network.node[23].content_store 	p_hit[23] 	0.30290629118402
scalar tree_4_3_u07_r9_network.node[23].content_store 	hits[23] 	4367
scalar tree_4_3_u07_r9_network.node[23].content_store 	misses[23] 	10050
scalar tree_4_3_u07_r9_network.node[23].content_store 	decision_yes[23] 	10050
scalar tree_4_3_u07_r9_network.node[23].content_store 	decision_no[23] 	0
scalar tree_4_3_u07_r9_network.node[23].content_store 	decision_ratio[23] 	1
scalar tree_4_3_u07_r9_network.node[24].core_layer 	interests[24] 	15658
scalar tree_4_3_u07_r9_network.node[24].core_layer 	data[24] 	10207
scalar tree_4_3_u07_r9_network.node[24].content_store 	p_hit[24] 	0.34812875207562
scalar tree_4_3_u07_r9_network.node[24].content_store 	hits[24] 	5451
scalar tree_4_3_u07_r9_network.node[24].content_store 	misses[24] 	10207
scalar tree_4_3_u07_r9_network.node[24].content_store 	decision_yes[24] 	10207
scalar tree_4_3_u07_r9_network.node[24].content_store 	decision_no[24] 	0
scalar tree_4_3_u07_r9_network.node[24].content_store 	decision_ratio[24] 	1
scalar tree_4_3_u07_r9_network.node[25].core_layer 	interests[25] 	13670
scalar tree_4_3_u07_r9_network.node[25].core_layer 	data[25] 	10051
scalar tree_4_3_u07_r9_network.node[25].content_store 	p_hit[25] 	0.26481346013168
scalar tree_4_3_u07_r9_network.node[25].content_store 	hits[25] 	3620
scalar tree_4_3_u07_r9_network.node[25].content_store 	misses[25] 	10050
scalar tree_4_3_u07_r9_network.node[25].content_store 	decision_yes[25] 	10051
scalar tree_4_3_u07_r9_network.node[25].content_store 	decision_no[25] 	0
scalar tree_4_3_u07_r9_network.node[25].content_store 	decision_ratio[25] 	1
scalar tree_4_3_u07_r9_network.node[26].core_layer 	interests[26] 	13545
scalar tree_4_3_u07_r9_network.node[26].core_layer 	data[26] 	9976
scalar tree_4_3_u07_r9_network.node[26].content_store 	p_hit[26] 	0.26327057954965
scalar tree_4_3_u07_r9_network.node[26].content_store 	hits[26] 	3566
scalar tree_4_3_u07_r9_network.node[26].content_store 	misses[26] 	9979
scalar tree_4_3_u07_r9_network.node[26].content_store 	decision_yes[26] 	9976
scalar tree_4_3_u07_r9_network.node[26].content_store 	decision_no[26] 	0
scalar tree_4_3_u07_r9_network.node[26].content_store 	decision_ratio[26] 	1
scalar tree_4_3_u07_r9_network.node[27].core_layer 	interests[27] 	15825
scalar tree_4_3_u07_r9_network.node[27].core_layer 	data[27] 	10103
scalar tree_4_3_u07_r9_network.node[27].content_store 	p_hit[27] 	0.36151658767773
scalar tree_4_3_u07_r9_network.node[27].content_store 	hits[27] 	5721
scalar tree_4_3_u07_r9_network.node[27].content_store 	misses[27] 	10104
scalar tree_4_3_u07_r9_network.node[27].content_store 	decision_yes[27] 	10103
scalar tree_4_3_u07_r9_network.node[27].content_store 	decision_no[27] 	0
scalar tree_4_3_u07_r9_network.node[27].content_store 	decision_ratio[27] 	1
scalar tree_4_3_u07_r9_network.node[28].core_layer 	interests[28] 	14854
scalar tree_4_3_u07_r9_network.node[28].core_layer 	data[28] 	9902
scalar tree_4_3_u07_r9_network.node[28].content_store 	p_hit[28] 	0.33331089268884
scalar tree_4_3_u07_r9_network.node[28].content_store 	hits[28] 	4951
scalar tree_4_3_u07_r9_network.node[28].content_store 	misses[28] 	9903
scalar tree_4_3_u07_r9_network.node[28].content_store 	decision_yes[28] 	9902
scalar tree_4_3_u07_r9_network.node[28].content_store 	decision_no[28] 	0
scalar tree_4_3_u07_r9_network.node[28].content_store 	decision_ratio[28] 	1
scalar tree_4_3_u07_r9_network.node[29].core_layer 	interests[29] 	16015
scalar tree_4_3_u07_r9_network.node[29].core_layer 	data[29] 	10077
scalar tree_4_3_u07_r9_network.node[29].content_store 	p_hit[29] 	0.37071495472994
scalar tree_4_3_u07_r9_network.node[29].content_store 	hits[29] 	5937
scalar tree_4_3_u07_r9_network.node[29].content_store 	misses[29] 	10078
scalar tree_4_3_u07_r9_network.node[29].content_store 	decision_yes[29] 	10077
scalar tree_4_3_u07_r9_network.node[29].content_store 	decision_no[29] 	0
scalar tree_4_3_u07_r9_network.node[29].content_store 	decision_ratio[29] 	1
scalar tree_4_3_u07_r9_network.node[30].core_layer 	interests[30] 	14955
scalar tree_4_3_u07_r9_network.node[30].core_layer 	data[30] 	9950
scalar tree_4_3_u07_r9_network.node[30].content_store 	p_hit[30] 	0.33467067870278
scalar tree_4_3_u07_r9_network.node[30].content_store 	hits[30] 	5005
scalar tree_4_3_u07_r9_network.node[30].content_store 	misses[30] 	9950
scalar tree_4_3_u07_r9_network.node[30].content_store 	decision_yes[30] 	9950
scalar tree_4_3_u07_r9_network.node[30].content_store 	decision_no[30] 	0
scalar tree_4_3_u07_r9_network.node[30].content_store 	decision_ratio[30] 	1
scalar tree_4_3_u07_r9_network.node[31].core_layer 	interests[31] 	13932
scalar tree_4_3_u07_r9_network.node[31].core_layer 	data[31] 	10077
scalar tree_4_3_u07_r9_network.node[31].content_store 	p_hit[31] 	0.27662934252082
scalar tree_4_3_u07_r9_network.node[31].content_store 	hits[31] 	3854
scalar tree_4_3_u07_r9_network.node[31].content_store 	misses[31] 	10078
scalar tree_4_3_u07_r9_network.node[31].content_store 	decision_yes[31] 	10077
scalar tree_4_3_u07_r9_network.node[31].content_store 	decision_no[31] 	0
scalar tree_4_3_u07_r9_network.node[31].content_store 	decision_ratio[31] 	1
scalar tree_4_3_u07_r9_network.node[32].core_layer 	interests[32] 	15117
scalar tree_4_3_u07_r9_network.node[32].core_layer 	data[32] 	10241
scalar tree_4_3_u07_r9_network.node[32].content_store 	p_hit[32] 	0.32255077065555
scalar tree_4_3_u07_r9_network.node[32].content_store 	hits[32] 	4876
scalar tree_4_3_u07_r9_network.node[32].content_store 	misses[32] 	10241
scalar tree_4_3_u07_r9_network.node[32].content_store 	decision_yes[32] 	10241
scalar tree_4_3_u07_r9_network.node[32].content_store 	decision_no[32] 	0
scalar tree_4_3_u07_r9_network.node[32].content_store 	decision_ratio[32] 	1
scalar tree_4_3_u07_r9_network.node[33].core_layer 	interests[33] 	14525
scalar tree_4_3_u07_r9_network.node[33].core_layer 	data[33] 	10042
scalar tree_4_3_u07_r9_network.node[33].content_store 	p_hit[33] 	0.3087091222031
scalar tree_4_3_u07_r9_network.node[33].content_store 	hits[33] 	4484
scalar tree_4_3_u07_r9_network.node[33].content_store 	misses[33] 	10041
scalar tree_4_3_u07_r9_network.node[33].content_store 	decision_yes[33] 	10042
scalar tree_4_3_u07_r9_network.node[33].content_store 	decision_no[33] 	0
scalar tree_4_3_u07_r9_network.node[33].content_store 	decision_ratio[33] 	1
scalar tree_4_3_u07_r9_network.node[34].core_layer 	interests[34] 	14773
scalar tree_4_3_u07_r9_network.node[34].core_layer 	data[34] 	10084
scalar tree_4_3_u07_r9_network.node[34].content_store 	p_hit[34] 	0.31740337101469
scalar tree_4_3_u07_r9_network.node[34].content_store 	hits[34] 	4689
scalar tree_4_3_u07_r9_network.node[34].content_store 	misses[34] 	10084
scalar tree_4_3_u07_r9_network.node[34].content_store 	decision_yes[34] 	10084
scalar tree_4_3_u07_r9_network.node[34].content_store 	decision_no[34] 	0
scalar tree_4_3_u07_r9_network.node[34].content_store 	decision_ratio[34] 	1
scalar tree_4_3_u07_r9_network.node[35].core_layer 	interests[35] 	14226
scalar tree_4_3_u07_r9_network.node[35].core_layer 	data[35] 	10349
scalar tree_4_3_u07_r9_network.node[35].content_store 	p_hit[35] 	0.2724588781105
scalar tree_4_3_u07_r9_network.node[35].content_store 	hits[35] 	3876
scalar tree_4_3_u07_r9_network.node[35].content_store 	misses[35] 	10350
scalar tree_4_3_u07_r9_network.node[35].content_store 	decision_yes[35] 	10349
scalar tree_4_3_u07_r9_network.node[35].content_store 	decision_no[35] 	0
scalar tree_4_3_u07_r9_network.node[35].content_store 	decision_ratio[35] 	1
scalar tree_4_3_u07_r9_network.node[36].core_layer 	interests[36] 	14009
scalar tree_4_3_u07_r9_network.node[36].core_layer 	data[36] 	10056
scalar tree_4_3_u07_r9_network.node[36].content_store 	p_hit[36] 	0.2821043614819
scalar tree_4_3_u07_r9_network.node[36].content_store 	hits[36] 	3952
scalar tree_4_3_u07_r9_network.node[36].content_store 	misses[36] 	10057
scalar tree_4_3_u07_r9_network.node[36].content_store 	decision_yes[36] 	10056
scalar tree_4_3_u07_r9_network.node[36].content_store 	decision_no[36] 	0
scalar tree_4_3_u07_r9_network.node[36].content_store 	decision_ratio[36] 	1
scalar tree_4_3_u07_r9_network.node[37].core_layer 	interests[37] 	14331
scalar tree_4_3_u07_r9_network.node[37].core_layer 	data[37] 	9840
scalar tree_4_3_u07_r9_network.node[37].content_store 	p_hit[37] 	0.31344637499128
scalar tree_4_3_u07_r9_network.node[37].content_store 	hits[37] 	4492
scalar tree_4_3_u07_r9_network.node[37].content_store 	misses[37] 	9839
scalar tree_4_3_u07_r9_network.node[37].content_store 	decision_yes[37] 	9840
scalar tree_4_3_u07_r9_network.node[37].content_store 	decision_no[37] 	0
scalar tree_4_3_u07_r9_network.node[37].content_store 	decision_ratio[37] 	1
scalar tree_4_3_u07_r9_network.node[38].core_layer 	interests[38] 	14885
scalar tree_4_3_u07_r9_network.node[38].core_layer 	data[38] 	10127
scalar tree_4_3_u07_r9_network.node[38].content_store 	p_hit[38] 	0.31965065502183
scalar tree_4_3_u07_r9_network.node[38].content_store 	hits[38] 	4758
scalar tree_4_3_u07_r9_network.node[38].content_store 	misses[38] 	10127
scalar tree_4_3_u07_r9_network.node[38].content_store 	decision_yes[38] 	10127
scalar tree_4_3_u07_r9_network.node[38].content_store 	decision_no[38] 	0
scalar tree_4_3_u07_r9_network.node[38].content_store 	decision_ratio[38] 	1
scalar tree_4_3_u07_r9_network.node[39].core_layer 	interests[39] 	13780
scalar tree_4_3_u07_r9_network.node[39].core_layer 	data[39] 	10137
scalar tree_4_3_u07_r9_network.node[39].content_store 	p_hit[39] 	0.26436865021771
scalar tree_4_3_u07_r9_network.node[39].content_store 	hits[39] 	3643
scalar tree_4_3_u07_r9_network.node[39].content_store 	misses[39] 	10137
scalar tree_4_3_u07_r9_network.node[39].content_store 	decision_yes[39] 	10137
scalar tree_4_3_u07_r9_network.node[39].content_store 	decision_no[39] 	0
scalar tree_4_3_u07_r9_network.node[39].content_store 	decision_ratio[39] 	1
scalar tree_4_3_u07_r9_network.client[13] 	hdistance[13] 	3.1439727506854
scalar tree_4_3_u07_r9_network.client[13] 	downloads[13] 	12037
scalar tree_4_3_u07_r9_network.client[13] 	avg_time[13] 	0.004910024426
scalar tree_4_3_u07_r9_network.client[14] 	hdistance[14] 	3.0642613683598
scalar tree_4_3_u07_r9_network.client[14] 	downloads[14] 	12029
scalar tree_4_3_u07_r9_network.client[14] 	avg_time[14] 	0.004875463939
scalar tree_4_3_u07_r9_network.client[15] 	hdistance[15] 	3.0259247027741
scalar tree_4_3_u07_r9_network.client[15] 	downloads[15] 	12112
scalar tree_4_3_u07_r9_network.client[15] 	avg_time[15] 	0.004838499806
scalar tree_4_3_u07_r9_network.client[16] 	hdistance[16] 	3.0722810556396
scalar tree_4_3_u07_r9_network.client[16] 	downloads[16] 	11898
scalar tree_4_3_u07_r9_network.client[16] 	avg_time[16] 	0.004888198553
scalar tree_4_3_u07_r9_network.client[17] 	hdistance[17] 	3.2039700563546
scalar tree_4_3_u07_r9_network.client[17] 	downloads[17] 	11889
scalar tree_4_3_u07_r9_network.client[17] 	avg_time[17] 	0.005130644485
scalar tree_4_3_u07_r9_network.client[18] 	hdistance[18] 	3.0514126149803
scalar tree_4_3_u07_r9_network.client[18] 	downloads[18] 	12176
scalar tree_4_3_u07_r9_network.client[18] 	avg_time[18] 	0.004916685381
scalar tree_4_3_u07_r9_network.client[19] 	hdistance[19] 	3.0291328492097
scalar tree_4_3_u07_r9_network.client[19] 	downloads[19] 	11705
scalar tree_4_3_u07_r9_network.client[19] 	avg_time[19] 	0.004858558878
scalar tree_4_3_u07_r9_network.client[20] 	hdistance[20] 	3.1307840348088
scalar tree_4_3_u07_r9_network.client[20] 	downloads[20] 	11951
scalar tree_4_3_u07_r9_network.client[20] 	avg_time[20] 	0.005053069902
scalar tree_4_3_u07_r9_network.client[21] 	hdistance[21] 	3.1173128342246
scalar tree_4_3_u07_r9_network.client[21] 	downloads[21] 	11968
scalar tree_4_3_u07_r9_network.client[21] 	avg_time[21] 	0.005024374147
scalar tree_4_3_u07_r9_network.client[22] 	hdistance[22] 	3.2100698829671
scalar tree_4_3_u07_r9_network.client[22] 	downloads[22] 	11877
scalar tree_4_3_u07_r9_network.client[22] 	avg_time[22] 	0.005111200142
scalar tree_4_3_u07_r9_network.client[23] 	hdistance[23] 	3.07213414128
scalar tree_4_3_u07_r9_network.client[23] 	downloads[23] 	12047
scalar tree_4_3_u07_r9_network.client[23] 	avg_time[23] 	0.00484344202
scalar tree_4_3_u07_r9_network.client[24] 	hdistance[24] 	3.0734667103969
scalar tree_4_3_u07_r9_network.client[24] 	downloads[24] 	12196
scalar tree_4_3_u07_r9_network.client[24] 	avg_time[24] 	0.004937410491
scalar tree_4_3_u07_r9_network.client[25] 	hdistance[25] 	3.1211995002083
scalar tree_4_3_u07_r9_network.client[25] 	downloads[25] 	12005
scalar tree_4_3_u07_r9_network.client[25] 	avg_time[25] 	0.004933941188
scalar tree_4_3_u07_r9_network.client[26] 	hdistance[26] 	3.1132518009717
scalar tree_4_3_u07_r9_network.client[26] 	downloads[26] 	11938
scalar tree_4_3_u07_r9_network.client[26] 	avg_time[26] 	0.004925954639
scalar tree_4_3_u07_r9_network.client[27] 	hdistance[27] 	3.0637486529056
scalar tree_4_3_u07_r9_network.client[27] 	downloads[27] 	12063
scalar tree_4_3_u07_r9_network.client[27] 	avg_time[27] 	0.004921418394
scalar tree_4_3_u07_r9_network.client[28] 	hdistance[28] 	3.0849508444669
scalar tree_4_3_u07_r9_network.client[28] 	downloads[28] 	11901
scalar tree_4_3_u07_r9_network.client[28] 	avg_time[28] 	0.004993644283
scalar tree_4_3_u07_r9_network.client[29] 	hdistance[29] 	3.0366457576758
scalar tree_4_3_u07_r9_network.client[29] 	downloads[29] 	12116
scalar tree_4_3_u07_r9_network.client[29] 	avg_time[29] 	0.004878895569
scalar tree_4_3_u07_r9_network.client[30] 	hdistance[30] 	3.102731690967
scalar tree_4_3_u07_r9_network.client[30] 	downloads[30] 	11934
scalar tree_4_3_u07_r9_network.client[30] 	avg_time[30] 	0.005014239525
scalar tree_4_3_u07_r9_network.client[31] 	hdistance[31] 	3.1401087411125
scalar tree_4_3_u07_r9_network.client[31] 	downloads[31] 	11955
scalar tree_4_3_u07_r9_network.client[31] 	avg_time[31] 	0.005033338821
scalar tree_4_3_u07_r9_network.client[32] 	hdistance[32] 	3.0591020408163
scalar tree_4_3_u07_r9_network.client[32] 	downloads[32] 	12250
scalar tree_4_3_u07_r9_network.client[32] 	avg_time[32] 	0.004866945976
scalar tree_4_3_u07_r9_network.client[33] 	hdistance[33] 	3.0944058867798
scalar tree_4_3_u07_r9_network.client[33] 	downloads[33] 	11959
scalar tree_4_3_u07_r9_network.client[33] 	avg_time[33] 	0.004932014747
scalar tree_4_3_u07_r9_network.client[34] 	hdistance[34] 	3.0990190324474
scalar tree_4_3_u07_r9_network.client[34] 	downloads[34] 	11927
scalar tree_4_3_u07_r9_network.client[34] 	avg_time[34] 	0.004932547852
scalar tree_4_3_u07_r9_network.client[35] 	hdistance[35] 	3.1632402326153
scalar tree_4_3_u07_r9_network.client[35] 	downloads[35] 	12209
scalar tree_4_3_u07_r9_network.client[35] 	avg_time[35] 	0.005079571726
scalar tree_4_3_u07_r9_network.client[36] 	hdistance[36] 	3.1208406304729
scalar tree_4_3_u07_r9_network.client[36] 	downloads[36] 	11991
scalar tree_4_3_u07_r9_network.client[36] 	avg_time[36] 	0.004994665939
scalar tree_4_3_u07_r9_network.client[37] 	hdistance[37] 	3.0767009258473
scalar tree_4_3_u07_r9_network.client[37] 	downloads[37] 	11773
scalar tree_4_3_u07_r9_network.client[37] 	avg_time[37] 	0.004903080393
scalar tree_4_3_u07_r9_network.client[38] 	hdistance[38] 	3.0884727424053
scalar tree_4_3_u07_r9_network.client[38] 	downloads[38] 	12015
scalar tree_4_3_u07_r9_network.client[38] 	avg_time[38] 	0.004906423814
scalar tree_4_3_u07_r9_network.client[39] 	hdistance[39] 	3.1709706883667
scalar tree_4_3_u07_r9_network.client[39] 	downloads[39] 	12043
scalar tree_4_3_u07_r9_network.client[39] 	avg_time[39] 	0.005090984208
