version 2
run General-88-20160819-08:14:30-13837
attr a 0.9
attr cd fix0.1
attr configname General
attr cr lru
attr datetime 20160819-08:14:30
attr experiment General
attr fsize 1
attr inifile hw5115/scenario_A/NRR-FIX0.1.ini
attr iterationvars "$name=tree_4_3, $un=04, $rep=9, $cd=fix0.1, $cr=lru, $fsize=1, $a=0.9, $sl=nrr, $ttl=1000, $variance=0.05"
attr iterationvars2 "$name=tree_4_3, $un=04, $rep=9, $cd=fix0.1, $cr=lru, $fsize=1, $a=0.9, $sl=nrr, $ttl=1000, $variance=0.05, $repetition=0"
attr measurement "$name=tree_4_3, $un=04, $rep=9, $cd=fix0.1, $cr=lru, $fsize=1, $a=0.9, $sl=nrr, $ttl=1000, $variance=0.05"
attr name tree_4_3
attr network networks.${name}_u${un}_r${rep}_network
attr processid 13837
attr rep 9
attr repetition 0
attr replication #0
attr resultdir results
attr runnumber 88
attr seedset 9
attr sl nrr
attr ttl 1000
attr un 04
attr variance 0.05

scalar . 	a 	0.9
scalar . 	fsize 	1
scalar . 	rep 	9
scalar . 	ttl 	1000
scalar . 	un 	04
scalar . 	variance 	0.05
scalar tree_4_3_u04_r9_network.content_distribution 	repo-0 	0
scalar tree_4_3_u04_r9_network.content_distribution 	client-0 	13
scalar tree_4_3_u04_r9_network.content_distribution 	client-1 	14
scalar tree_4_3_u04_r9_network.content_distribution 	client-2 	15
scalar tree_4_3_u04_r9_network.content_distribution 	client-3 	16
scalar tree_4_3_u04_r9_network.content_distribution 	client-4 	17
scalar tree_4_3_u04_r9_network.content_distribution 	client-5 	18
scalar tree_4_3_u04_r9_network.content_distribution 	client-6 	19
scalar tree_4_3_u04_r9_network.content_distribution 	client-7 	20
scalar tree_4_3_u04_r9_network.content_distribution 	client-8 	21
scalar tree_4_3_u04_r9_network.content_distribution 	client-9 	22
scalar tree_4_3_u04_r9_network.content_distribution 	client-10 	23
scalar tree_4_3_u04_r9_network.content_distribution 	client-11 	24
scalar tree_4_3_u04_r9_network.content_distribution 	client-12 	25
scalar tree_4_3_u04_r9_network.content_distribution 	client-13 	26
scalar tree_4_3_u04_r9_network.content_distribution 	client-14 	27
scalar tree_4_3_u04_r9_network.content_distribution 	client-15 	28
scalar tree_4_3_u04_r9_network.content_distribution 	client-16 	29
scalar tree_4_3_u04_r9_network.content_distribution 	client-17 	30
scalar tree_4_3_u04_r9_network.content_distribution 	client-18 	31
scalar tree_4_3_u04_r9_network.content_distribution 	client-19 	32
scalar tree_4_3_u04_r9_network.content_distribution 	client-20 	33
scalar tree_4_3_u04_r9_network.content_distribution 	client-21 	34
scalar tree_4_3_u04_r9_network.content_distribution 	client-22 	35
scalar tree_4_3_u04_r9_network.content_distribution 	client-23 	36
scalar tree_4_3_u04_r9_network.content_distribution 	client-24 	37
scalar tree_4_3_u04_r9_network.content_distribution 	client-25 	38
scalar tree_4_3_u04_r9_network.content_distribution 	client-26 	39
scalar tree_4_3_u04_r9_network.content_distribution 	repo-0_card 	100000
scalar tree_4_3_u04_r9_network.content_distribution 	repo-0_price 	0
scalar tree_4_3_u04_r9_network.statistics 	stabilization_time 	762.3
scalar tree_4_3_u04_r9_network.statistics 	p_hit 	0.2129813328689
scalar tree_4_3_u04_r9_network.statistics 	interests 	26408.325
scalar tree_4_3_u04_r9_network.statistics 	data 	18308.825
scalar tree_4_3_u04_r9_network.statistics 	hdistance 	2.8574725349379
scalar tree_4_3_u04_r9_network.statistics 	avg_time 	0.004521112992
scalar tree_4_3_u04_r9_network.statistics 	downloads 	323979
scalar tree_4_3_u04_r9_network.statistics 	total_cost 	0
scalar tree_4_3_u04_r9_network.statistics 	total_replicas 	100000
scalar tree_4_3_u04_r9_network.statistics 	inner_hit 	0.40320205939274
scalar tree_4_3_u04_r9_network.node[0].core_layer 	interests[0] 	194678
scalar tree_4_3_u04_r9_network.node[0].core_layer 	repo_load[0] 	193350
scalar tree_4_3_u04_r9_network.node[0].core_layer 	data[0] 	0
scalar tree_4_3_u04_r9_network.node[0].core_layer 	repo_int[0] 	193350
scalar tree_4_3_u04_r9_network.node[0].content_store 	p_hit[0] 	0.0068215206648928
scalar tree_4_3_u04_r9_network.node[0].content_store 	hits[0] 	1328
scalar tree_4_3_u04_r9_network.node[0].content_store 	misses[0] 	193350
scalar tree_4_3_u04_r9_network.node[0].content_store 	decision_yes[0] 	19333
scalar tree_4_3_u04_r9_network.node[0].content_store 	decision_no[0] 	174017
scalar tree_4_3_u04_r9_network.node[0].content_store 	decision_ratio[0] 	0.099989656064132
scalar tree_4_3_u04_r9_network.node[1].core_layer 	interests[1] 	128031
scalar tree_4_3_u04_r9_network.node[1].core_layer 	data[1] 	126654
scalar tree_4_3_u04_r9_network.node[1].content_store 	p_hit[1] 	0.010700533464552
scalar tree_4_3_u04_r9_network.node[1].content_store 	hits[1] 	1370
scalar tree_4_3_u04_r9_network.node[1].content_store 	misses[1] 	126661
scalar tree_4_3_u04_r9_network.node[1].content_store 	decision_yes[1] 	12482
scalar tree_4_3_u04_r9_network.node[1].content_store 	decision_no[1] 	114172
scalar tree_4_3_u04_r9_network.node[1].content_store 	decision_ratio[1] 	0.098551960459204
scalar tree_4_3_u04_r9_network.node[2].core_layer 	interests[2] 	50686
scalar tree_4_3_u04_r9_network.node[2].core_layer 	data[2] 	49650
scalar tree_4_3_u04_r9_network.node[2].content_store 	p_hit[2] 	0.020439569111786
scalar tree_4_3_u04_r9_network.node[2].content_store 	hits[2] 	1036
scalar tree_4_3_u04_r9_network.node[2].content_store 	misses[2] 	49650
scalar tree_4_3_u04_r9_network.node[2].content_store 	decision_yes[2] 	4919
scalar tree_4_3_u04_r9_network.node[2].content_store 	decision_no[2] 	44731
scalar tree_4_3_u04_r9_network.node[2].content_store 	decision_ratio[2] 	0.099073514602216
scalar tree_4_3_u04_r9_network.node[3].core_layer 	interests[3] 	43007
scalar tree_4_3_u04_r9_network.node[3].core_layer 	data[3] 	41987
scalar tree_4_3_u04_r9_network.node[3].content_store 	p_hit[3] 	0.023717069314298
scalar tree_4_3_u04_r9_network.node[3].content_store 	hits[3] 	1020
scalar tree_4_3_u04_r9_network.node[3].content_store 	misses[3] 	41987
scalar tree_4_3_u04_r9_network.node[3].content_store 	decision_yes[3] 	4048
scalar tree_4_3_u04_r9_network.node[3].content_store 	decision_no[3] 	37938
scalar tree_4_3_u04_r9_network.node[3].content_store 	decision_ratio[3] 	0.096413090077645
scalar tree_4_3_u04_r9_network.node[4].core_layer 	interests[4] 	39367
scalar tree_4_3_u04_r9_network.node[4].core_layer 	data[4] 	37198
scalar tree_4_3_u04_r9_network.node[4].content_store 	p_hit[4] 	0.055071506591815
scalar tree_4_3_u04_r9_network.node[4].content_store 	hits[4] 	2168
scalar tree_4_3_u04_r9_network.node[4].content_store 	misses[4] 	37199
scalar tree_4_3_u04_r9_network.node[4].content_store 	decision_yes[4] 	3783
scalar tree_4_3_u04_r9_network.node[4].content_store 	decision_no[4] 	33415
scalar tree_4_3_u04_r9_network.node[4].content_store 	decision_ratio[4] 	0.10169901607613
scalar tree_4_3_u04_r9_network.node[5].core_layer 	interests[5] 	31579
scalar tree_4_3_u04_r9_network.node[5].core_layer 	data[5] 	28467
scalar tree_4_3_u04_r9_network.node[5].content_store 	p_hit[5] 	0.098514835808607
scalar tree_4_3_u04_r9_network.node[5].content_store 	hits[5] 	3111
scalar tree_4_3_u04_r9_network.node[5].content_store 	misses[5] 	28468
scalar tree_4_3_u04_r9_network.node[5].content_store 	decision_yes[5] 	2831
scalar tree_4_3_u04_r9_network.node[5].content_store 	decision_no[5] 	25636
scalar tree_4_3_u04_r9_network.node[5].content_store 	decision_ratio[5] 	0.099448484209787
scalar tree_4_3_u04_r9_network.node[6].core_layer 	interests[6] 	23042
scalar tree_4_3_u04_r9_network.node[6].core_layer 	data[6] 	19931
scalar tree_4_3_u04_r9_network.node[6].content_store 	p_hit[6] 	0.13501432167347
scalar tree_4_3_u04_r9_network.node[6].content_store 	hits[6] 	3111
scalar tree_4_3_u04_r9_network.node[6].content_store 	misses[6] 	19931
scalar tree_4_3_u04_r9_network.node[6].content_store 	decision_yes[6] 	2018
scalar tree_4_3_u04_r9_network.node[6].content_store 	decision_no[6] 	17913
scalar tree_4_3_u04_r9_network.node[6].content_store 	decision_ratio[6] 	0.10124931011991
scalar tree_4_3_u04_r9_network.node[7].core_layer 	interests[7] 	32464
scalar tree_4_3_u04_r9_network.node[7].core_layer 	data[7] 	29089
scalar tree_4_3_u04_r9_network.node[7].content_store 	p_hit[7] 	0.10396131099064
scalar tree_4_3_u04_r9_network.node[7].content_store 	hits[7] 	3375
scalar tree_4_3_u04_r9_network.node[7].content_store 	misses[7] 	29089
scalar tree_4_3_u04_r9_network.node[7].content_store 	decision_yes[7] 	2970
scalar tree_4_3_u04_r9_network.node[7].content_store 	decision_no[7] 	26119
scalar tree_4_3_u04_r9_network.node[7].content_store 	decision_ratio[7] 	0.10210045034205
scalar tree_4_3_u04_r9_network.node[8].core_layer 	interests[8] 	28862
scalar tree_4_3_u04_r9_network.node[8].core_layer 	data[8] 	27426
scalar tree_4_3_u04_r9_network.node[8].content_store 	p_hit[8] 	0.049754001801677
scalar tree_4_3_u04_r9_network.node[8].content_store 	hits[8] 	1436
scalar tree_4_3_u04_r9_network.node[8].content_store 	misses[8] 	27426
scalar tree_4_3_u04_r9_network.node[8].content_store 	decision_yes[8] 	2834
scalar tree_4_3_u04_r9_network.node[8].content_store 	decision_no[8] 	24592
scalar tree_4_3_u04_r9_network.node[8].content_store 	decision_ratio[8] 	0.1033326040983
scalar tree_4_3_u04_r9_network.node[9].core_layer 	interests[9] 	31602
scalar tree_4_3_u04_r9_network.node[9].core_layer 	data[9] 	28824
scalar tree_4_3_u04_r9_network.node[9].content_store 	p_hit[9] 	0.087874185178153
scalar tree_4_3_u04_r9_network.node[9].content_store 	hits[9] 	2777
scalar tree_4_3_u04_r9_network.node[9].content_store 	misses[9] 	28825
scalar tree_4_3_u04_r9_network.node[9].content_store 	decision_yes[9] 	2852
scalar tree_4_3_u04_r9_network.node[9].content_store 	decision_no[9] 	25972
scalar tree_4_3_u04_r9_network.node[9].content_store 	decision_ratio[9] 	0.09894532334166
scalar tree_4_3_u04_r9_network.node[10].core_layer 	interests[10] 	43160
scalar tree_4_3_u04_r9_network.node[10].core_layer 	data[10] 	39770
scalar tree_4_3_u04_r9_network.node[10].content_store 	p_hit[10] 	0.07856811862836
scalar tree_4_3_u04_r9_network.node[10].content_store 	hits[10] 	3391
scalar tree_4_3_u04_r9_network.node[10].content_store 	misses[10] 	39769
scalar tree_4_3_u04_r9_network.node[10].content_store 	decision_yes[10] 	3951
scalar tree_4_3_u04_r9_network.node[10].content_store 	decision_no[10] 	35819
scalar tree_4_3_u04_r9_network.node[10].content_store 	decision_ratio[10] 	0.099346240885089
scalar tree_4_3_u04_r9_network.node[11].core_layer 	interests[11] 	19766
scalar tree_4_3_u04_r9_network.node[11].core_layer 	data[11] 	18141
scalar tree_4_3_u04_r9_network.node[11].content_store 	p_hit[11] 	0.082211878984114
scalar tree_4_3_u04_r9_network.node[11].content_store 	hits[11] 	1625
scalar tree_4_3_u04_r9_network.node[11].content_store 	misses[11] 	18141
scalar tree_4_3_u04_r9_network.node[11].content_store 	decision_yes[11] 	1868
scalar tree_4_3_u04_r9_network.node[11].content_store 	decision_no[11] 	16273
scalar tree_4_3_u04_r9_network.node[11].content_store 	decision_ratio[11] 	0.10297117027727
scalar tree_4_3_u04_r9_network.node[12].core_layer 	interests[12] 	30414
scalar tree_4_3_u04_r9_network.node[12].core_layer 	data[12] 	28570
scalar tree_4_3_u04_r9_network.node[12].content_store 	p_hit[12] 	0.060597093443809
scalar tree_4_3_u04_r9_network.node[12].content_store 	hits[12] 	1843
scalar tree_4_3_u04_r9_network.node[12].content_store 	misses[12] 	28571
scalar tree_4_3_u04_r9_network.node[12].content_store 	decision_yes[12] 	2896
scalar tree_4_3_u04_r9_network.node[12].content_store 	decision_no[12] 	25674
scalar tree_4_3_u04_r9_network.node[12].content_store 	decision_ratio[12] 	0.10136506825341
scalar tree_4_3_u04_r9_network.node[13].core_layer 	interests[13] 	13146
scalar tree_4_3_u04_r9_network.node[13].core_layer 	data[13] 	9607
scalar tree_4_3_u04_r9_network.node[13].content_store 	p_hit[13] 	0.26920736345656
scalar tree_4_3_u04_r9_network.node[13].content_store 	hits[13] 	3539
scalar tree_4_3_u04_r9_network.node[13].content_store 	misses[13] 	9607
scalar tree_4_3_u04_r9_network.node[13].content_store 	decision_yes[13] 	919
scalar tree_4_3_u04_r9_network.node[13].content_store 	decision_no[13] 	8688
scalar tree_4_3_u04_r9_network.node[13].content_store 	decision_ratio[13] 	0.095659415009889
scalar tree_4_3_u04_r9_network.node[14].core_layer 	interests[14] 	13698
scalar tree_4_3_u04_r9_network.node[14].core_layer 	data[14] 	9465
scalar tree_4_3_u04_r9_network.node[14].content_store 	p_hit[14] 	0.30887720835158
scalar tree_4_3_u04_r9_network.node[14].content_store 	hits[14] 	4231
scalar tree_4_3_u04_r9_network.node[14].content_store 	misses[14] 	9467
scalar tree_4_3_u04_r9_network.node[14].content_store 	decision_yes[14] 	971
scalar tree_4_3_u04_r9_network.node[14].content_store 	decision_no[14] 	8494
scalar tree_4_3_u04_r9_network.node[14].content_store 	decision_ratio[14] 	0.10258848388801
scalar tree_4_3_u04_r9_network.node[15].core_layer 	interests[15] 	13190
scalar tree_4_3_u04_r9_network.node[15].core_layer 	data[15] 	9548
scalar tree_4_3_u04_r9_network.node[15].content_store 	p_hit[15] 	0.27604245640637
scalar tree_4_3_u04_r9_network.node[15].content_store 	hits[15] 	3641
scalar tree_4_3_u04_r9_network.node[15].content_store 	misses[15] 	9549
scalar tree_4_3_u04_r9_network.node[15].content_store 	decision_yes[15] 	927
scalar tree_4_3_u04_r9_network.node[15].content_store 	decision_no[15] 	8621
scalar tree_4_3_u04_r9_network.node[15].content_store 	decision_ratio[15] 	0.097088395475492
scalar tree_4_3_u04_r9_network.node[16].core_layer 	interests[16] 	13882
scalar tree_4_3_u04_r9_network.node[16].core_layer 	data[16] 	9541
scalar tree_4_3_u04_r9_network.node[16].content_store 	p_hit[16] 	0.31270710272295
scalar tree_4_3_u04_r9_network.node[16].content_store 	hits[16] 	4341
scalar tree_4_3_u04_r9_network.node[16].content_store 	misses[16] 	9541
scalar tree_4_3_u04_r9_network.node[16].content_store 	decision_yes[16] 	976
scalar tree_4_3_u04_r9_network.node[16].content_store 	decision_no[16] 	8565
scalar tree_4_3_u04_r9_network.node[16].content_store 	decision_ratio[16] 	0.10229535688083
scalar tree_4_3_u04_r9_network.node[17].core_layer 	interests[17] 	13114
scalar tree_4_3_u04_r9_network.node[17].core_layer 	data[17] 	9565
scalar tree_4_3_u04_r9_network.node[17].content_store 	p_hit[17] 	0.27062681104163
scalar tree_4_3_u04_r9_network.node[17].content_store 	hits[17] 	3549
scalar tree_4_3_u04_r9_network.node[17].content_store 	misses[17] 	9565
scalar tree_4_3_u04_r9_network.node[17].content_store 	decision_yes[17] 	945
scalar tree_4_3_u04_r9_network.node[17].content_store 	decision_no[17] 	8620
scalar tree_4_3_u04_r9_network.node[17].content_store 	decision_ratio[17] 	0.098797699947726
scalar tree_4_3_u04_r9_network.node[18].core_layer 	interests[18] 	13697
scalar tree_4_3_u04_r9_network.node[18].core_layer 	data[18] 	9418
scalar tree_4_3_u04_r9_network.node[18].content_store 	p_hit[18] 	0.31233116740892
scalar tree_4_3_u04_r9_network.node[18].content_store 	hits[18] 	4278
scalar tree_4_3_u04_r9_network.node[18].content_store 	misses[18] 	9419
scalar tree_4_3_u04_r9_network.node[18].content_store 	decision_yes[18] 	914
scalar tree_4_3_u04_r9_network.node[18].content_store 	decision_no[18] 	8504
scalar tree_4_3_u04_r9_network.node[18].content_store 	decision_ratio[18] 	0.097048205563814
scalar tree_4_3_u04_r9_network.node[19].core_layer 	interests[19] 	13139
scalar tree_4_3_u04_r9_network.node[19].core_layer 	data[19] 	9638
scalar tree_4_3_u04_r9_network.node[19].content_store 	p_hit[19] 	0.26645863459928
scalar tree_4_3_u04_r9_network.node[19].content_store 	hits[19] 	3501
scalar tree_4_3_u04_r9_network.node[19].content_store 	misses[19] 	9638
scalar tree_4_3_u04_r9_network.node[19].content_store 	decision_yes[19] 	941
scalar tree_4_3_u04_r9_network.node[19].content_store 	decision_no[19] 	8697
scalar tree_4_3_u04_r9_network.node[19].content_store 	decision_ratio[19] 	0.097634363975929
scalar tree_4_3_u04_r9_network.node[20].core_layer 	interests[20] 	13884
scalar tree_4_3_u04_r9_network.node[20].core_layer 	data[20] 	9542
scalar tree_4_3_u04_r9_network.node[20].content_store 	p_hit[20] 	0.312734082397
scalar tree_4_3_u04_r9_network.node[20].content_store 	hits[20] 	4342
scalar tree_4_3_u04_r9_network.node[20].content_store 	misses[20] 	9542
scalar tree_4_3_u04_r9_network.node[20].content_store 	decision_yes[20] 	993
scalar tree_4_3_u04_r9_network.node[20].content_store 	decision_no[20] 	8549
scalar tree_4_3_u04_r9_network.node[20].content_store 	decision_ratio[20] 	0.10406623349403
scalar tree_4_3_u04_r9_network.node[21].core_layer 	interests[21] 	12960
scalar tree_4_3_u04_r9_network.node[21].core_layer 	data[21] 	9606
scalar tree_4_3_u04_r9_network.node[21].content_store 	p_hit[21] 	0.25871913580247
scalar tree_4_3_u04_r9_network.node[21].content_store 	hits[21] 	3353
scalar tree_4_3_u04_r9_network.node[21].content_store 	misses[21] 	9607
scalar tree_4_3_u04_r9_network.node[21].content_store 	decision_yes[21] 	975
scalar tree_4_3_u04_r9_network.node[21].content_store 	decision_no[21] 	8631
scalar tree_4_3_u04_r9_network.node[21].content_store 	decision_ratio[21] 	0.10149906308557
scalar tree_4_3_u04_r9_network.node[22].core_layer 	interests[22] 	13304
scalar tree_4_3_u04_r9_network.node[22].core_layer 	data[22] 	9461
scalar tree_4_3_u04_r9_network.node[22].content_store 	p_hit[22] 	0.28886049308479
scalar tree_4_3_u04_r9_network.node[22].content_store 	hits[22] 	3843
scalar tree_4_3_u04_r9_network.node[22].content_store 	misses[22] 	9461
scalar tree_4_3_u04_r9_network.node[22].content_store 	decision_yes[22] 	896
scalar tree_4_3_u04_r9_network.node[22].content_store 	decision_no[22] 	8565
scalar tree_4_3_u04_r9_network.node[22].content_store 	decision_ratio[22] 	0.094704576683226
scalar tree_4_3_u04_r9_network.node[23].core_layer 	interests[23] 	13377
scalar tree_4_3_u04_r9_network.node[23].core_layer 	data[23] 	9560
scalar tree_4_3_u04_r9_network.node[23].content_store 	p_hit[23] 	0.28534050983031
scalar tree_4_3_u04_r9_network.node[23].content_store 	hits[23] 	3817
scalar tree_4_3_u04_r9_network.node[23].content_store 	misses[23] 	9560
scalar tree_4_3_u04_r9_network.node[23].content_store 	decision_yes[23] 	912
scalar tree_4_3_u04_r9_network.node[23].content_store 	decision_no[23] 	8648
scalar tree_4_3_u04_r9_network.node[23].content_store 	decision_ratio[23] 	0.095397489539749
scalar tree_4_3_u04_r9_network.node[24].core_layer 	interests[24] 	14366
scalar tree_4_3_u04_r9_network.node[24].core_layer 	data[24] 	9405
scalar tree_4_3_u04_r9_network.node[24].content_store 	p_hit[24] 	0.34532924961715
scalar tree_4_3_u04_r9_network.node[24].content_store 	hits[24] 	4961
scalar tree_4_3_u04_r9_network.node[24].content_store 	misses[24] 	9405
scalar tree_4_3_u04_r9_network.node[24].content_store 	decision_yes[24] 	928
scalar tree_4_3_u04_r9_network.node[24].content_store 	decision_no[24] 	8477
scalar tree_4_3_u04_r9_network.node[24].content_store 	decision_ratio[24] 	0.098670919723551
scalar tree_4_3_u04_r9_network.node[25].core_layer 	interests[25] 	12722
scalar tree_4_3_u04_r9_network.node[25].core_layer 	data[25] 	9636
scalar tree_4_3_u04_r9_network.node[25].content_store 	p_hit[25] 	0.24257192265367
scalar tree_4_3_u04_r9_network.node[25].content_store 	hits[25] 	3086
scalar tree_4_3_u04_r9_network.node[25].content_store 	misses[25] 	9636
scalar tree_4_3_u04_r9_network.node[25].content_store 	decision_yes[25] 	969
scalar tree_4_3_u04_r9_network.node[25].content_store 	decision_no[25] 	8667
scalar tree_4_3_u04_r9_network.node[25].content_store 	decision_ratio[25] 	0.1005603985056
scalar tree_4_3_u04_r9_network.node[26].core_layer 	interests[26] 	12800
scalar tree_4_3_u04_r9_network.node[26].core_layer 	data[26] 	9685
scalar tree_4_3_u04_r9_network.node[26].content_store 	p_hit[26] 	0.243359375
scalar tree_4_3_u04_r9_network.node[26].content_store 	hits[26] 	3115
scalar tree_4_3_u04_r9_network.node[26].content_store 	misses[26] 	9685
scalar tree_4_3_u04_r9_network.node[26].content_store 	decision_yes[26] 	1015
scalar tree_4_3_u04_r9_network.node[26].content_store 	decision_no[26] 	8670
scalar tree_4_3_u04_r9_network.node[26].content_store 	decision_ratio[26] 	0.10480123902943
scalar tree_4_3_u04_r9_network.node[27].core_layer 	interests[27] 	13953
scalar tree_4_3_u04_r9_network.node[27].core_layer 	data[27] 	9396
scalar tree_4_3_u04_r9_network.node[27].content_store 	p_hit[27] 	0.32659643087508
scalar tree_4_3_u04_r9_network.node[27].content_store 	hits[27] 	4557
scalar tree_4_3_u04_r9_network.node[27].content_store 	misses[27] 	9396
scalar tree_4_3_u04_r9_network.node[27].content_store 	decision_yes[27] 	933
scalar tree_4_3_u04_r9_network.node[27].content_store 	decision_no[27] 	8463
scalar tree_4_3_u04_r9_network.node[27].content_store 	decision_ratio[27] 	0.099297573435504
scalar tree_4_3_u04_r9_network.node[28].core_layer 	interests[28] 	13035
scalar tree_4_3_u04_r9_network.node[28].core_layer 	data[28] 	9474
scalar tree_4_3_u04_r9_network.node[28].content_store 	p_hit[28] 	0.27318757192175
scalar tree_4_3_u04_r9_network.node[28].content_store 	hits[28] 	3561
scalar tree_4_3_u04_r9_network.node[28].content_store 	misses[28] 	9474
scalar tree_4_3_u04_r9_network.node[28].content_store 	decision_yes[28] 	912
scalar tree_4_3_u04_r9_network.node[28].content_store 	decision_no[28] 	8562
scalar tree_4_3_u04_r9_network.node[28].content_store 	decision_ratio[28] 	0.096263457884737
scalar tree_4_3_u04_r9_network.node[29].core_layer 	interests[29] 	12873
scalar tree_4_3_u04_r9_network.node[29].core_layer 	data[29] 	9380
scalar tree_4_3_u04_r9_network.node[29].content_store 	p_hit[29] 	0.27134312126156
scalar tree_4_3_u04_r9_network.node[29].content_store 	hits[29] 	3493
scalar tree_4_3_u04_r9_network.node[29].content_store 	misses[29] 	9380
scalar tree_4_3_u04_r9_network.node[29].content_store 	decision_yes[29] 	970
scalar tree_4_3_u04_r9_network.node[29].content_store 	decision_no[29] 	8410
scalar tree_4_3_u04_r9_network.node[29].content_store 	decision_ratio[29] 	0.10341151385928
scalar tree_4_3_u04_r9_network.node[30].core_layer 	interests[30] 	12768
scalar tree_4_3_u04_r9_network.node[30].core_layer 	data[30] 	9355
scalar tree_4_3_u04_r9_network.node[30].content_store 	p_hit[30] 	0.26738721804511
scalar tree_4_3_u04_r9_network.node[30].content_store 	hits[30] 	3414
scalar tree_4_3_u04_r9_network.node[30].content_store 	misses[30] 	9354
scalar tree_4_3_u04_r9_network.node[30].content_store 	decision_yes[30] 	898
scalar tree_4_3_u04_r9_network.node[30].content_store 	decision_no[30] 	8457
scalar tree_4_3_u04_r9_network.node[30].content_store 	decision_ratio[30] 	0.095991448423303
scalar tree_4_3_u04_r9_network.node[31].core_layer 	interests[31] 	13677
scalar tree_4_3_u04_r9_network.node[31].core_layer 	data[31] 	9458
scalar tree_4_3_u04_r9_network.node[31].content_store 	p_hit[31] 	0.30847408057323
scalar tree_4_3_u04_r9_network.node[31].content_store 	hits[31] 	4219
scalar tree_4_3_u04_r9_network.node[31].content_store 	misses[31] 	9458
scalar tree_4_3_u04_r9_network.node[31].content_store 	decision_yes[31] 	940
scalar tree_4_3_u04_r9_network.node[31].content_store 	decision_no[31] 	8518
scalar tree_4_3_u04_r9_network.node[31].content_store 	decision_ratio[31] 	0.099386762529076
scalar tree_4_3_u04_r9_network.node[32].core_layer 	interests[32] 	13884
scalar tree_4_3_u04_r9_network.node[32].core_layer 	data[32] 	9629
scalar tree_4_3_u04_r9_network.node[32].content_store 	p_hit[32] 	0.30653990204552
scalar tree_4_3_u04_r9_network.node[32].content_store 	hits[32] 	4256
scalar tree_4_3_u04_r9_network.node[32].content_store 	misses[32] 	9628
scalar tree_4_3_u04_r9_network.node[32].content_store 	decision_yes[32] 	946
scalar tree_4_3_u04_r9_network.node[32].content_store 	decision_no[32] 	8683
scalar tree_4_3_u04_r9_network.node[32].content_store 	decision_ratio[32] 	0.098244885242497
scalar tree_4_3_u04_r9_network.node[33].core_layer 	interests[33] 	13369
scalar tree_4_3_u04_r9_network.node[33].core_layer 	data[33] 	9429
scalar tree_4_3_u04_r9_network.node[33].content_store 	p_hit[33] 	0.29478644625626
scalar tree_4_3_u04_r9_network.node[33].content_store 	hits[33] 	3941
scalar tree_4_3_u04_r9_network.node[33].content_store 	misses[33] 	9428
scalar tree_4_3_u04_r9_network.node[33].content_store 	decision_yes[33] 	941
scalar tree_4_3_u04_r9_network.node[33].content_store 	decision_no[33] 	8488
scalar tree_4_3_u04_r9_network.node[33].content_store 	decision_ratio[33] 	0.099798494007848
scalar tree_4_3_u04_r9_network.node[34].core_layer 	interests[34] 	14447
scalar tree_4_3_u04_r9_network.node[34].core_layer 	data[34] 	9655
scalar tree_4_3_u04_r9_network.node[34].content_store 	p_hit[34] 	0.33169516162525
scalar tree_4_3_u04_r9_network.node[34].content_store 	hits[34] 	4792
scalar tree_4_3_u04_r9_network.node[34].content_store 	misses[34] 	9655
scalar tree_4_3_u04_r9_network.node[34].content_store 	decision_yes[34] 	1001
scalar tree_4_3_u04_r9_network.node[34].content_store 	decision_no[34] 	8654
scalar tree_4_3_u04_r9_network.node[34].content_store 	decision_ratio[34] 	0.10367685137235
scalar tree_4_3_u04_r9_network.node[35].core_layer 	interests[35] 	12474
scalar tree_4_3_u04_r9_network.node[35].core_layer 	data[35] 	9368
scalar tree_4_3_u04_r9_network.node[35].content_store 	p_hit[35] 	0.24899791566458
scalar tree_4_3_u04_r9_network.node[35].content_store 	hits[35] 	3106
scalar tree_4_3_u04_r9_network.node[35].content_store 	misses[35] 	9368
scalar tree_4_3_u04_r9_network.node[35].content_store 	decision_yes[35] 	910
scalar tree_4_3_u04_r9_network.node[35].content_store 	decision_no[35] 	8458
scalar tree_4_3_u04_r9_network.node[35].content_store 	decision_ratio[35] 	0.097139197267293
scalar tree_4_3_u04_r9_network.node[36].core_layer 	interests[36] 	13455
scalar tree_4_3_u04_r9_network.node[36].core_layer 	data[36] 	9335
scalar tree_4_3_u04_r9_network.node[36].content_store 	p_hit[36] 	0.30620587142326
scalar tree_4_3_u04_r9_network.node[36].content_store 	hits[36] 	4120
scalar tree_4_3_u04_r9_network.node[36].content_store 	misses[36] 	9335
scalar tree_4_3_u04_r9_network.node[36].content_store 	decision_yes[36] 	941
scalar tree_4_3_u04_r9_network.node[36].content_store 	decision_no[36] 	8394
scalar tree_4_3_u04_r9_network.node[36].content_store 	decision_ratio[36] 	0.10080342795929
scalar tree_4_3_u04_r9_network.node[37].core_layer 	interests[37] 	12912
scalar tree_4_3_u04_r9_network.node[37].core_layer 	data[37] 	9607
scalar tree_4_3_u04_r9_network.node[37].content_store 	p_hit[37] 	0.25588599752169
scalar tree_4_3_u04_r9_network.node[37].content_store 	hits[37] 	3304
scalar tree_4_3_u04_r9_network.node[37].content_store 	misses[37] 	9608
scalar tree_4_3_u04_r9_network.node[37].content_store 	decision_yes[37] 	983
scalar tree_4_3_u04_r9_network.node[37].content_store 	decision_no[37] 	8624
scalar tree_4_3_u04_r9_network.node[37].content_store 	decision_ratio[37] 	0.10232122410742
scalar tree_4_3_u04_r9_network.node[38].core_layer 	interests[38] 	12751
scalar tree_4_3_u04_r9_network.node[38].core_layer 	data[38] 	9426
scalar tree_4_3_u04_r9_network.node[38].content_store 	p_hit[38] 	0.26076386165791
scalar tree_4_3_u04_r9_network.node[38].content_store 	hits[38] 	3325
scalar tree_4_3_u04_r9_network.node[38].content_store 	misses[38] 	9426
scalar tree_4_3_u04_r9_network.node[38].content_store 	decision_yes[38] 	923
scalar tree_4_3_u04_r9_network.node[38].content_store 	decision_no[38] 	8503
scalar tree_4_3_u04_r9_network.node[38].content_store 	decision_ratio[38] 	0.097920645024401
scalar tree_4_3_u04_r9_network.node[39].core_layer 	interests[39] 	12798
scalar tree_4_3_u04_r9_network.node[39].core_layer 	data[39] 	9457
scalar tree_4_3_u04_r9_network.node[39].content_store 	p_hit[39] 	0.26097827785591
scalar tree_4_3_u04_r9_network.node[39].content_store 	hits[39] 	3340
scalar tree_4_3_u04_r9_network.node[39].content_store 	misses[39] 	9458
scalar tree_4_3_u04_r9_network.node[39].content_store 	decision_yes[39] 	1011
scalar tree_4_3_u04_r9_network.node[39].content_store 	decision_no[39] 	8446
scalar tree_4_3_u04_r9_network.node[39].content_store 	decision_ratio[39] 	0.10690493814106
scalar tree_4_3_u04_r9_network.client[13] 	hdistance[13] 	2.8954764676534
scalar tree_4_3_u04_r9_network.client[13] 	downloads[13] 	12026
scalar tree_4_3_u04_r9_network.client[13] 	avg_time[13] 	0.004629466459
scalar tree_4_3_u04_r9_network.client[14] 	hdistance[14] 	2.8030455153949
scalar tree_4_3_u04_r9_network.client[14] 	downloads[14] 	11952
scalar tree_4_3_u04_r9_network.client[14] 	avg_time[14] 	0.004431938571
scalar tree_4_3_u04_r9_network.client[15] 	hdistance[15] 	2.8997759893802
scalar tree_4_3_u04_r9_network.client[15] 	downloads[15] 	12053
scalar tree_4_3_u04_r9_network.client[15] 	avg_time[15] 	0.004617670001
scalar tree_4_3_u04_r9_network.client[16] 	hdistance[16] 	2.790590177466
scalar tree_4_3_u04_r9_network.client[16] 	downloads[16] 	12115
scalar tree_4_3_u04_r9_network.client[16] 	avg_time[16] 	0.004407461883
scalar tree_4_3_u04_r9_network.client[17] 	hdistance[17] 	2.8649592549476
scalar tree_4_3_u04_r9_network.client[17] 	downloads[17] 	12026
scalar tree_4_3_u04_r9_network.client[17] 	avg_time[17] 	0.004557938369
scalar tree_4_3_u04_r9_network.client[18] 	hdistance[18] 	2.7805896600685
scalar tree_4_3_u04_r9_network.client[18] 	downloads[18] 	11973
scalar tree_4_3_u04_r9_network.client[18] 	avg_time[18] 	0.004391297308
scalar tree_4_3_u04_r9_network.client[19] 	hdistance[19] 	2.8786559316464
scalar tree_4_3_u04_r9_network.client[19] 	downloads[19] 	12172
scalar tree_4_3_u04_r9_network.client[19] 	avg_time[19] 	0.004572790178
scalar tree_4_3_u04_r9_network.client[20] 	hdistance[20] 	2.7772080714522
scalar tree_4_3_u04_r9_network.client[20] 	downloads[20] 	12092
scalar tree_4_3_u04_r9_network.client[20] 	avg_time[20] 	0.004385290842
scalar tree_4_3_u04_r9_network.client[21] 	hdistance[21] 	2.8960627293961
scalar tree_4_3_u04_r9_network.client[21] 	downloads[21] 	11988
scalar tree_4_3_u04_r9_network.client[21] 	avg_time[21] 	0.004621196771
scalar tree_4_3_u04_r9_network.client[22] 	hdistance[22] 	2.8730331436224
scalar tree_4_3_u04_r9_network.client[22] 	downloads[22] 	11948
scalar tree_4_3_u04_r9_network.client[22] 	avg_time[22] 	0.00462051927
scalar tree_4_3_u04_r9_network.client[23] 	hdistance[23] 	2.8964046822742
scalar tree_4_3_u04_r9_network.client[23] 	downloads[23] 	11960
scalar tree_4_3_u04_r9_network.client[23] 	avg_time[23] 	0.004659361556
scalar tree_4_3_u04_r9_network.client[24] 	hdistance[24] 	2.7439064831703
scalar tree_4_3_u04_r9_network.client[24] 	downloads[24] 	12062
scalar tree_4_3_u04_r9_network.client[24] 	avg_time[24] 	0.004366907081
scalar tree_4_3_u04_r9_network.client[25] 	hdistance[25] 	2.9455120206306
scalar tree_4_3_u04_r9_network.client[25] 	downloads[25] 	12021
scalar tree_4_3_u04_r9_network.client[25] 	avg_time[25] 	0.004638878976
scalar tree_4_3_u04_r9_network.client[26] 	hdistance[26] 	2.9404634287128
scalar tree_4_3_u04_r9_network.client[26] 	downloads[26] 	12127
scalar tree_4_3_u04_r9_network.client[26] 	avg_time[26] 	0.00462471868
scalar tree_4_3_u04_r9_network.client[27] 	hdistance[27] 	2.7862525879917
scalar tree_4_3_u04_r9_network.client[27] 	downloads[27] 	12075
scalar tree_4_3_u04_r9_network.client[27] 	avg_time[27] 	0.004322647093
scalar tree_4_3_u04_r9_network.client[28] 	hdistance[28] 	2.8354860076171
scalar tree_4_3_u04_r9_network.client[28] 	downloads[28] 	12078
scalar tree_4_3_u04_r9_network.client[28] 	avg_time[28] 	0.004430863035
scalar tree_4_3_u04_r9_network.client[29] 	hdistance[29] 	2.855605984199
scalar tree_4_3_u04_r9_network.client[29] 	downloads[29] 	11898
scalar tree_4_3_u04_r9_network.client[29] 	avg_time[29] 	0.004458057183
scalar tree_4_3_u04_r9_network.client[30] 	hdistance[30] 	2.8441711590296
scalar tree_4_3_u04_r9_network.client[30] 	downloads[30] 	11872
scalar tree_4_3_u04_r9_network.client[30] 	avg_time[30] 	0.004446594054
scalar tree_4_3_u04_r9_network.client[31] 	hdistance[31] 	2.8478242642743
scalar tree_4_3_u04_r9_network.client[31] 	downloads[31] 	11927
scalar tree_4_3_u04_r9_network.client[31] 	avg_time[31] 	0.004572315429
scalar tree_4_3_u04_r9_network.client[32] 	hdistance[32] 	2.8546233723422
scalar tree_4_3_u04_r9_network.client[32] 	downloads[32] 	12134
scalar tree_4_3_u04_r9_network.client[32] 	avg_time[32] 	0.004581668295
scalar tree_4_3_u04_r9_network.client[33] 	hdistance[33] 	2.8712921490746
scalar tree_4_3_u04_r9_network.client[33] 	downloads[33] 	11833
scalar tree_4_3_u04_r9_network.client[33] 	avg_time[33] 	0.004604070417
scalar tree_4_3_u04_r9_network.client[34] 	hdistance[34] 	2.7799884896818
scalar tree_4_3_u04_r9_network.client[34] 	downloads[34] 	12163
scalar tree_4_3_u04_r9_network.client[34] 	avg_time[34] 	0.004437375559
scalar tree_4_3_u04_r9_network.client[35] 	hdistance[35] 	2.9267343485618
scalar tree_4_3_u04_r9_network.client[35] 	downloads[35] 	11820
scalar tree_4_3_u04_r9_network.client[35] 	avg_time[35] 	0.004592552064
scalar tree_4_3_u04_r9_network.client[36] 	hdistance[36] 	2.8404975461161
scalar tree_4_3_u04_r9_network.client[36] 	downloads[36] 	11818
scalar tree_4_3_u04_r9_network.client[36] 	avg_time[36] 	0.004420034265
scalar tree_4_3_u04_r9_network.client[37] 	hdistance[37] 	2.9054255848681
scalar tree_4_3_u04_r9_network.client[37] 	downloads[37] 	12054
scalar tree_4_3_u04_r9_network.client[37] 	avg_time[37] 	0.004558848491
scalar tree_4_3_u04_r9_network.client[38] 	hdistance[38] 	2.9067597107785
scalar tree_4_3_u04_r9_network.client[38] 	downloads[38] 	11894
scalar tree_4_3_u04_r9_network.client[38] 	avg_time[38] 	0.004557440679
scalar tree_4_3_u04_r9_network.client[39] 	hdistance[39] 	2.9114136829719
scalar tree_4_3_u04_r9_network.client[39] 	downloads[39] 	11898
scalar tree_4_3_u04_r9_network.client[39] 	avg_time[39] 	0.004562148292
