version 2
run General-94-20160819-08:21:13-13837
attr a 0.9
attr cd fix0.1
attr configname General
attr cr lru
attr datetime 20160819-08:21:13
attr experiment General
attr fsize 1
attr inifile hw5115/scenario_A/NRR-FIX0.1.ini
attr iterationvars "$name=tree_4_3, $un=04, $rep=15, $cd=fix0.1, $cr=lru, $fsize=1, $a=0.9, $sl=nrr, $ttl=1000, $variance=0.05"
attr iterationvars2 "$name=tree_4_3, $un=04, $rep=15, $cd=fix0.1, $cr=lru, $fsize=1, $a=0.9, $sl=nrr, $ttl=1000, $variance=0.05, $repetition=0"
attr measurement "$name=tree_4_3, $un=04, $rep=15, $cd=fix0.1, $cr=lru, $fsize=1, $a=0.9, $sl=nrr, $ttl=1000, $variance=0.05"
attr name tree_4_3
attr network networks.${name}_u${un}_r${rep}_network
attr processid 13837
attr rep 15
attr repetition 0
attr replication #0
attr resultdir results
attr runnumber 94
attr seedset 15
attr sl nrr
attr ttl 1000
attr un 04
attr variance 0.05

scalar . 	a 	0.9
scalar . 	fsize 	1
scalar . 	rep 	15
scalar . 	ttl 	1000
scalar . 	un 	04
scalar . 	variance 	0.05
scalar tree_4_3_u04_r15_network.content_distribution 	repo-0 	0
scalar tree_4_3_u04_r15_network.content_distribution 	client-0 	13
scalar tree_4_3_u04_r15_network.content_distribution 	client-1 	14
scalar tree_4_3_u04_r15_network.content_distribution 	client-2 	15
scalar tree_4_3_u04_r15_network.content_distribution 	client-3 	16
scalar tree_4_3_u04_r15_network.content_distribution 	client-4 	17
scalar tree_4_3_u04_r15_network.content_distribution 	client-5 	18
scalar tree_4_3_u04_r15_network.content_distribution 	client-6 	19
scalar tree_4_3_u04_r15_network.content_distribution 	client-7 	20
scalar tree_4_3_u04_r15_network.content_distribution 	client-8 	21
scalar tree_4_3_u04_r15_network.content_distribution 	client-9 	22
scalar tree_4_3_u04_r15_network.content_distribution 	client-10 	23
scalar tree_4_3_u04_r15_network.content_distribution 	client-11 	24
scalar tree_4_3_u04_r15_network.content_distribution 	client-12 	25
scalar tree_4_3_u04_r15_network.content_distribution 	client-13 	26
scalar tree_4_3_u04_r15_network.content_distribution 	client-14 	27
scalar tree_4_3_u04_r15_network.content_distribution 	client-15 	28
scalar tree_4_3_u04_r15_network.content_distribution 	client-16 	29
scalar tree_4_3_u04_r15_network.content_distribution 	client-17 	30
scalar tree_4_3_u04_r15_network.content_distribution 	client-18 	31
scalar tree_4_3_u04_r15_network.content_distribution 	client-19 	32
scalar tree_4_3_u04_r15_network.content_distribution 	client-20 	33
scalar tree_4_3_u04_r15_network.content_distribution 	client-21 	34
scalar tree_4_3_u04_r15_network.content_distribution 	client-22 	35
scalar tree_4_3_u04_r15_network.content_distribution 	client-23 	36
scalar tree_4_3_u04_r15_network.content_distribution 	client-24 	37
scalar tree_4_3_u04_r15_network.content_distribution 	client-25 	38
scalar tree_4_3_u04_r15_network.content_distribution 	client-26 	39
scalar tree_4_3_u04_r15_network.content_distribution 	repo-0_card 	100000
scalar tree_4_3_u04_r15_network.content_distribution 	repo-0_price 	0
scalar tree_4_3_u04_r15_network.statistics 	stabilization_time 	729.1
scalar tree_4_3_u04_r15_network.statistics 	p_hit 	0.21682501504393
scalar tree_4_3_u04_r15_network.statistics 	interests 	26392.725
scalar tree_4_3_u04_r15_network.statistics 	data 	18298.675
scalar tree_4_3_u04_r15_network.statistics 	hdistance 	2.8546079493447
scalar tree_4_3_u04_r15_network.statistics 	avg_time 	0.004521633113
scalar tree_4_3_u04_r15_network.statistics 	downloads 	323762
scalar tree_4_3_u04_r15_network.statistics 	total_cost 	0
scalar tree_4_3_u04_r15_network.statistics 	total_replicas 	100000
scalar tree_4_3_u04_r15_network.statistics 	inner_hit 	0.40620579314435
scalar tree_4_3_u04_r15_network.node[0].core_layer 	interests[0] 	193474
scalar tree_4_3_u04_r15_network.node[0].core_layer 	repo_load[0] 	192248
scalar tree_4_3_u04_r15_network.node[0].core_layer 	data[0] 	0
scalar tree_4_3_u04_r15_network.node[0].core_layer 	repo_int[0] 	192248
scalar tree_4_3_u04_r15_network.node[0].content_store 	p_hit[0] 	0.0063367687647953
scalar tree_4_3_u04_r15_network.node[0].content_store 	hits[0] 	1226
scalar tree_4_3_u04_r15_network.node[0].content_store 	misses[0] 	192248
scalar tree_4_3_u04_r15_network.node[0].content_store 	decision_yes[0] 	19096
scalar tree_4_3_u04_r15_network.node[0].content_store 	decision_no[0] 	173152
scalar tree_4_3_u04_r15_network.node[0].content_store 	decision_ratio[0] 	0.099330032041946
scalar tree_4_3_u04_r15_network.node[1].core_layer 	interests[1] 	71151
scalar tree_4_3_u04_r15_network.node[1].core_layer 	data[1] 	70323
scalar tree_4_3_u04_r15_network.node[1].content_store 	p_hit[1] 	0.011651276861885
scalar tree_4_3_u04_r15_network.node[1].content_store 	hits[1] 	829
scalar tree_4_3_u04_r15_network.node[1].content_store 	misses[1] 	70322
scalar tree_4_3_u04_r15_network.node[1].content_store 	decision_yes[1] 	6923
scalar tree_4_3_u04_r15_network.node[1].content_store 	decision_no[1] 	63400
scalar tree_4_3_u04_r15_network.node[1].content_store 	decision_ratio[1] 	0.098445743213458
scalar tree_4_3_u04_r15_network.node[2].core_layer 	interests[2] 	115305
scalar tree_4_3_u04_r15_network.node[2].core_layer 	data[2] 	113688
scalar tree_4_3_u04_r15_network.node[2].content_store 	p_hit[2] 	0.013988985733489
scalar tree_4_3_u04_r15_network.node[2].content_store 	hits[2] 	1613
scalar tree_4_3_u04_r15_network.node[2].content_store 	misses[2] 	113692
scalar tree_4_3_u04_r15_network.node[2].content_store 	decision_yes[2] 	11340
scalar tree_4_3_u04_r15_network.node[2].content_store 	decision_no[2] 	102345
scalar tree_4_3_u04_r15_network.node[2].content_store 	decision_ratio[2] 	0.099749307296477
scalar tree_4_3_u04_r15_network.node[3].core_layer 	interests[3] 	34413
scalar tree_4_3_u04_r15_network.node[3].core_layer 	data[3] 	33390
scalar tree_4_3_u04_r15_network.node[3].content_store 	p_hit[3] 	0.02969807921425
scalar tree_4_3_u04_r15_network.node[3].content_store 	hits[3] 	1022
scalar tree_4_3_u04_r15_network.node[3].content_store 	misses[3] 	33391
scalar tree_4_3_u04_r15_network.node[3].content_store 	decision_yes[3] 	3385
scalar tree_4_3_u04_r15_network.node[3].content_store 	decision_no[3] 	30005
scalar tree_4_3_u04_r15_network.node[3].content_store 	decision_ratio[3] 	0.10137765798143
scalar tree_4_3_u04_r15_network.node[4].core_layer 	interests[4] 	46724
scalar tree_4_3_u04_r15_network.node[4].core_layer 	data[4] 	44961
scalar tree_4_3_u04_r15_network.node[4].content_store 	p_hit[4] 	0.037668007876038
scalar tree_4_3_u04_r15_network.node[4].content_store 	hits[4] 	1760
scalar tree_4_3_u04_r15_network.node[4].content_store 	misses[4] 	44964
scalar tree_4_3_u04_r15_network.node[4].content_store 	decision_yes[4] 	4518
scalar tree_4_3_u04_r15_network.node[4].content_store 	decision_no[4] 	40443
scalar tree_4_3_u04_r15_network.node[4].content_store 	decision_ratio[4] 	0.1004870888103
scalar tree_4_3_u04_r15_network.node[5].core_layer 	interests[5] 	26237
scalar tree_4_3_u04_r15_network.node[5].core_layer 	data[5] 	21965
scalar tree_4_3_u04_r15_network.node[5].content_store 	p_hit[5] 	0.162785379426
scalar tree_4_3_u04_r15_network.node[5].content_store 	hits[5] 	4271
scalar tree_4_3_u04_r15_network.node[5].content_store 	misses[5] 	21966
scalar tree_4_3_u04_r15_network.node[5].content_store 	decision_yes[5] 	2165
scalar tree_4_3_u04_r15_network.node[5].content_store 	decision_no[5] 	19800
scalar tree_4_3_u04_r15_network.node[5].content_store 	decision_ratio[5] 	0.098565900295925
scalar tree_4_3_u04_r15_network.node[6].core_layer 	interests[6] 	20834
scalar tree_4_3_u04_r15_network.node[6].core_layer 	data[6] 	19034
scalar tree_4_3_u04_r15_network.node[6].content_store 	p_hit[6] 	0.086397235288471
scalar tree_4_3_u04_r15_network.node[6].content_store 	hits[6] 	1800
scalar tree_4_3_u04_r15_network.node[6].content_store 	misses[6] 	19034
scalar tree_4_3_u04_r15_network.node[6].content_store 	decision_yes[6] 	1902
scalar tree_4_3_u04_r15_network.node[6].content_store 	decision_no[6] 	17132
scalar tree_4_3_u04_r15_network.node[6].content_store 	decision_ratio[6] 	0.099926447409898
scalar tree_4_3_u04_r15_network.node[7].core_layer 	interests[7] 	49615
scalar tree_4_3_u04_r15_network.node[7].core_layer 	data[7] 	47169
scalar tree_4_3_u04_r15_network.node[7].content_store 	p_hit[7] 	0.049239141388693
scalar tree_4_3_u04_r15_network.node[7].content_store 	hits[7] 	2443
scalar tree_4_3_u04_r15_network.node[7].content_store 	misses[7] 	47172
scalar tree_4_3_u04_r15_network.node[7].content_store 	decision_yes[7] 	4632
scalar tree_4_3_u04_r15_network.node[7].content_store 	decision_no[7] 	42536
scalar tree_4_3_u04_r15_network.node[7].content_store 	decision_ratio[7] 	0.098202170963365
scalar tree_4_3_u04_r15_network.node[8].core_layer 	interests[8] 	22259
scalar tree_4_3_u04_r15_network.node[8].core_layer 	data[8] 	19389
scalar tree_4_3_u04_r15_network.node[8].content_store 	p_hit[8] 	0.1289366099106
scalar tree_4_3_u04_r15_network.node[8].content_store 	hits[8] 	2870
scalar tree_4_3_u04_r15_network.node[8].content_store 	misses[8] 	19389
scalar tree_4_3_u04_r15_network.node[8].content_store 	decision_yes[8] 	1924
scalar tree_4_3_u04_r15_network.node[8].content_store 	decision_no[8] 	17465
scalar tree_4_3_u04_r15_network.node[8].content_store 	decision_ratio[8] 	0.099231523028521
scalar tree_4_3_u04_r15_network.node[9].core_layer 	interests[9] 	22214
scalar tree_4_3_u04_r15_network.node[9].core_layer 	data[9] 	19437
scalar tree_4_3_u04_r15_network.node[9].content_store 	p_hit[9] 	0.12496623750788
scalar tree_4_3_u04_r15_network.node[9].content_store 	hits[9] 	2776
scalar tree_4_3_u04_r15_network.node[9].content_store 	misses[9] 	19438
scalar tree_4_3_u04_r15_network.node[9].content_store 	decision_yes[9] 	1947
scalar tree_4_3_u04_r15_network.node[9].content_store 	decision_no[9] 	17490
scalar tree_4_3_u04_r15_network.node[9].content_store 	decision_ratio[9] 	0.10016977928693
scalar tree_4_3_u04_r15_network.node[10].core_layer 	interests[10] 	31338
scalar tree_4_3_u04_r15_network.node[10].core_layer 	data[10] 	28968
scalar tree_4_3_u04_r15_network.node[10].content_store 	p_hit[10] 	0.075627034271491
scalar tree_4_3_u04_r15_network.node[10].content_store 	hits[10] 	2370
scalar tree_4_3_u04_r15_network.node[10].content_store 	misses[10] 	28968
scalar tree_4_3_u04_r15_network.node[10].content_store 	decision_yes[10] 	2861
scalar tree_4_3_u04_r15_network.node[10].content_store 	decision_no[10] 	26107
scalar tree_4_3_u04_r15_network.node[10].content_store 	decision_ratio[10] 	0.098764153548743
scalar tree_4_3_u04_r15_network.node[11].core_layer 	interests[11] 	49630
scalar tree_4_3_u04_r15_network.node[11].core_layer 	data[11] 	46606
scalar tree_4_3_u04_r15_network.node[11].content_store 	p_hit[11] 	0.060850292161999
scalar tree_4_3_u04_r15_network.node[11].content_store 	hits[11] 	3020
scalar tree_4_3_u04_r15_network.node[11].content_store 	misses[11] 	46610
scalar tree_4_3_u04_r15_network.node[11].content_store 	decision_yes[11] 	4567
scalar tree_4_3_u04_r15_network.node[11].content_store 	decision_no[11] 	42038
scalar tree_4_3_u04_r15_network.node[11].content_store 	decision_ratio[11] 	0.097993777491685
scalar tree_4_3_u04_r15_network.node[12].core_layer 	interests[12] 	12093
scalar tree_4_3_u04_r15_network.node[12].core_layer 	data[12] 	9998
scalar tree_4_3_u04_r15_network.node[12].content_store 	p_hit[12] 	0.17324071777061
scalar tree_4_3_u04_r15_network.node[12].content_store 	hits[12] 	2095
scalar tree_4_3_u04_r15_network.node[12].content_store 	misses[12] 	9998
scalar tree_4_3_u04_r15_network.node[12].content_store 	decision_yes[12] 	1031
scalar tree_4_3_u04_r15_network.node[12].content_store 	decision_no[12] 	8967
scalar tree_4_3_u04_r15_network.node[12].content_store 	decision_ratio[12] 	0.10312062412482
scalar tree_4_3_u04_r15_network.node[13].core_layer 	interests[13] 	12950
scalar tree_4_3_u04_r15_network.node[13].core_layer 	data[13] 	9366
scalar tree_4_3_u04_r15_network.node[13].content_store 	p_hit[13] 	0.27675675675676
scalar tree_4_3_u04_r15_network.node[13].content_store 	hits[13] 	3584
scalar tree_4_3_u04_r15_network.node[13].content_store 	misses[13] 	9366
scalar tree_4_3_u04_r15_network.node[13].content_store 	decision_yes[13] 	919
scalar tree_4_3_u04_r15_network.node[13].content_store 	decision_no[13] 	8447
scalar tree_4_3_u04_r15_network.node[13].content_store 	decision_ratio[13] 	0.098120862694854
scalar tree_4_3_u04_r15_network.node[14].core_layer 	interests[14] 	12904
scalar tree_4_3_u04_r15_network.node[14].core_layer 	data[14] 	9439
scalar tree_4_3_u04_r15_network.node[14].content_store 	p_hit[14] 	0.26852138871668
scalar tree_4_3_u04_r15_network.node[14].content_store 	hits[14] 	3465
scalar tree_4_3_u04_r15_network.node[14].content_store 	misses[14] 	9439
scalar tree_4_3_u04_r15_network.node[14].content_store 	decision_yes[14] 	949
scalar tree_4_3_u04_r15_network.node[14].content_store 	decision_no[14] 	8490
scalar tree_4_3_u04_r15_network.node[14].content_store 	decision_ratio[14] 	0.10054031147367
scalar tree_4_3_u04_r15_network.node[15].core_layer 	interests[15] 	13200
scalar tree_4_3_u04_r15_network.node[15].core_layer 	data[15] 	9652
scalar tree_4_3_u04_r15_network.node[15].content_store 	p_hit[15] 	0.26878787878788
scalar tree_4_3_u04_r15_network.node[15].content_store 	hits[15] 	3548
scalar tree_4_3_u04_r15_network.node[15].content_store 	misses[15] 	9652
scalar tree_4_3_u04_r15_network.node[15].content_store 	decision_yes[15] 	974
scalar tree_4_3_u04_r15_network.node[15].content_store 	decision_no[15] 	8678
scalar tree_4_3_u04_r15_network.node[15].content_store 	decision_ratio[15] 	0.10091172813925
scalar tree_4_3_u04_r15_network.node[16].core_layer 	interests[16] 	14581
scalar tree_4_3_u04_r15_network.node[16].core_layer 	data[16] 	9589
scalar tree_4_3_u04_r15_network.node[16].content_store 	p_hit[16] 	0.3423633495645
scalar tree_4_3_u04_r15_network.node[16].content_store 	hits[16] 	4992
scalar tree_4_3_u04_r15_network.node[16].content_store 	misses[16] 	9589
scalar tree_4_3_u04_r15_network.node[16].content_store 	decision_yes[16] 	914
scalar tree_4_3_u04_r15_network.node[16].content_store 	decision_no[16] 	8675
scalar tree_4_3_u04_r15_network.node[16].content_store 	decision_ratio[16] 	0.095317551360934
scalar tree_4_3_u04_r15_network.node[17].core_layer 	interests[17] 	13259
scalar tree_4_3_u04_r15_network.node[17].core_layer 	data[17] 	9486
scalar tree_4_3_u04_r15_network.node[17].content_store 	p_hit[17] 	0.28456142997209
scalar tree_4_3_u04_r15_network.node[17].content_store 	hits[17] 	3773
scalar tree_4_3_u04_r15_network.node[17].content_store 	misses[17] 	9486
scalar tree_4_3_u04_r15_network.node[17].content_store 	decision_yes[17] 	994
scalar tree_4_3_u04_r15_network.node[17].content_store 	decision_no[17] 	8492
scalar tree_4_3_u04_r15_network.node[17].content_store 	decision_ratio[17] 	0.10478600042167
scalar tree_4_3_u04_r15_network.node[18].core_layer 	interests[18] 	13546
scalar tree_4_3_u04_r15_network.node[18].core_layer 	data[18] 	9593
scalar tree_4_3_u04_r15_network.node[18].content_store 	p_hit[18] 	0.29182046360549
scalar tree_4_3_u04_r15_network.node[18].content_store 	hits[18] 	3953
scalar tree_4_3_u04_r15_network.node[18].content_store 	misses[18] 	9593
scalar tree_4_3_u04_r15_network.node[18].content_store 	decision_yes[18] 	925
scalar tree_4_3_u04_r15_network.node[18].content_store 	decision_no[18] 	8668
scalar tree_4_3_u04_r15_network.node[18].content_store 	decision_ratio[18] 	0.096424476180548
scalar tree_4_3_u04_r15_network.node[19].core_layer 	interests[19] 	13891
scalar tree_4_3_u04_r15_network.node[19].core_layer 	data[19] 	9451
scalar tree_4_3_u04_r15_network.node[19].content_store 	p_hit[19] 	0.31963141602476
scalar tree_4_3_u04_r15_network.node[19].content_store 	hits[19] 	4440
scalar tree_4_3_u04_r15_network.node[19].content_store 	misses[19] 	9451
scalar tree_4_3_u04_r15_network.node[19].content_store 	decision_yes[19] 	939
scalar tree_4_3_u04_r15_network.node[19].content_store 	decision_no[19] 	8512
scalar tree_4_3_u04_r15_network.node[19].content_store 	decision_ratio[19] 	0.099354565654428
scalar tree_4_3_u04_r15_network.node[20].core_layer 	interests[20] 	12629
scalar tree_4_3_u04_r15_network.node[20].core_layer 	data[20] 	9445
scalar tree_4_3_u04_r15_network.node[20].content_store 	p_hit[20] 	0.25219732362024
scalar tree_4_3_u04_r15_network.node[20].content_store 	hits[20] 	3185
scalar tree_4_3_u04_r15_network.node[20].content_store 	misses[20] 	9444
scalar tree_4_3_u04_r15_network.node[20].content_store 	decision_yes[20] 	899
scalar tree_4_3_u04_r15_network.node[20].content_store 	decision_no[20] 	8546
scalar tree_4_3_u04_r15_network.node[20].content_store 	decision_ratio[20] 	0.095182636315511
scalar tree_4_3_u04_r15_network.node[21].core_layer 	interests[21] 	12640
scalar tree_4_3_u04_r15_network.node[21].core_layer 	data[21] 	9479
scalar tree_4_3_u04_r15_network.node[21].content_store 	p_hit[21] 	0.25007911392405
scalar tree_4_3_u04_r15_network.node[21].content_store 	hits[21] 	3161
scalar tree_4_3_u04_r15_network.node[21].content_store 	misses[21] 	9479
scalar tree_4_3_u04_r15_network.node[21].content_store 	decision_yes[21] 	963
scalar tree_4_3_u04_r15_network.node[21].content_store 	decision_no[21] 	8516
scalar tree_4_3_u04_r15_network.node[21].content_store 	decision_ratio[21] 	0.10159299504167
scalar tree_4_3_u04_r15_network.node[22].core_layer 	interests[22] 	13557
scalar tree_4_3_u04_r15_network.node[22].core_layer 	data[22] 	9636
scalar tree_4_3_u04_r15_network.node[22].content_store 	p_hit[22] 	0.28922327948661
scalar tree_4_3_u04_r15_network.node[22].content_store 	hits[22] 	3921
scalar tree_4_3_u04_r15_network.node[22].content_store 	misses[22] 	9636
scalar tree_4_3_u04_r15_network.node[22].content_store 	decision_yes[22] 	979
scalar tree_4_3_u04_r15_network.node[22].content_store 	decision_no[22] 	8657
scalar tree_4_3_u04_r15_network.node[22].content_store 	decision_ratio[22] 	0.10159817351598
scalar tree_4_3_u04_r15_network.node[23].core_layer 	interests[23] 	13220
scalar tree_4_3_u04_r15_network.node[23].core_layer 	data[23] 	9568
scalar tree_4_3_u04_r15_network.node[23].content_store 	p_hit[23] 	0.27624810892587
scalar tree_4_3_u04_r15_network.node[23].content_store 	hits[23] 	3652
scalar tree_4_3_u04_r15_network.node[23].content_store 	misses[23] 	9568
scalar tree_4_3_u04_r15_network.node[23].content_store 	decision_yes[23] 	956
scalar tree_4_3_u04_r15_network.node[23].content_store 	decision_no[23] 	8612
scalar tree_4_3_u04_r15_network.node[23].content_store 	decision_ratio[23] 	0.099916387959866
scalar tree_4_3_u04_r15_network.node[24].core_layer 	interests[24] 	13283
scalar tree_4_3_u04_r15_network.node[24].core_layer 	data[24] 	9464
scalar tree_4_3_u04_r15_network.node[24].content_store 	p_hit[24] 	0.28735978318151
scalar tree_4_3_u04_r15_network.node[24].content_store 	hits[24] 	3817
scalar tree_4_3_u04_r15_network.node[24].content_store 	misses[24] 	9466
scalar tree_4_3_u04_r15_network.node[24].content_store 	decision_yes[24] 	974
scalar tree_4_3_u04_r15_network.node[24].content_store 	decision_no[24] 	8490
scalar tree_4_3_u04_r15_network.node[24].content_store 	decision_ratio[24] 	0.10291631445478
scalar tree_4_3_u04_r15_network.node[25].core_layer 	interests[25] 	14201
scalar tree_4_3_u04_r15_network.node[25].core_layer 	data[25] 	9609
scalar tree_4_3_u04_r15_network.node[25].content_store 	p_hit[25] 	0.3233575100345
scalar tree_4_3_u04_r15_network.node[25].content_store 	hits[25] 	4592
scalar tree_4_3_u04_r15_network.node[25].content_store 	misses[25] 	9609
scalar tree_4_3_u04_r15_network.node[25].content_store 	decision_yes[25] 	1044
scalar tree_4_3_u04_r15_network.node[25].content_store 	decision_no[25] 	8565
scalar tree_4_3_u04_r15_network.node[25].content_store 	decision_ratio[25] 	0.10864814236653
scalar tree_4_3_u04_r15_network.node[26].core_layer 	interests[26] 	12688
scalar tree_4_3_u04_r15_network.node[26].core_layer 	data[26] 	9337
scalar tree_4_3_u04_r15_network.node[26].content_store 	p_hit[26] 	0.2641078184111
scalar tree_4_3_u04_r15_network.node[26].content_store 	hits[26] 	3351
scalar tree_4_3_u04_r15_network.node[26].content_store 	misses[26] 	9337
scalar tree_4_3_u04_r15_network.node[26].content_store 	decision_yes[26] 	896
scalar tree_4_3_u04_r15_network.node[26].content_store 	decision_no[26] 	8441
scalar tree_4_3_u04_r15_network.node[26].content_store 	decision_ratio[26] 	0.095962300524794
scalar tree_4_3_u04_r15_network.node[27].core_layer 	interests[27] 	12967
scalar tree_4_3_u04_r15_network.node[27].core_layer 	data[27] 	9613
scalar tree_4_3_u04_r15_network.node[27].content_store 	p_hit[27] 	0.25865658980489
scalar tree_4_3_u04_r15_network.node[27].content_store 	hits[27] 	3354
scalar tree_4_3_u04_r15_network.node[27].content_store 	misses[27] 	9613
scalar tree_4_3_u04_r15_network.node[27].content_store 	decision_yes[27] 	983
scalar tree_4_3_u04_r15_network.node[27].content_store 	decision_no[27] 	8630
scalar tree_4_3_u04_r15_network.node[27].content_store 	decision_ratio[27] 	0.10225735982524
scalar tree_4_3_u04_r15_network.node[28].core_layer 	interests[28] 	14162
scalar tree_4_3_u04_r15_network.node[28].core_layer 	data[28] 	9455
scalar tree_4_3_u04_r15_network.node[28].content_store 	p_hit[28] 	0.3323683095608
scalar tree_4_3_u04_r15_network.node[28].content_store 	hits[28] 	4707
scalar tree_4_3_u04_r15_network.node[28].content_store 	misses[28] 	9455
scalar tree_4_3_u04_r15_network.node[28].content_store 	decision_yes[28] 	900
scalar tree_4_3_u04_r15_network.node[28].content_store 	decision_no[28] 	8555
scalar tree_4_3_u04_r15_network.node[28].content_store 	decision_ratio[28] 	0.095187731359069
scalar tree_4_3_u04_r15_network.node[29].core_layer 	interests[29] 	12902
scalar tree_4_3_u04_r15_network.node[29].core_layer 	data[29] 	9438
scalar tree_4_3_u04_r15_network.node[29].content_store 	p_hit[29] 	0.26848550612308
scalar tree_4_3_u04_r15_network.node[29].content_store 	hits[29] 	3464
scalar tree_4_3_u04_r15_network.node[29].content_store 	misses[29] 	9438
scalar tree_4_3_u04_r15_network.node[29].content_store 	decision_yes[29] 	937
scalar tree_4_3_u04_r15_network.node[29].content_store 	decision_no[29] 	8501
scalar tree_4_3_u04_r15_network.node[29].content_store 	decision_ratio[29] 	0.099279508370417
scalar tree_4_3_u04_r15_network.node[30].core_layer 	interests[30] 	12983
scalar tree_4_3_u04_r15_network.node[30].core_layer 	data[30] 	9533
scalar tree_4_3_u04_r15_network.node[30].content_store 	p_hit[30] 	0.26573211122237
scalar tree_4_3_u04_r15_network.node[30].content_store 	hits[30] 	3450
scalar tree_4_3_u04_r15_network.node[30].content_store 	misses[30] 	9533
scalar tree_4_3_u04_r15_network.node[30].content_store 	decision_yes[30] 	983
scalar tree_4_3_u04_r15_network.node[30].content_store 	decision_no[30] 	8550
scalar tree_4_3_u04_r15_network.node[30].content_store 	decision_ratio[30] 	0.10311549354873
scalar tree_4_3_u04_r15_network.node[31].core_layer 	interests[31] 	13011
scalar tree_4_3_u04_r15_network.node[31].core_layer 	data[31] 	9844
scalar tree_4_3_u04_r15_network.node[31].content_store 	p_hit[31] 	0.2433325647529
scalar tree_4_3_u04_r15_network.node[31].content_store 	hits[31] 	3166
scalar tree_4_3_u04_r15_network.node[31].content_store 	misses[31] 	9845
scalar tree_4_3_u04_r15_network.node[31].content_store 	decision_yes[31] 	1016
scalar tree_4_3_u04_r15_network.node[31].content_store 	decision_no[31] 	8828
scalar tree_4_3_u04_r15_network.node[31].content_store 	decision_ratio[31] 	0.10321007720439
scalar tree_4_3_u04_r15_network.node[32].core_layer 	interests[32] 	14315
scalar tree_4_3_u04_r15_network.node[32].core_layer 	data[32] 	9577
scalar tree_4_3_u04_r15_network.node[32].content_store 	p_hit[32] 	0.3309814879497
scalar tree_4_3_u04_r15_network.node[32].content_store 	hits[32] 	4738
scalar tree_4_3_u04_r15_network.node[32].content_store 	misses[32] 	9577
scalar tree_4_3_u04_r15_network.node[32].content_store 	decision_yes[32] 	983
scalar tree_4_3_u04_r15_network.node[32].content_store 	decision_no[32] 	8594
scalar tree_4_3_u04_r15_network.node[32].content_store 	decision_ratio[32] 	0.10264174584943
scalar tree_4_3_u04_r15_network.node[33].core_layer 	interests[33] 	12714
scalar tree_4_3_u04_r15_network.node[33].core_layer 	data[33] 	9385
scalar tree_4_3_u04_r15_network.node[33].content_store 	p_hit[33] 	0.26183734465943
scalar tree_4_3_u04_r15_network.node[33].content_store 	hits[33] 	3329
scalar tree_4_3_u04_r15_network.node[33].content_store 	misses[33] 	9385
scalar tree_4_3_u04_r15_network.node[33].content_store 	decision_yes[33] 	962
scalar tree_4_3_u04_r15_network.node[33].content_store 	decision_no[33] 	8423
scalar tree_4_3_u04_r15_network.node[33].content_store 	decision_ratio[33] 	0.10250399573788
scalar tree_4_3_u04_r15_network.node[34].core_layer 	interests[34] 	14376
scalar tree_4_3_u04_r15_network.node[34].core_layer 	data[34] 	9551
scalar tree_4_3_u04_r15_network.node[34].content_store 	p_hit[34] 	0.33562882582081
scalar tree_4_3_u04_r15_network.node[34].content_store 	hits[34] 	4825
scalar tree_4_3_u04_r15_network.node[34].content_store 	misses[34] 	9551
scalar tree_4_3_u04_r15_network.node[34].content_store 	decision_yes[34] 	970
scalar tree_4_3_u04_r15_network.node[34].content_store 	decision_no[34] 	8581
scalar tree_4_3_u04_r15_network.node[34].content_store 	decision_ratio[34] 	0.10156004606847
scalar tree_4_3_u04_r15_network.node[35].core_layer 	interests[35] 	13336
scalar tree_4_3_u04_r15_network.node[35].core_layer 	data[35] 	9378
scalar tree_4_3_u04_r15_network.node[35].content_store 	p_hit[35] 	0.29679064187163
scalar tree_4_3_u04_r15_network.node[35].content_store 	hits[35] 	3958
scalar tree_4_3_u04_r15_network.node[35].content_store 	misses[35] 	9378
scalar tree_4_3_u04_r15_network.node[35].content_store 	decision_yes[35] 	922
scalar tree_4_3_u04_r15_network.node[35].content_store 	decision_no[35] 	8456
scalar tree_4_3_u04_r15_network.node[35].content_store 	decision_ratio[35] 	0.09831520580081
scalar tree_4_3_u04_r15_network.node[36].core_layer 	interests[36] 	13477
scalar tree_4_3_u04_r15_network.node[36].core_layer 	data[36] 	9528
scalar tree_4_3_u04_r15_network.node[36].content_store 	p_hit[36] 	0.29301773391704
scalar tree_4_3_u04_r15_network.node[36].content_store 	hits[36] 	3949
scalar tree_4_3_u04_r15_network.node[36].content_store 	misses[36] 	9528
scalar tree_4_3_u04_r15_network.node[36].content_store 	decision_yes[36] 	942
scalar tree_4_3_u04_r15_network.node[36].content_store 	decision_no[36] 	8586
scalar tree_4_3_u04_r15_network.node[36].content_store 	decision_ratio[36] 	0.098866498740554
scalar tree_4_3_u04_r15_network.node[37].core_layer 	interests[37] 	13115
scalar tree_4_3_u04_r15_network.node[37].core_layer 	data[37] 	9417
scalar tree_4_3_u04_r15_network.node[37].content_store 	p_hit[37] 	0.28189096454441
scalar tree_4_3_u04_r15_network.node[37].content_store 	hits[37] 	3697
scalar tree_4_3_u04_r15_network.node[37].content_store 	misses[37] 	9418
scalar tree_4_3_u04_r15_network.node[37].content_store 	decision_yes[37] 	983
scalar tree_4_3_u04_r15_network.node[37].content_store 	decision_no[37] 	8434
scalar tree_4_3_u04_r15_network.node[37].content_store 	decision_ratio[37] 	0.10438568546246
scalar tree_4_3_u04_r15_network.node[38].core_layer 	interests[38] 	13893
scalar tree_4_3_u04_r15_network.node[38].core_layer 	data[38] 	9371
scalar tree_4_3_u04_r15_network.node[38].content_store 	p_hit[38] 	0.32548765565393
scalar tree_4_3_u04_r15_network.node[38].content_store 	hits[38] 	4522
scalar tree_4_3_u04_r15_network.node[38].content_store 	misses[38] 	9371
scalar tree_4_3_u04_r15_network.node[38].content_store 	decision_yes[38] 	911
scalar tree_4_3_u04_r15_network.node[38].content_store 	decision_no[38] 	8460
scalar tree_4_3_u04_r15_network.node[38].content_store 	decision_ratio[38] 	0.097214811652972
scalar tree_4_3_u04_r15_network.node[39].core_layer 	interests[39] 	12622
scalar tree_4_3_u04_r15_network.node[39].core_layer 	data[39] 	9815
scalar tree_4_3_u04_r15_network.node[39].content_store 	p_hit[39] 	0.22238947868801
scalar tree_4_3_u04_r15_network.node[39].content_store 	hits[39] 	2807
scalar tree_4_3_u04_r15_network.node[39].content_store 	misses[39] 	9815
scalar tree_4_3_u04_r15_network.node[39].content_store 	decision_yes[39] 	967
scalar tree_4_3_u04_r15_network.node[39].content_store 	decision_no[39] 	8848
scalar tree_4_3_u04_r15_network.node[39].content_store 	decision_ratio[39] 	0.098522669383597
scalar tree_4_3_u04_r15_network.client[13] 	hdistance[13] 	2.8595055128634
scalar tree_4_3_u04_r15_network.client[13] 	downloads[13] 	11972
scalar tree_4_3_u04_r15_network.client[13] 	avg_time[13] 	0.004464779894
scalar tree_4_3_u04_r15_network.client[14] 	hdistance[14] 	2.8915106222185
scalar tree_4_3_u04_r15_network.client[14] 	downloads[14] 	11909
scalar tree_4_3_u04_r15_network.client[14] 	avg_time[14] 	0.004524474305
scalar tree_4_3_u04_r15_network.client[15] 	hdistance[15] 	2.90625770907
scalar tree_4_3_u04_r15_network.client[15] 	downloads[15] 	12161
scalar tree_4_3_u04_r15_network.client[15] 	avg_time[15] 	0.004542215846
scalar tree_4_3_u04_r15_network.client[16] 	hdistance[16] 	2.7801524188204
scalar tree_4_3_u04_r15_network.client[16] 	downloads[16] 	12072
scalar tree_4_3_u04_r15_network.client[16] 	avg_time[16] 	0.004441017528
scalar tree_4_3_u04_r15_network.client[17] 	hdistance[17] 	2.8843823628408
scalar tree_4_3_u04_r15_network.client[17] 	downloads[17] 	11884
scalar tree_4_3_u04_r15_network.client[17] 	avg_time[17] 	0.004648849489
scalar tree_4_3_u04_r15_network.client[18] 	hdistance[18] 	2.8590976944767
scalar tree_4_3_u04_r15_network.client[18] 	downloads[18] 	12058
scalar tree_4_3_u04_r15_network.client[18] 	avg_time[18] 	0.004605736156
scalar tree_4_3_u04_r15_network.client[19] 	hdistance[19] 	2.7994877726371
scalar tree_4_3_u04_r15_network.client[19] 	downloads[19] 	12104
scalar tree_4_3_u04_r15_network.client[19] 	avg_time[19] 	0.004344841654
scalar tree_4_3_u04_r15_network.client[20] 	hdistance[20] 	2.9244712990937
scalar tree_4_3_u04_r15_network.client[20] 	downloads[20] 	11916
scalar tree_4_3_u04_r15_network.client[20] 	avg_time[20] 	0.004597954472
scalar tree_4_3_u04_r15_network.client[21] 	hdistance[21] 	2.9202947086403
scalar tree_4_3_u04_r15_network.client[21] 	downloads[21] 	11944
scalar tree_4_3_u04_r15_network.client[21] 	avg_time[21] 	0.004583608929
scalar tree_4_3_u04_r15_network.client[22] 	hdistance[22] 	2.8600049468217
scalar tree_4_3_u04_r15_network.client[22] 	downloads[22] 	12129
scalar tree_4_3_u04_r15_network.client[22] 	avg_time[22] 	0.00454772509
scalar tree_4_3_u04_r15_network.client[23] 	hdistance[23] 	2.8862515670706
scalar tree_4_3_u04_r15_network.client[23] 	downloads[23] 	11965
scalar tree_4_3_u04_r15_network.client[23] 	avg_time[23] 	0.004599746279
scalar tree_4_3_u04_r15_network.client[24] 	hdistance[24] 	2.8492785052965
scalar tree_4_3_u04_r15_network.client[24] 	downloads[24] 	11989
scalar tree_4_3_u04_r15_network.client[24] 	avg_time[24] 	0.004534996023
scalar tree_4_3_u04_r15_network.client[25] 	hdistance[25] 	2.777403727728
scalar tree_4_3_u04_r15_network.client[25] 	downloads[25] 	12179
scalar tree_4_3_u04_r15_network.client[25] 	avg_time[25] 	0.004396252813
scalar tree_4_3_u04_r15_network.client[26] 	hdistance[26] 	2.9054756024866
scalar tree_4_3_u04_r15_network.client[26] 	downloads[26] 	11743
scalar tree_4_3_u04_r15_network.client[26] 	avg_time[26] 	0.004639867614
scalar tree_4_3_u04_r15_network.client[27] 	hdistance[27] 	2.9036064483962
scalar tree_4_3_u04_r15_network.client[27] 	downloads[27] 	12034
scalar tree_4_3_u04_r15_network.client[27] 	avg_time[27] 	0.004638853581
scalar tree_4_3_u04_r15_network.client[28] 	hdistance[28] 	2.7881490124177
scalar tree_4_3_u04_r15_network.client[28] 	downloads[28] 	11999
scalar tree_4_3_u04_r15_network.client[28] 	avg_time[28] 	0.004408551584
scalar tree_4_3_u04_r15_network.client[29] 	hdistance[29] 	2.8875010478665
scalar tree_4_3_u04_r15_network.client[29] 	downloads[29] 	11929
scalar tree_4_3_u04_r15_network.client[29] 	avg_time[29] 	0.004610136972
scalar tree_4_3_u04_r15_network.client[30] 	hdistance[30] 	2.8789587133146
scalar tree_4_3_u04_r15_network.client[30] 	downloads[30] 	12062
scalar tree_4_3_u04_r15_network.client[30] 	avg_time[30] 	0.004599234268
scalar tree_4_3_u04_r15_network.client[31] 	hdistance[31] 	2.8862802641233
scalar tree_4_3_u04_r15_network.client[31] 	downloads[31] 	12267
scalar tree_4_3_u04_r15_network.client[31] 	avg_time[31] 	0.004526824492
scalar tree_4_3_u04_r15_network.client[32] 	hdistance[32] 	2.7838736492103
scalar tree_4_3_u04_r15_network.client[32] 	downloads[32] 	12030
scalar tree_4_3_u04_r15_network.client[32] 	avg_time[32] 	0.004427594661
scalar tree_4_3_u04_r15_network.client[33] 	hdistance[33] 	2.8607361448813
scalar tree_4_3_u04_r15_network.client[33] 	downloads[33] 	11927
scalar tree_4_3_u04_r15_network.client[33] 	avg_time[33] 	0.004473879802
scalar tree_4_3_u04_r15_network.client[34] 	hdistance[34] 	2.7685115619
scalar tree_4_3_u04_r15_network.client[34] 	downloads[34] 	11979
scalar tree_4_3_u04_r15_network.client[34] 	avg_time[34] 	0.004409291477
scalar tree_4_3_u04_r15_network.client[35] 	hdistance[35] 	2.8454793121062
scalar tree_4_3_u04_r15_network.client[35] 	downloads[35] 	11746
scalar tree_4_3_u04_r15_network.client[35] 	avg_time[35] 	0.004563593189
scalar tree_4_3_u04_r15_network.client[36] 	hdistance[36] 	2.840724285355
scalar tree_4_3_u04_r15_network.client[36] 	downloads[36] 	11929
scalar tree_4_3_u04_r15_network.client[36] 	avg_time[36] 	0.004553596757
scalar tree_4_3_u04_r15_network.client[37] 	hdistance[37] 	2.8079391891892
scalar tree_4_3_u04_r15_network.client[37] 	downloads[37] 	11840
scalar tree_4_3_u04_r15_network.client[37] 	avg_time[37] 	0.00436562197
scalar tree_4_3_u04_r15_network.client[38] 	hdistance[38] 	2.7715955284553
scalar tree_4_3_u04_r15_network.client[38] 	downloads[38] 	11808
scalar tree_4_3_u04_r15_network.client[38] 	avg_time[38] 	0.004403948659
scalar tree_4_3_u04_r15_network.client[39] 	hdistance[39] 	2.9474850250267
scalar tree_4_3_u04_r15_network.client[39] 	downloads[39] 	12187
scalar tree_4_3_u04_r15_network.client[39] 	avg_time[39] 	0.004630900555
