version 2
run General-172-20160818-20:24:07-19481
attr a 0.9
attr cd lce
attr configname General
attr cr lru
attr datetime 20160818-20:24:07
attr experiment General
attr fsize 1
attr inifile hw5115/scenario_A/EdgeCoop.ini
attr iterationvars "$name=tree_4_3, $un=08, $rep=13, $scenario=Edge, $cd=lce, $cr=lru, $fsize=1, $a=0.9, $sl=nrr, $ttl=1000, $variance=0.05"
attr iterationvars2 "$name=tree_4_3, $un=08, $rep=13, $scenario=Edge, $cd=lce, $cr=lru, $fsize=1, $a=0.9, $sl=nrr, $ttl=1000, $variance=0.05, $repetition=0"
attr measurement "$name=tree_4_3, $un=08, $rep=13, $scenario=Edge, $cd=lce, $cr=lru, $fsize=1, $a=0.9, $sl=nrr, $ttl=1000, $variance=0.05"
attr name tree_4_3
attr network networks.${name}_u${un}_r${rep}_network
attr processid 19481
attr rep 13
attr repetition 0
attr replication #0
attr resultdir results
attr runnumber 172
attr scenario Edge
attr seedset 13
attr sl nrr
attr ttl 1000
attr un 08
attr variance 0.05

scalar . 	a 	0.9
scalar . 	fsize 	1
scalar . 	rep 	13
scalar . 	ttl 	1000
scalar . 	un 	08
scalar . 	variance 	0.05
scalar tree_4_3_u08_r13_network.content_distribution 	repo-0 	0
scalar tree_4_3_u08_r13_network.content_distribution 	client-0 	13
scalar tree_4_3_u08_r13_network.content_distribution 	client-1 	14
scalar tree_4_3_u08_r13_network.content_distribution 	client-2 	15
scalar tree_4_3_u08_r13_network.content_distribution 	client-3 	16
scalar tree_4_3_u08_r13_network.content_distribution 	client-4 	17
scalar tree_4_3_u08_r13_network.content_distribution 	client-5 	18
scalar tree_4_3_u08_r13_network.content_distribution 	client-6 	19
scalar tree_4_3_u08_r13_network.content_distribution 	client-7 	20
scalar tree_4_3_u08_r13_network.content_distribution 	client-8 	21
scalar tree_4_3_u08_r13_network.content_distribution 	client-9 	22
scalar tree_4_3_u08_r13_network.content_distribution 	client-10 	23
scalar tree_4_3_u08_r13_network.content_distribution 	client-11 	24
scalar tree_4_3_u08_r13_network.content_distribution 	client-12 	25
scalar tree_4_3_u08_r13_network.content_distribution 	client-13 	26
scalar tree_4_3_u08_r13_network.content_distribution 	client-14 	27
scalar tree_4_3_u08_r13_network.content_distribution 	client-15 	28
scalar tree_4_3_u08_r13_network.content_distribution 	client-16 	29
scalar tree_4_3_u08_r13_network.content_distribution 	client-17 	30
scalar tree_4_3_u08_r13_network.content_distribution 	client-18 	31
scalar tree_4_3_u08_r13_network.content_distribution 	client-19 	32
scalar tree_4_3_u08_r13_network.content_distribution 	client-20 	33
scalar tree_4_3_u08_r13_network.content_distribution 	client-21 	34
scalar tree_4_3_u08_r13_network.content_distribution 	client-22 	35
scalar tree_4_3_u08_r13_network.content_distribution 	client-23 	36
scalar tree_4_3_u08_r13_network.content_distribution 	client-24 	37
scalar tree_4_3_u08_r13_network.content_distribution 	client-25 	38
scalar tree_4_3_u08_r13_network.content_distribution 	client-26 	39
scalar tree_4_3_u08_r13_network.content_distribution 	repo-0_card 	100000
scalar tree_4_3_u08_r13_network.content_distribution 	repo-0_price 	0
scalar tree_4_3_u08_r13_network.statistics 	stabilization_time 	328.4
scalar tree_4_3_u08_r13_network.statistics 	p_hit 	0.21372994150644
scalar tree_4_3_u08_r13_network.statistics 	interests 	28268.35
scalar tree_4_3_u08_r13_network.statistics 	data 	20157.125
scalar tree_4_3_u08_r13_network.statistics 	hdistance 	3.0944789706986
scalar tree_4_3_u08_r13_network.statistics 	avg_time 	0.004970312936
scalar tree_4_3_u08_r13_network.statistics 	downloads 	324425
scalar tree_4_3_u08_r13_network.statistics 	total_cost 	0
scalar tree_4_3_u08_r13_network.statistics 	total_replicas 	100000
scalar tree_4_3_u08_r13_network.statistics 	inner_hit 	0.39075595283964
scalar tree_4_3_u08_r13_network.node[0].core_layer 	interests[0] 	197654
scalar tree_4_3_u08_r13_network.node[0].core_layer 	repo_load[0] 	197654
scalar tree_4_3_u08_r13_network.node[0].core_layer 	data[0] 	0
scalar tree_4_3_u08_r13_network.node[0].core_layer 	repo_int[0] 	197654
scalar tree_4_3_u08_r13_network.node[0].content_store 	p_hit[0] 	0
scalar tree_4_3_u08_r13_network.node[0].content_store 	hits[0] 	0
scalar tree_4_3_u08_r13_network.node[0].content_store 	misses[0] 	197654
scalar tree_4_3_u08_r13_network.node[0].content_store 	decision_yes[0] 	0
scalar tree_4_3_u08_r13_network.node[0].content_store 	decision_no[0] 	197654
scalar tree_4_3_u08_r13_network.node[0].content_store 	decision_ratio[0] 	0
scalar tree_4_3_u08_r13_network.node[1].core_layer 	interests[1] 	147099
scalar tree_4_3_u08_r13_network.node[1].core_layer 	data[1] 	147088
scalar tree_4_3_u08_r13_network.node[1].content_store 	p_hit[1] 	0
scalar tree_4_3_u08_r13_network.node[1].content_store 	hits[1] 	0
scalar tree_4_3_u08_r13_network.node[1].content_store 	misses[1] 	147099
scalar tree_4_3_u08_r13_network.node[1].content_store 	decision_yes[1] 	0
scalar tree_4_3_u08_r13_network.node[1].content_store 	decision_no[1] 	147077
scalar tree_4_3_u08_r13_network.node[1].content_store 	decision_ratio[1] 	0
scalar tree_4_3_u08_r13_network.node[2].core_layer 	interests[2] 	70498
scalar tree_4_3_u08_r13_network.node[2].core_layer 	data[2] 	70495
scalar tree_4_3_u08_r13_network.node[2].content_store 	p_hit[2] 	0
scalar tree_4_3_u08_r13_network.node[2].content_store 	hits[2] 	0
scalar tree_4_3_u08_r13_network.node[2].content_store 	misses[2] 	70498
scalar tree_4_3_u08_r13_network.node[2].content_store 	decision_yes[2] 	0
scalar tree_4_3_u08_r13_network.node[2].content_store 	decision_no[2] 	70492
scalar tree_4_3_u08_r13_network.node[2].content_store 	decision_ratio[2] 	0
scalar tree_4_3_u08_r13_network.node[3].core_layer 	interests[3] 	12738
scalar tree_4_3_u08_r13_network.node[3].core_layer 	data[3] 	12738
scalar tree_4_3_u08_r13_network.node[3].content_store 	p_hit[3] 	0
scalar tree_4_3_u08_r13_network.node[3].content_store 	hits[3] 	0
scalar tree_4_3_u08_r13_network.node[3].content_store 	misses[3] 	12738
scalar tree_4_3_u08_r13_network.node[3].content_store 	decision_yes[3] 	0
scalar tree_4_3_u08_r13_network.node[3].content_store 	decision_no[3] 	12738
scalar tree_4_3_u08_r13_network.node[3].content_store 	decision_ratio[3] 	0
scalar tree_4_3_u08_r13_network.node[4].core_layer 	interests[4] 	50642
scalar tree_4_3_u08_r13_network.node[4].core_layer 	data[4] 	50639
scalar tree_4_3_u08_r13_network.node[4].content_store 	p_hit[4] 	0
scalar tree_4_3_u08_r13_network.node[4].content_store 	hits[4] 	0
scalar tree_4_3_u08_r13_network.node[4].content_store 	misses[4] 	50642
scalar tree_4_3_u08_r13_network.node[4].content_store 	decision_yes[4] 	0
scalar tree_4_3_u08_r13_network.node[4].content_store 	decision_no[4] 	50637
scalar tree_4_3_u08_r13_network.node[4].content_store 	decision_ratio[4] 	0
scalar tree_4_3_u08_r13_network.node[5].core_layer 	interests[5] 	34715
scalar tree_4_3_u08_r13_network.node[5].core_layer 	data[5] 	34711
scalar tree_4_3_u08_r13_network.node[5].content_store 	p_hit[5] 	0
scalar tree_4_3_u08_r13_network.node[5].content_store 	hits[5] 	0
scalar tree_4_3_u08_r13_network.node[5].content_store 	misses[5] 	34715
scalar tree_4_3_u08_r13_network.node[5].content_store 	decision_yes[5] 	0
scalar tree_4_3_u08_r13_network.node[5].content_store 	decision_no[5] 	34709
scalar tree_4_3_u08_r13_network.node[5].content_store 	decision_ratio[5] 	0
scalar tree_4_3_u08_r13_network.node[6].core_layer 	interests[6] 	16560
scalar tree_4_3_u08_r13_network.node[6].core_layer 	data[6] 	16558
scalar tree_4_3_u08_r13_network.node[6].content_store 	p_hit[6] 	0
scalar tree_4_3_u08_r13_network.node[6].content_store 	hits[6] 	0
scalar tree_4_3_u08_r13_network.node[6].content_store 	misses[6] 	16560
scalar tree_4_3_u08_r13_network.node[6].content_store 	decision_yes[6] 	0
scalar tree_4_3_u08_r13_network.node[6].content_store 	decision_no[6] 	16555
scalar tree_4_3_u08_r13_network.node[6].content_store 	decision_ratio[6] 	0
scalar tree_4_3_u08_r13_network.node[7].core_layer 	interests[7] 	54363
scalar tree_4_3_u08_r13_network.node[7].core_layer 	data[7] 	54356
scalar tree_4_3_u08_r13_network.node[7].content_store 	p_hit[7] 	0
scalar tree_4_3_u08_r13_network.node[7].content_store 	hits[7] 	0
scalar tree_4_3_u08_r13_network.node[7].content_store 	misses[7] 	54363
scalar tree_4_3_u08_r13_network.node[7].content_store 	decision_yes[7] 	0
scalar tree_4_3_u08_r13_network.node[7].content_store 	decision_no[7] 	54346
scalar tree_4_3_u08_r13_network.node[7].content_store 	decision_ratio[7] 	0
scalar tree_4_3_u08_r13_network.node[8].core_layer 	interests[8] 	32162
scalar tree_4_3_u08_r13_network.node[8].core_layer 	data[8] 	32160
scalar tree_4_3_u08_r13_network.node[8].content_store 	p_hit[8] 	0
scalar tree_4_3_u08_r13_network.node[8].content_store 	hits[8] 	0
scalar tree_4_3_u08_r13_network.node[8].content_store 	misses[8] 	32162
scalar tree_4_3_u08_r13_network.node[8].content_store 	decision_yes[8] 	0
scalar tree_4_3_u08_r13_network.node[8].content_store 	decision_no[8] 	32158
scalar tree_4_3_u08_r13_network.node[8].content_store 	decision_ratio[8] 	0
scalar tree_4_3_u08_r13_network.node[9].core_layer 	interests[9] 	13699
scalar tree_4_3_u08_r13_network.node[9].core_layer 	data[9] 	13699
scalar tree_4_3_u08_r13_network.node[9].content_store 	p_hit[9] 	0
scalar tree_4_3_u08_r13_network.node[9].content_store 	hits[9] 	0
scalar tree_4_3_u08_r13_network.node[9].content_store 	misses[9] 	13699
scalar tree_4_3_u08_r13_network.node[9].content_store 	decision_yes[9] 	0
scalar tree_4_3_u08_r13_network.node[9].content_store 	decision_no[9] 	13698
scalar tree_4_3_u08_r13_network.node[9].content_store 	decision_ratio[9] 	0
scalar tree_4_3_u08_r13_network.node[10].core_layer 	interests[10] 	43301
scalar tree_4_3_u08_r13_network.node[10].core_layer 	data[10] 	43301
scalar tree_4_3_u08_r13_network.node[10].content_store 	p_hit[10] 	0
scalar tree_4_3_u08_r13_network.node[10].content_store 	hits[10] 	0
scalar tree_4_3_u08_r13_network.node[10].content_store 	misses[10] 	43301
scalar tree_4_3_u08_r13_network.node[10].content_store 	decision_yes[10] 	0
scalar tree_4_3_u08_r13_network.node[10].content_store 	decision_no[10] 	43294
scalar tree_4_3_u08_r13_network.node[10].content_store 	decision_ratio[10] 	0
scalar tree_4_3_u08_r13_network.node[11].core_layer 	interests[11] 	46245
scalar tree_4_3_u08_r13_network.node[11].core_layer 	data[11] 	46239
scalar tree_4_3_u08_r13_network.node[11].content_store 	p_hit[11] 	0
scalar tree_4_3_u08_r13_network.node[11].content_store 	hits[11] 	0
scalar tree_4_3_u08_r13_network.node[11].content_store 	misses[11] 	46245
scalar tree_4_3_u08_r13_network.node[11].content_store 	decision_yes[11] 	0
scalar tree_4_3_u08_r13_network.node[11].content_store 	decision_no[11] 	46235
scalar tree_4_3_u08_r13_network.node[11].content_store 	decision_ratio[11] 	0
scalar tree_4_3_u08_r13_network.node[12].core_layer 	interests[12] 	12643
scalar tree_4_3_u08_r13_network.node[12].core_layer 	data[12] 	12643
scalar tree_4_3_u08_r13_network.node[12].content_store 	p_hit[12] 	0
scalar tree_4_3_u08_r13_network.node[12].content_store 	hits[12] 	0
scalar tree_4_3_u08_r13_network.node[12].content_store 	misses[12] 	12643
scalar tree_4_3_u08_r13_network.node[12].content_store 	decision_yes[12] 	0
scalar tree_4_3_u08_r13_network.node[12].content_store 	decision_no[12] 	12643
scalar tree_4_3_u08_r13_network.node[12].content_store 	decision_ratio[12] 	0
scalar tree_4_3_u08_r13_network.node[13].core_layer 	interests[13] 	13972
scalar tree_4_3_u08_r13_network.node[13].core_layer 	data[13] 	10165
scalar tree_4_3_u08_r13_network.node[13].content_store 	p_hit[13] 	0.2724735184655
scalar tree_4_3_u08_r13_network.node[13].content_store 	hits[13] 	3807
scalar tree_4_3_u08_r13_network.node[13].content_store 	misses[13] 	10165
scalar tree_4_3_u08_r13_network.node[13].content_store 	decision_yes[13] 	10165
scalar tree_4_3_u08_r13_network.node[13].content_store 	decision_no[13] 	0
scalar tree_4_3_u08_r13_network.node[13].content_store 	decision_ratio[13] 	1
scalar tree_4_3_u08_r13_network.node[14].core_layer 	interests[14] 	13820
scalar tree_4_3_u08_r13_network.node[14].core_layer 	data[14] 	9986
scalar tree_4_3_u08_r13_network.node[14].content_store 	p_hit[14] 	0.2773516642547
scalar tree_4_3_u08_r13_network.node[14].content_store 	hits[14] 	3833
scalar tree_4_3_u08_r13_network.node[14].content_store 	misses[14] 	9987
scalar tree_4_3_u08_r13_network.node[14].content_store 	decision_yes[14] 	9986
scalar tree_4_3_u08_r13_network.node[14].content_store 	decision_no[14] 	0
scalar tree_4_3_u08_r13_network.node[14].content_store 	decision_ratio[14] 	1
scalar tree_4_3_u08_r13_network.node[15].core_layer 	interests[15] 	15387
scalar tree_4_3_u08_r13_network.node[15].core_layer 	data[15] 	10186
scalar tree_4_3_u08_r13_network.node[15].content_store 	p_hit[15] 	0.33794761811919
scalar tree_4_3_u08_r13_network.node[15].content_store 	hits[15] 	5200
scalar tree_4_3_u08_r13_network.node[15].content_store 	misses[15] 	10187
scalar tree_4_3_u08_r13_network.node[15].content_store 	decision_yes[15] 	10186
scalar tree_4_3_u08_r13_network.node[15].content_store 	decision_no[15] 	0
scalar tree_4_3_u08_r13_network.node[15].content_store 	decision_ratio[15] 	1
scalar tree_4_3_u08_r13_network.node[16].core_layer 	interests[16] 	15461
scalar tree_4_3_u08_r13_network.node[16].core_layer 	data[16] 	9913
scalar tree_4_3_u08_r13_network.node[16].content_store 	p_hit[16] 	0.35877368863592
scalar tree_4_3_u08_r13_network.node[16].content_store 	hits[16] 	5547
scalar tree_4_3_u08_r13_network.node[16].content_store 	misses[16] 	9914
scalar tree_4_3_u08_r13_network.node[16].content_store 	decision_yes[16] 	9913
scalar tree_4_3_u08_r13_network.node[16].content_store 	decision_no[16] 	0
scalar tree_4_3_u08_r13_network.node[16].content_store 	decision_ratio[16] 	1
scalar tree_4_3_u08_r13_network.node[17].core_layer 	interests[17] 	14313
scalar tree_4_3_u08_r13_network.node[17].core_layer 	data[17] 	10100
scalar tree_4_3_u08_r13_network.node[17].content_store 	p_hit[17] 	0.29427792915531
scalar tree_4_3_u08_r13_network.node[17].content_store 	hits[17] 	4212
scalar tree_4_3_u08_r13_network.node[17].content_store 	misses[17] 	10101
scalar tree_4_3_u08_r13_network.node[17].content_store 	decision_yes[17] 	10100
scalar tree_4_3_u08_r13_network.node[17].content_store 	decision_no[17] 	0
scalar tree_4_3_u08_r13_network.node[17].content_store 	decision_ratio[17] 	1
scalar tree_4_3_u08_r13_network.node[18].core_layer 	interests[18] 	15375
scalar tree_4_3_u08_r13_network.node[18].core_layer 	data[18] 	10037
scalar tree_4_3_u08_r13_network.node[18].content_store 	p_hit[18] 	0.34718699186992
scalar tree_4_3_u08_r13_network.node[18].content_store 	hits[18] 	5338
scalar tree_4_3_u08_r13_network.node[18].content_store 	misses[18] 	10037
scalar tree_4_3_u08_r13_network.node[18].content_store 	decision_yes[18] 	10037
scalar tree_4_3_u08_r13_network.node[18].content_store 	decision_no[18] 	0
scalar tree_4_3_u08_r13_network.node[18].content_store 	decision_ratio[18] 	1
scalar tree_4_3_u08_r13_network.node[19].core_layer 	interests[19] 	15135
scalar tree_4_3_u08_r13_network.node[19].core_layer 	data[19] 	9946
scalar tree_4_3_u08_r13_network.node[19].content_store 	p_hit[19] 	0.34278163197886
scalar tree_4_3_u08_r13_network.node[19].content_store 	hits[19] 	5188
scalar tree_4_3_u08_r13_network.node[19].content_store 	misses[19] 	9947
scalar tree_4_3_u08_r13_network.node[19].content_store 	decision_yes[19] 	9946
scalar tree_4_3_u08_r13_network.node[19].content_store 	decision_no[19] 	0
scalar tree_4_3_u08_r13_network.node[19].content_store 	decision_ratio[19] 	1
scalar tree_4_3_u08_r13_network.node[20].core_layer 	interests[20] 	15375
scalar tree_4_3_u08_r13_network.node[20].core_layer 	data[20] 	10048
scalar tree_4_3_u08_r13_network.node[20].content_store 	p_hit[20] 	0.34647154471545
scalar tree_4_3_u08_r13_network.node[20].content_store 	hits[20] 	5327
scalar tree_4_3_u08_r13_network.node[20].content_store 	misses[20] 	10048
scalar tree_4_3_u08_r13_network.node[20].content_store 	decision_yes[20] 	10048
scalar tree_4_3_u08_r13_network.node[20].content_store 	decision_no[20] 	0
scalar tree_4_3_u08_r13_network.node[20].content_store 	decision_ratio[20] 	1
scalar tree_4_3_u08_r13_network.node[21].core_layer 	interests[21] 	14427
scalar tree_4_3_u08_r13_network.node[21].core_layer 	data[21] 	10112
scalar tree_4_3_u08_r13_network.node[21].content_store 	p_hit[21] 	0.29909198031469
scalar tree_4_3_u08_r13_network.node[21].content_store 	hits[21] 	4315
scalar tree_4_3_u08_r13_network.node[21].content_store 	misses[21] 	10112
scalar tree_4_3_u08_r13_network.node[21].content_store 	decision_yes[21] 	10112
scalar tree_4_3_u08_r13_network.node[21].content_store 	decision_no[21] 	0
scalar tree_4_3_u08_r13_network.node[21].content_store 	decision_ratio[21] 	1
scalar tree_4_3_u08_r13_network.node[22].core_layer 	interests[22] 	14393
scalar tree_4_3_u08_r13_network.node[22].core_layer 	data[22] 	10009
scalar tree_4_3_u08_r13_network.node[22].content_store 	p_hit[22] 	0.30452303202946
scalar tree_4_3_u08_r13_network.node[22].content_store 	hits[22] 	4383
scalar tree_4_3_u08_r13_network.node[22].content_store 	misses[22] 	10010
scalar tree_4_3_u08_r13_network.node[22].content_store 	decision_yes[22] 	10009
scalar tree_4_3_u08_r13_network.node[22].content_store 	decision_no[22] 	0
scalar tree_4_3_u08_r13_network.node[22].content_store 	decision_ratio[22] 	1
scalar tree_4_3_u08_r13_network.node[23].core_layer 	interests[23] 	15440
scalar tree_4_3_u08_r13_network.node[23].core_layer 	data[23] 	10103
scalar tree_4_3_u08_r13_network.node[23].content_store 	p_hit[23] 	0.34566062176166
scalar tree_4_3_u08_r13_network.node[23].content_store 	hits[23] 	5337
scalar tree_4_3_u08_r13_network.node[23].content_store 	misses[23] 	10103
scalar tree_4_3_u08_r13_network.node[23].content_store 	decision_yes[23] 	10103
scalar tree_4_3_u08_r13_network.node[23].content_store 	decision_no[23] 	0
scalar tree_4_3_u08_r13_network.node[23].content_store 	decision_ratio[23] 	1
scalar tree_4_3_u08_r13_network.node[24].core_layer 	interests[24] 	15348
scalar tree_4_3_u08_r13_network.node[24].core_layer 	data[24] 	10040
scalar tree_4_3_u08_r13_network.node[24].content_store 	p_hit[24] 	0.34577795152463
scalar tree_4_3_u08_r13_network.node[24].content_store 	hits[24] 	5307
scalar tree_4_3_u08_r13_network.node[24].content_store 	misses[24] 	10041
scalar tree_4_3_u08_r13_network.node[24].content_store 	decision_yes[24] 	10040
scalar tree_4_3_u08_r13_network.node[24].content_store 	decision_no[24] 	0
scalar tree_4_3_u08_r13_network.node[24].content_store 	decision_ratio[24] 	1
scalar tree_4_3_u08_r13_network.node[25].core_layer 	interests[25] 	15505
scalar tree_4_3_u08_r13_network.node[25].core_layer 	data[25] 	10213
scalar tree_4_3_u08_r13_network.node[25].content_store 	p_hit[25] 	0.34130925507901
scalar tree_4_3_u08_r13_network.node[25].content_store 	hits[25] 	5292
scalar tree_4_3_u08_r13_network.node[25].content_store 	misses[25] 	10213
scalar tree_4_3_u08_r13_network.node[25].content_store 	decision_yes[25] 	10213
scalar tree_4_3_u08_r13_network.node[25].content_store 	decision_no[25] 	0
scalar tree_4_3_u08_r13_network.node[25].content_store 	decision_ratio[25] 	1
scalar tree_4_3_u08_r13_network.node[26].core_layer 	interests[26] 	13672
scalar tree_4_3_u08_r13_network.node[26].core_layer 	data[26] 	9925
scalar tree_4_3_u08_r13_network.node[26].content_store 	p_hit[26] 	0.2740637799883
scalar tree_4_3_u08_r13_network.node[26].content_store 	hits[26] 	3747
scalar tree_4_3_u08_r13_network.node[26].content_store 	misses[26] 	9925
scalar tree_4_3_u08_r13_network.node[26].content_store 	decision_yes[26] 	9925
scalar tree_4_3_u08_r13_network.node[26].content_store 	decision_no[26] 	0
scalar tree_4_3_u08_r13_network.node[26].content_store 	decision_ratio[26] 	1
scalar tree_4_3_u08_r13_network.node[27].core_layer 	interests[27] 	14471
scalar tree_4_3_u08_r13_network.node[27].core_layer 	data[27] 	9983
scalar tree_4_3_u08_r13_network.node[27].content_store 	p_hit[27] 	0.31013751641213
scalar tree_4_3_u08_r13_network.node[27].content_store 	hits[27] 	4488
scalar tree_4_3_u08_r13_network.node[27].content_store 	misses[27] 	9983
scalar tree_4_3_u08_r13_network.node[27].content_store 	decision_yes[27] 	9983
scalar tree_4_3_u08_r13_network.node[27].content_store 	decision_no[27] 	0
scalar tree_4_3_u08_r13_network.node[27].content_store 	decision_ratio[27] 	1
scalar tree_4_3_u08_r13_network.node[28].core_layer 	interests[28] 	15294
scalar tree_4_3_u08_r13_network.node[28].core_layer 	data[28] 	9997
scalar tree_4_3_u08_r13_network.node[28].content_store 	p_hit[28] 	0.34627958676605
scalar tree_4_3_u08_r13_network.node[28].content_store 	hits[28] 	5296
scalar tree_4_3_u08_r13_network.node[28].content_store 	misses[28] 	9998
scalar tree_4_3_u08_r13_network.node[28].content_store 	decision_yes[28] 	9997
scalar tree_4_3_u08_r13_network.node[28].content_store 	decision_no[28] 	0
scalar tree_4_3_u08_r13_network.node[28].content_store 	decision_ratio[28] 	1
scalar tree_4_3_u08_r13_network.node[29].core_layer 	interests[29] 	14507
scalar tree_4_3_u08_r13_network.node[29].core_layer 	data[29] 	10062
scalar tree_4_3_u08_r13_network.node[29].content_store 	p_hit[29] 	0.30633487282002
scalar tree_4_3_u08_r13_network.node[29].content_store 	hits[29] 	4444
scalar tree_4_3_u08_r13_network.node[29].content_store 	misses[29] 	10063
scalar tree_4_3_u08_r13_network.node[29].content_store 	decision_yes[29] 	10062
scalar tree_4_3_u08_r13_network.node[29].content_store 	decision_no[29] 	0
scalar tree_4_3_u08_r13_network.node[29].content_store 	decision_ratio[29] 	1
scalar tree_4_3_u08_r13_network.node[30].core_layer 	interests[30] 	13654
scalar tree_4_3_u08_r13_network.node[30].core_layer 	data[30] 	9981
scalar tree_4_3_u08_r13_network.node[30].content_store 	p_hit[30] 	0.26900541965724
scalar tree_4_3_u08_r13_network.node[30].content_store 	hits[30] 	3673
scalar tree_4_3_u08_r13_network.node[30].content_store 	misses[30] 	9981
scalar tree_4_3_u08_r13_network.node[30].content_store 	decision_yes[30] 	9981
scalar tree_4_3_u08_r13_network.node[30].content_store 	decision_no[30] 	0
scalar tree_4_3_u08_r13_network.node[30].content_store 	decision_ratio[30] 	1
scalar tree_4_3_u08_r13_network.node[31].core_layer 	interests[31] 	14328
scalar tree_4_3_u08_r13_network.node[31].core_layer 	data[31] 	10198
scalar tree_4_3_u08_r13_network.node[31].content_store 	p_hit[31] 	0.28810720268007
scalar tree_4_3_u08_r13_network.node[31].content_store 	hits[31] 	4128
scalar tree_4_3_u08_r13_network.node[31].content_store 	misses[31] 	10200
scalar tree_4_3_u08_r13_network.node[31].content_store 	decision_yes[31] 	10198
scalar tree_4_3_u08_r13_network.node[31].content_store 	decision_no[31] 	0
scalar tree_4_3_u08_r13_network.node[31].content_store 	decision_ratio[31] 	1
scalar tree_4_3_u08_r13_network.node[32].core_layer 	interests[32] 	16060
scalar tree_4_3_u08_r13_network.node[32].core_layer 	data[32] 	10051
scalar tree_4_3_u08_r13_network.node[32].content_store 	p_hit[32] 	0.37415940224159
scalar tree_4_3_u08_r13_network.node[32].content_store 	hits[32] 	6009
scalar tree_4_3_u08_r13_network.node[32].content_store 	misses[32] 	10051
scalar tree_4_3_u08_r13_network.node[32].content_store 	decision_yes[32] 	10051
scalar tree_4_3_u08_r13_network.node[32].content_store 	decision_no[32] 	0
scalar tree_4_3_u08_r13_network.node[32].content_store 	decision_ratio[32] 	1
scalar tree_4_3_u08_r13_network.node[33].core_layer 	interests[33] 	14216
scalar tree_4_3_u08_r13_network.node[33].core_layer 	data[33] 	10150
scalar tree_4_3_u08_r13_network.node[33].content_store 	p_hit[33] 	0.28587507034328
scalar tree_4_3_u08_r13_network.node[33].content_store 	hits[33] 	4064
scalar tree_4_3_u08_r13_network.node[33].content_store 	misses[33] 	10152
scalar tree_4_3_u08_r13_network.node[33].content_store 	decision_yes[33] 	10150
scalar tree_4_3_u08_r13_network.node[33].content_store 	decision_no[33] 	0
scalar tree_4_3_u08_r13_network.node[33].content_store 	decision_ratio[33] 	1
scalar tree_4_3_u08_r13_network.node[34].core_layer 	interests[34] 	14566
scalar tree_4_3_u08_r13_network.node[34].core_layer 	data[34] 	10147
scalar tree_4_3_u08_r13_network.node[34].content_store 	p_hit[34] 	0.30337772895785
scalar tree_4_3_u08_r13_network.node[34].content_store 	hits[34] 	4419
scalar tree_4_3_u08_r13_network.node[34].content_store 	misses[34] 	10147
scalar tree_4_3_u08_r13_network.node[34].content_store 	decision_yes[34] 	10147
scalar tree_4_3_u08_r13_network.node[34].content_store 	decision_no[34] 	0
scalar tree_4_3_u08_r13_network.node[34].content_store 	decision_ratio[34] 	1
scalar tree_4_3_u08_r13_network.node[35].core_layer 	interests[35] 	14604
scalar tree_4_3_u08_r13_network.node[35].core_layer 	data[35] 	10235
scalar tree_4_3_u08_r13_network.node[35].content_store 	p_hit[35] 	0.29916461243495
scalar tree_4_3_u08_r13_network.node[35].content_store 	hits[35] 	4369
scalar tree_4_3_u08_r13_network.node[35].content_store 	misses[35] 	10235
scalar tree_4_3_u08_r13_network.node[35].content_store 	decision_yes[35] 	10235
scalar tree_4_3_u08_r13_network.node[35].content_store 	decision_no[35] 	0
scalar tree_4_3_u08_r13_network.node[35].content_store 	decision_ratio[35] 	1
scalar tree_4_3_u08_r13_network.node[36].core_layer 	interests[36] 	15175
scalar tree_4_3_u08_r13_network.node[36].core_layer 	data[36] 	9862
scalar tree_4_3_u08_r13_network.node[36].content_store 	p_hit[36] 	0.34998352553542
scalar tree_4_3_u08_r13_network.node[36].content_store 	hits[36] 	5311
scalar tree_4_3_u08_r13_network.node[36].content_store 	misses[36] 	9864
scalar tree_4_3_u08_r13_network.node[36].content_store 	decision_yes[36] 	9862
scalar tree_4_3_u08_r13_network.node[36].content_store 	decision_no[36] 	0
scalar tree_4_3_u08_r13_network.node[36].content_store 	decision_ratio[36] 	1
scalar tree_4_3_u08_r13_network.node[37].core_layer 	interests[37] 	15204
scalar tree_4_3_u08_r13_network.node[37].core_layer 	data[37] 	10002
scalar tree_4_3_u08_r13_network.node[37].content_store 	p_hit[37] 	0.34214680347277
scalar tree_4_3_u08_r13_network.node[37].content_store 	hits[37] 	5202
scalar tree_4_3_u08_r13_network.node[37].content_store 	misses[37] 	10002
scalar tree_4_3_u08_r13_network.node[37].content_store 	decision_yes[37] 	10002
scalar tree_4_3_u08_r13_network.node[37].content_store 	decision_no[37] 	0
scalar tree_4_3_u08_r13_network.node[37].content_store 	decision_ratio[37] 	1
scalar tree_4_3_u08_r13_network.node[38].core_layer 	interests[38] 	15247
scalar tree_4_3_u08_r13_network.node[38].core_layer 	data[38] 	10099
scalar tree_4_3_u08_r13_network.node[38].content_store 	p_hit[38] 	0.33764019151308
scalar tree_4_3_u08_r13_network.node[38].content_store 	hits[38] 	5148
scalar tree_4_3_u08_r13_network.node[38].content_store 	misses[38] 	10099
scalar tree_4_3_u08_r13_network.node[38].content_store 	decision_yes[38] 	10099
scalar tree_4_3_u08_r13_network.node[38].content_store 	decision_no[38] 	0
scalar tree_4_3_u08_r13_network.node[38].content_store 	decision_ratio[38] 	1
scalar tree_4_3_u08_r13_network.node[39].core_layer 	interests[39] 	13466
scalar tree_4_3_u08_r13_network.node[39].core_layer 	data[39] 	10108
scalar tree_4_3_u08_r13_network.node[39].content_store 	p_hit[39] 	0.24929451953067
scalar tree_4_3_u08_r13_network.node[39].content_store 	hits[39] 	3357
scalar tree_4_3_u08_r13_network.node[39].content_store 	misses[39] 	10109
scalar tree_4_3_u08_r13_network.node[39].content_store 	decision_yes[39] 	10108
scalar tree_4_3_u08_r13_network.node[39].content_store 	decision_no[39] 	0
scalar tree_4_3_u08_r13_network.node[39].content_store 	decision_ratio[39] 	1
scalar tree_4_3_u08_r13_network.client[13] 	hdistance[13] 	3.1513486513487
scalar tree_4_3_u08_r13_network.client[13] 	downloads[13] 	12012
scalar tree_4_3_u08_r13_network.client[13] 	avg_time[13] 	0.005046986097
scalar tree_4_3_u08_r13_network.client[14] 	hdistance[14] 	3.1228305525279
scalar tree_4_3_u08_r13_network.client[14] 	downloads[14] 	11927
scalar tree_4_3_u08_r13_network.client[14] 	avg_time[14] 	0.004994657233
scalar tree_4_3_u08_r13_network.client[15] 	hdistance[15] 	3.0649457415324
scalar tree_4_3_u08_r13_network.client[15] 	downloads[15] 	12164
scalar tree_4_3_u08_r13_network.client[15] 	avg_time[15] 	0.004912682741
scalar tree_4_3_u08_r13_network.client[16] 	hdistance[16] 	3.0330204492122
scalar tree_4_3_u08_r13_network.client[16] 	downloads[16] 	11932
scalar tree_4_3_u08_r13_network.client[16] 	avg_time[16] 	0.004869004269
scalar tree_4_3_u08_r13_network.client[17] 	hdistance[17] 	3.1768057650411
scalar tree_4_3_u08_r13_network.client[17] 	downloads[17] 	11934
scalar tree_4_3_u08_r13_network.client[17] 	avg_time[17] 	0.005149940439
scalar tree_4_3_u08_r13_network.client[18] 	hdistance[18] 	3.0682121414276
scalar tree_4_3_u08_r13_network.client[18] 	downloads[18] 	11992
scalar tree_4_3_u08_r13_network.client[18] 	avg_time[18] 	0.00495712334
scalar tree_4_3_u08_r13_network.client[19] 	hdistance[19] 	3.0580319596299
scalar tree_4_3_u08_r13_network.client[19] 	downloads[19] 	11890
scalar tree_4_3_u08_r13_network.client[19] 	avg_time[19] 	0.004894841556
scalar tree_4_3_u08_r13_network.client[20] 	hdistance[20] 	3.0735417014875
scalar tree_4_3_u08_r13_network.client[20] 	downloads[20] 	11966
scalar tree_4_3_u08_r13_network.client[20] 	avg_time[20] 	0.004953368782
scalar tree_4_3_u08_r13_network.client[21] 	hdistance[21] 	3.1177982259803
scalar tree_4_3_u08_r13_network.client[21] 	downloads[21] 	12063
scalar tree_4_3_u08_r13_network.client[21] 	avg_time[21] 	0.005019642602
scalar tree_4_3_u08_r13_network.client[22] 	hdistance[22] 	3.135121500042
scalar tree_4_3_u08_r13_network.client[22] 	downloads[22] 	11893
scalar tree_4_3_u08_r13_network.client[22] 	avg_time[22] 	0.005060681988
scalar tree_4_3_u08_r13_network.client[23] 	hdistance[23] 	3.0428489184966
scalar tree_4_3_u08_r13_network.client[23] 	downloads[23] 	12159
scalar tree_4_3_u08_r13_network.client[23] 	avg_time[23] 	0.004885738157
scalar tree_4_3_u08_r13_network.client[24] 	hdistance[24] 	3.0385953288057
scalar tree_4_3_u08_r13_network.client[24] 	downloads[24] 	12074
scalar tree_4_3_u08_r13_network.client[24] 	avg_time[24] 	0.004890090827
scalar tree_4_3_u08_r13_network.client[25] 	hdistance[25] 	3.0589779345419
scalar tree_4_3_u08_r13_network.client[25] 	downloads[25] 	12191
scalar tree_4_3_u08_r13_network.client[25] 	avg_time[25] 	0.004920676127
scalar tree_4_3_u08_r13_network.client[26] 	hdistance[26] 	3.1402899042129
scalar tree_4_3_u08_r13_network.client[26] 	downloads[26] 	11797
scalar tree_4_3_u08_r13_network.client[26] 	avg_time[26] 	0.005016810422
scalar tree_4_3_u08_r13_network.client[27] 	hdistance[27] 	3.0620343239849
scalar tree_4_3_u08_r13_network.client[27] 	downloads[27] 	11945
scalar tree_4_3_u08_r13_network.client[27] 	avg_time[27] 	0.004861612726
scalar tree_4_3_u08_r13_network.client[28] 	hdistance[28] 	3.0350103950104
scalar tree_4_3_u08_r13_network.client[28] 	downloads[28] 	12025
scalar tree_4_3_u08_r13_network.client[28] 	avg_time[28] 	0.004876511048
scalar tree_4_3_u08_r13_network.client[29] 	hdistance[29] 	3.0742255990649
scalar tree_4_3_u08_r13_network.client[29] 	downloads[29] 	11977
scalar tree_4_3_u08_r13_network.client[29] 	avg_time[29] 	0.004876537046
scalar tree_4_3_u08_r13_network.client[30] 	hdistance[30] 	3.122454111139
scalar tree_4_3_u08_r13_network.client[30] 	downloads[30] 	11931
scalar tree_4_3_u08_r13_network.client[30] 	avg_time[30] 	0.004990190663
scalar tree_4_3_u08_r13_network.client[31] 	hdistance[31] 	3.1602727347408
scalar tree_4_3_u08_r13_network.client[31] 	downloads[31] 	12173
scalar tree_4_3_u08_r13_network.client[31] 	avg_time[31] 	0.005096664156
scalar tree_4_3_u08_r13_network.client[32] 	hdistance[32] 	3.0424582851479
scalar tree_4_3_u08_r13_network.client[32] 	downloads[32] 	12106
scalar tree_4_3_u08_r13_network.client[32] 	avg_time[32] 	0.004894520272
scalar tree_4_3_u08_r13_network.client[33] 	hdistance[33] 	3.1733244747114
scalar tree_4_3_u08_r13_network.client[33] 	downloads[33] 	12041
scalar tree_4_3_u08_r13_network.client[33] 	avg_time[33] 	0.005135153845
scalar tree_4_3_u08_r13_network.client[34] 	hdistance[34] 	3.137483355526
scalar tree_4_3_u08_r13_network.client[34] 	downloads[34] 	12016
scalar tree_4_3_u08_r13_network.client[34] 	avg_time[34] 	0.00506220601
scalar tree_4_3_u08_r13_network.client[35] 	hdistance[35] 	3.1376614827615
scalar tree_4_3_u08_r13_network.client[35] 	downloads[35] 	12153
scalar tree_4_3_u08_r13_network.client[35] 	avg_time[35] 	0.005068586765
scalar tree_4_3_u08_r13_network.client[36] 	hdistance[36] 	3.059746835443
scalar tree_4_3_u08_r13_network.client[36] 	downloads[36] 	11850
scalar tree_4_3_u08_r13_network.client[36] 	avg_time[36] 	0.004921222444
scalar tree_4_3_u08_r13_network.client[37] 	hdistance[37] 	3.0478322142087
scalar tree_4_3_u08_r13_network.client[37] 	downloads[37] 	12063
scalar tree_4_3_u08_r13_network.client[37] 	avg_time[37] 	0.004891441205
scalar tree_4_3_u08_r13_network.client[38] 	hdistance[38] 	3.0648813951566
scalar tree_4_3_u08_r13_network.client[38] 	downloads[38] 	12099
scalar tree_4_3_u08_r13_network.client[38] 	avg_time[38] 	0.004933736905
scalar tree_4_3_u08_r13_network.client[39] 	hdistance[39] 	3.1511782276801
scalar tree_4_3_u08_r13_network.client[39] 	downloads[39] 	12052
scalar tree_4_3_u08_r13_network.client[39] 	avg_time[39] 	0.005017821629
