version 2
run General-173-20160818-20:24:53-19481
attr a 0.9
attr cd lce
attr configname General
attr cr lru
attr datetime 20160818-20:24:53
attr experiment General
attr fsize 1
attr inifile hw5115/scenario_A/EdgeCoop.ini
attr iterationvars "$name=tree_4_3, $un=08, $rep=14, $scenario=Edge, $cd=lce, $cr=lru, $fsize=1, $a=0.9, $sl=nrr, $ttl=1000, $variance=0.05"
attr iterationvars2 "$name=tree_4_3, $un=08, $rep=14, $scenario=Edge, $cd=lce, $cr=lru, $fsize=1, $a=0.9, $sl=nrr, $ttl=1000, $variance=0.05, $repetition=0"
attr measurement "$name=tree_4_3, $un=08, $rep=14, $scenario=Edge, $cd=lce, $cr=lru, $fsize=1, $a=0.9, $sl=nrr, $ttl=1000, $variance=0.05"
attr name tree_4_3
attr network networks.${name}_u${un}_r${rep}_network
attr processid 19481
attr rep 14
attr repetition 0
attr replication #0
attr resultdir results
attr runnumber 173
attr scenario Edge
attr seedset 14
attr sl nrr
attr ttl 1000
attr un 08
attr variance 0.05

scalar . 	a 	0.9
scalar . 	fsize 	1
scalar . 	rep 	14
scalar . 	ttl 	1000
scalar . 	un 	08
scalar . 	variance 	0.05
scalar tree_4_3_u08_r14_network.content_distribution 	repo-0 	0
scalar tree_4_3_u08_r14_network.content_distribution 	client-0 	13
scalar tree_4_3_u08_r14_network.content_distribution 	client-1 	14
scalar tree_4_3_u08_r14_network.content_distribution 	client-2 	15
scalar tree_4_3_u08_r14_network.content_distribution 	client-3 	16
scalar tree_4_3_u08_r14_network.content_distribution 	client-4 	17
scalar tree_4_3_u08_r14_network.content_distribution 	client-5 	18
scalar tree_4_3_u08_r14_network.content_distribution 	client-6 	19
scalar tree_4_3_u08_r14_network.content_distribution 	client-7 	20
scalar tree_4_3_u08_r14_network.content_distribution 	client-8 	21
scalar tree_4_3_u08_r14_network.content_distribution 	client-9 	22
scalar tree_4_3_u08_r14_network.content_distribution 	client-10 	23
scalar tree_4_3_u08_r14_network.content_distribution 	client-11 	24
scalar tree_4_3_u08_r14_network.content_distribution 	client-12 	25
scalar tree_4_3_u08_r14_network.content_distribution 	client-13 	26
scalar tree_4_3_u08_r14_network.content_distribution 	client-14 	27
scalar tree_4_3_u08_r14_network.content_distribution 	client-15 	28
scalar tree_4_3_u08_r14_network.content_distribution 	client-16 	29
scalar tree_4_3_u08_r14_network.content_distribution 	client-17 	30
scalar tree_4_3_u08_r14_network.content_distribution 	client-18 	31
scalar tree_4_3_u08_r14_network.content_distribution 	client-19 	32
scalar tree_4_3_u08_r14_network.content_distribution 	client-20 	33
scalar tree_4_3_u08_r14_network.content_distribution 	client-21 	34
scalar tree_4_3_u08_r14_network.content_distribution 	client-22 	35
scalar tree_4_3_u08_r14_network.content_distribution 	client-23 	36
scalar tree_4_3_u08_r14_network.content_distribution 	client-24 	37
scalar tree_4_3_u08_r14_network.content_distribution 	client-25 	38
scalar tree_4_3_u08_r14_network.content_distribution 	client-26 	39
scalar tree_4_3_u08_r14_network.content_distribution 	repo-0_card 	100000
scalar tree_4_3_u08_r14_network.content_distribution 	repo-0_price 	0
scalar tree_4_3_u08_r14_network.statistics 	stabilization_time 	269.6
scalar tree_4_3_u08_r14_network.statistics 	p_hit 	0.21543770991181
scalar tree_4_3_u08_r14_network.statistics 	interests 	28345.5
scalar tree_4_3_u08_r14_network.statistics 	data 	20230.775
scalar tree_4_3_u08_r14_network.statistics 	hdistance 	3.097669726053
scalar tree_4_3_u08_r14_network.statistics 	avg_time 	0.004986566189
scalar tree_4_3_u08_r14_network.statistics 	downloads 	324555
scalar tree_4_3_u08_r14_network.statistics 	total_cost 	0
scalar tree_4_3_u08_r14_network.statistics 	total_replicas 	100000
scalar tree_4_3_u08_r14_network.statistics 	inner_hit 	0.39566175224538
scalar tree_4_3_u08_r14_network.node[0].core_layer 	interests[0] 	196141
scalar tree_4_3_u08_r14_network.node[0].core_layer 	repo_load[0] 	196141
scalar tree_4_3_u08_r14_network.node[0].core_layer 	data[0] 	0
scalar tree_4_3_u08_r14_network.node[0].core_layer 	repo_int[0] 	196141
scalar tree_4_3_u08_r14_network.node[0].content_store 	p_hit[0] 	0
scalar tree_4_3_u08_r14_network.node[0].content_store 	hits[0] 	0
scalar tree_4_3_u08_r14_network.node[0].content_store 	misses[0] 	196141
scalar tree_4_3_u08_r14_network.node[0].content_store 	decision_yes[0] 	0
scalar tree_4_3_u08_r14_network.node[0].content_store 	decision_no[0] 	196141
scalar tree_4_3_u08_r14_network.node[0].content_store 	decision_ratio[0] 	0
scalar tree_4_3_u08_r14_network.node[1].core_layer 	interests[1] 	154930
scalar tree_4_3_u08_r14_network.node[1].core_layer 	data[1] 	154921
scalar tree_4_3_u08_r14_network.node[1].content_store 	p_hit[1] 	0
scalar tree_4_3_u08_r14_network.node[1].content_store 	hits[1] 	0
scalar tree_4_3_u08_r14_network.node[1].content_store 	misses[1] 	154930
scalar tree_4_3_u08_r14_network.node[1].content_store 	decision_yes[1] 	0
scalar tree_4_3_u08_r14_network.node[1].content_store 	decision_no[1] 	154909
scalar tree_4_3_u08_r14_network.node[1].content_store 	decision_ratio[1] 	0
scalar tree_4_3_u08_r14_network.node[2].core_layer 	interests[2] 	51454
scalar tree_4_3_u08_r14_network.node[2].core_layer 	data[2] 	51455
scalar tree_4_3_u08_r14_network.node[2].content_store 	p_hit[2] 	0
scalar tree_4_3_u08_r14_network.node[2].content_store 	hits[2] 	0
scalar tree_4_3_u08_r14_network.node[2].content_store 	misses[2] 	51454
scalar tree_4_3_u08_r14_network.node[2].content_store 	decision_yes[2] 	0
scalar tree_4_3_u08_r14_network.node[2].content_store 	decision_no[2] 	51451
scalar tree_4_3_u08_r14_network.node[2].content_store 	decision_ratio[2] 	0
scalar tree_4_3_u08_r14_network.node[3].core_layer 	interests[3] 	24311
scalar tree_4_3_u08_r14_network.node[3].core_layer 	data[3] 	24308
scalar tree_4_3_u08_r14_network.node[3].content_store 	p_hit[3] 	0
scalar tree_4_3_u08_r14_network.node[3].content_store 	hits[3] 	0
scalar tree_4_3_u08_r14_network.node[3].content_store 	misses[3] 	24311
scalar tree_4_3_u08_r14_network.node[3].content_store 	decision_yes[3] 	0
scalar tree_4_3_u08_r14_network.node[3].content_store 	decision_no[3] 	24307
scalar tree_4_3_u08_r14_network.node[3].content_store 	decision_ratio[3] 	0
scalar tree_4_3_u08_r14_network.node[4].core_layer 	interests[4] 	51140
scalar tree_4_3_u08_r14_network.node[4].core_layer 	data[4] 	51136
scalar tree_4_3_u08_r14_network.node[4].content_store 	p_hit[4] 	0
scalar tree_4_3_u08_r14_network.node[4].content_store 	hits[4] 	0
scalar tree_4_3_u08_r14_network.node[4].content_store 	misses[4] 	51140
scalar tree_4_3_u08_r14_network.node[4].content_store 	decision_yes[4] 	0
scalar tree_4_3_u08_r14_network.node[4].content_store 	decision_no[4] 	51131
scalar tree_4_3_u08_r14_network.node[4].content_store 	decision_ratio[4] 	0
scalar tree_4_3_u08_r14_network.node[5].core_layer 	interests[5] 	23248
scalar tree_4_3_u08_r14_network.node[5].core_layer 	data[5] 	23248
scalar tree_4_3_u08_r14_network.node[5].content_store 	p_hit[5] 	0
scalar tree_4_3_u08_r14_network.node[5].content_store 	hits[5] 	0
scalar tree_4_3_u08_r14_network.node[5].content_store 	misses[5] 	23248
scalar tree_4_3_u08_r14_network.node[5].content_store 	decision_yes[5] 	0
scalar tree_4_3_u08_r14_network.node[5].content_store 	decision_no[5] 	23245
scalar tree_4_3_u08_r14_network.node[5].content_store 	decision_ratio[5] 	0
scalar tree_4_3_u08_r14_network.node[6].core_layer 	interests[6] 	27819
scalar tree_4_3_u08_r14_network.node[6].core_layer 	data[6] 	27814
scalar tree_4_3_u08_r14_network.node[6].content_store 	p_hit[6] 	0
scalar tree_4_3_u08_r14_network.node[6].content_store 	hits[6] 	0
scalar tree_4_3_u08_r14_network.node[6].content_store 	misses[6] 	27819
scalar tree_4_3_u08_r14_network.node[6].content_store 	decision_yes[6] 	0
scalar tree_4_3_u08_r14_network.node[6].content_store 	decision_no[6] 	27813
scalar tree_4_3_u08_r14_network.node[6].content_store 	decision_ratio[6] 	0
scalar tree_4_3_u08_r14_network.node[7].core_layer 	interests[7] 	53854
scalar tree_4_3_u08_r14_network.node[7].core_layer 	data[7] 	53846
scalar tree_4_3_u08_r14_network.node[7].content_store 	p_hit[7] 	0
scalar tree_4_3_u08_r14_network.node[7].content_store 	hits[7] 	0
scalar tree_4_3_u08_r14_network.node[7].content_store 	misses[7] 	53854
scalar tree_4_3_u08_r14_network.node[7].content_store 	decision_yes[7] 	0
scalar tree_4_3_u08_r14_network.node[7].content_store 	decision_no[7] 	53843
scalar tree_4_3_u08_r14_network.node[7].content_store 	decision_ratio[7] 	0
scalar tree_4_3_u08_r14_network.node[8].core_layer 	interests[8] 	20833
scalar tree_4_3_u08_r14_network.node[8].core_layer 	data[8] 	20832
scalar tree_4_3_u08_r14_network.node[8].content_store 	p_hit[8] 	0
scalar tree_4_3_u08_r14_network.node[8].content_store 	hits[8] 	0
scalar tree_4_3_u08_r14_network.node[8].content_store 	misses[8] 	20833
scalar tree_4_3_u08_r14_network.node[8].content_store 	decision_yes[8] 	0
scalar tree_4_3_u08_r14_network.node[8].content_store 	decision_no[8] 	20832
scalar tree_4_3_u08_r14_network.node[8].content_store 	decision_ratio[8] 	0
scalar tree_4_3_u08_r14_network.node[9].core_layer 	interests[9] 	27363
scalar tree_4_3_u08_r14_network.node[9].core_layer 	data[9] 	27362
scalar tree_4_3_u08_r14_network.node[9].content_store 	p_hit[9] 	0
scalar tree_4_3_u08_r14_network.node[9].content_store 	hits[9] 	0
scalar tree_4_3_u08_r14_network.node[9].content_store 	misses[9] 	27363
scalar tree_4_3_u08_r14_network.node[9].content_store 	decision_yes[9] 	0
scalar tree_4_3_u08_r14_network.node[9].content_store 	decision_no[9] 	27359
scalar tree_4_3_u08_r14_network.node[9].content_store 	decision_ratio[9] 	0
scalar tree_4_3_u08_r14_network.node[10].core_layer 	interests[10] 	53863
scalar tree_4_3_u08_r14_network.node[10].core_layer 	data[10] 	53855
scalar tree_4_3_u08_r14_network.node[10].content_store 	p_hit[10] 	0
scalar tree_4_3_u08_r14_network.node[10].content_store 	hits[10] 	0
scalar tree_4_3_u08_r14_network.node[10].content_store 	misses[10] 	53863
scalar tree_4_3_u08_r14_network.node[10].content_store 	decision_yes[10] 	0
scalar tree_4_3_u08_r14_network.node[10].content_store 	decision_no[10] 	53850
scalar tree_4_3_u08_r14_network.node[10].content_store 	decision_ratio[10] 	0
scalar tree_4_3_u08_r14_network.node[11].core_layer 	interests[11] 	23792
scalar tree_4_3_u08_r14_network.node[11].core_layer 	data[11] 	23794
scalar tree_4_3_u08_r14_network.node[11].content_store 	p_hit[11] 	0
scalar tree_4_3_u08_r14_network.node[11].content_store 	hits[11] 	0
scalar tree_4_3_u08_r14_network.node[11].content_store 	misses[11] 	23792
scalar tree_4_3_u08_r14_network.node[11].content_store 	decision_yes[11] 	0
scalar tree_4_3_u08_r14_network.node[11].content_store 	decision_no[11] 	23790
scalar tree_4_3_u08_r14_network.node[11].content_store 	decision_ratio[11] 	0
scalar tree_4_3_u08_r14_network.node[12].core_layer 	interests[12] 	24649
scalar tree_4_3_u08_r14_network.node[12].core_layer 	data[12] 	24646
scalar tree_4_3_u08_r14_network.node[12].content_store 	p_hit[12] 	0
scalar tree_4_3_u08_r14_network.node[12].content_store 	hits[12] 	0
scalar tree_4_3_u08_r14_network.node[12].content_store 	misses[12] 	24649
scalar tree_4_3_u08_r14_network.node[12].content_store 	decision_yes[12] 	0
scalar tree_4_3_u08_r14_network.node[12].content_store 	decision_no[12] 	24644
scalar tree_4_3_u08_r14_network.node[12].content_store 	decision_ratio[12] 	0
scalar tree_4_3_u08_r14_network.node[13].core_layer 	interests[13] 	13933
scalar tree_4_3_u08_r14_network.node[13].core_layer 	data[13] 	10074
scalar tree_4_3_u08_r14_network.node[13].content_store 	p_hit[13] 	0.27696834852508
scalar tree_4_3_u08_r14_network.node[13].content_store 	hits[13] 	3859
scalar tree_4_3_u08_r14_network.node[13].content_store 	misses[13] 	10074
scalar tree_4_3_u08_r14_network.node[13].content_store 	decision_yes[13] 	10074
scalar tree_4_3_u08_r14_network.node[13].content_store 	decision_no[13] 	0
scalar tree_4_3_u08_r14_network.node[13].content_store 	decision_ratio[13] 	1
scalar tree_4_3_u08_r14_network.node[14].core_layer 	interests[14] 	14034
scalar tree_4_3_u08_r14_network.node[14].core_layer 	data[14] 	10180
scalar tree_4_3_u08_r14_network.node[14].content_store 	p_hit[14] 	0.27440501638877
scalar tree_4_3_u08_r14_network.node[14].content_store 	hits[14] 	3851
scalar tree_4_3_u08_r14_network.node[14].content_store 	misses[14] 	10183
scalar tree_4_3_u08_r14_network.node[14].content_store 	decision_yes[14] 	10180
scalar tree_4_3_u08_r14_network.node[14].content_store 	decision_no[14] 	0
scalar tree_4_3_u08_r14_network.node[14].content_store 	decision_ratio[14] 	1
scalar tree_4_3_u08_r14_network.node[15].core_layer 	interests[15] 	15499
scalar tree_4_3_u08_r14_network.node[15].core_layer 	data[15] 	9932
scalar tree_4_3_u08_r14_network.node[15].content_store 	p_hit[15] 	0.35905542293051
scalar tree_4_3_u08_r14_network.node[15].content_store 	hits[15] 	5565
scalar tree_4_3_u08_r14_network.node[15].content_store 	misses[15] 	9934
scalar tree_4_3_u08_r14_network.node[15].content_store 	decision_yes[15] 	9932
scalar tree_4_3_u08_r14_network.node[15].content_store 	decision_no[15] 	0
scalar tree_4_3_u08_r14_network.node[15].content_store 	decision_ratio[15] 	1
scalar tree_4_3_u08_r14_network.node[16].core_layer 	interests[16] 	15263
scalar tree_4_3_u08_r14_network.node[16].core_layer 	data[16] 	9996
scalar tree_4_3_u08_r14_network.node[16].content_store 	p_hit[16] 	0.34508288016773
scalar tree_4_3_u08_r14_network.node[16].content_store 	hits[16] 	5267
scalar tree_4_3_u08_r14_network.node[16].content_store 	misses[16] 	9996
scalar tree_4_3_u08_r14_network.node[16].content_store 	decision_yes[16] 	9996
scalar tree_4_3_u08_r14_network.node[16].content_store 	decision_no[16] 	0
scalar tree_4_3_u08_r14_network.node[16].content_store 	decision_ratio[16] 	1
scalar tree_4_3_u08_r14_network.node[17].core_layer 	interests[17] 	13987
scalar tree_4_3_u08_r14_network.node[17].core_layer 	data[17] 	10008
scalar tree_4_3_u08_r14_network.node[17].content_store 	p_hit[17] 	0.28440694931007
scalar tree_4_3_u08_r14_network.node[17].content_store 	hits[17] 	3978
scalar tree_4_3_u08_r14_network.node[17].content_store 	misses[17] 	10009
scalar tree_4_3_u08_r14_network.node[17].content_store 	decision_yes[17] 	10008
scalar tree_4_3_u08_r14_network.node[17].content_store 	decision_no[17] 	0
scalar tree_4_3_u08_r14_network.node[17].content_store 	decision_ratio[17] 	1
scalar tree_4_3_u08_r14_network.node[18].core_layer 	interests[18] 	15596
scalar tree_4_3_u08_r14_network.node[18].core_layer 	data[18] 	10149
scalar tree_4_3_u08_r14_network.node[18].content_store 	p_hit[18] 	0.34912798153373
scalar tree_4_3_u08_r14_network.node[18].content_store 	hits[18] 	5445
scalar tree_4_3_u08_r14_network.node[18].content_store 	misses[18] 	10151
scalar tree_4_3_u08_r14_network.node[18].content_store 	decision_yes[18] 	10149
scalar tree_4_3_u08_r14_network.node[18].content_store 	decision_no[18] 	0
scalar tree_4_3_u08_r14_network.node[18].content_store 	decision_ratio[18] 	1
scalar tree_4_3_u08_r14_network.node[19].core_layer 	interests[19] 	15648
scalar tree_4_3_u08_r14_network.node[19].core_layer 	data[19] 	10149
scalar tree_4_3_u08_r14_network.node[19].content_store 	p_hit[19] 	0.3512908997955
scalar tree_4_3_u08_r14_network.node[19].content_store 	hits[19] 	5497
scalar tree_4_3_u08_r14_network.node[19].content_store 	misses[19] 	10151
scalar tree_4_3_u08_r14_network.node[19].content_store 	decision_yes[19] 	10149
scalar tree_4_3_u08_r14_network.node[19].content_store 	decision_no[19] 	0
scalar tree_4_3_u08_r14_network.node[19].content_store 	decision_ratio[19] 	1
scalar tree_4_3_u08_r14_network.node[20].core_layer 	interests[20] 	14430
scalar tree_4_3_u08_r14_network.node[20].core_layer 	data[20] 	10047
scalar tree_4_3_u08_r14_network.node[20].content_store 	p_hit[20] 	0.3036729036729
scalar tree_4_3_u08_r14_network.node[20].content_store 	hits[20] 	4382
scalar tree_4_3_u08_r14_network.node[20].content_store 	misses[20] 	10048
scalar tree_4_3_u08_r14_network.node[20].content_store 	decision_yes[20] 	10047
scalar tree_4_3_u08_r14_network.node[20].content_store 	decision_no[20] 	0
scalar tree_4_3_u08_r14_network.node[20].content_store 	decision_ratio[20] 	1
scalar tree_4_3_u08_r14_network.node[21].core_layer 	interests[21] 	14507
scalar tree_4_3_u08_r14_network.node[21].core_layer 	data[21] 	10089
scalar tree_4_3_u08_r14_network.node[21].content_store 	p_hit[21] 	0.30447370235059
scalar tree_4_3_u08_r14_network.node[21].content_store 	hits[21] 	4417
scalar tree_4_3_u08_r14_network.node[21].content_store 	misses[21] 	10090
scalar tree_4_3_u08_r14_network.node[21].content_store 	decision_yes[21] 	10089
scalar tree_4_3_u08_r14_network.node[21].content_store 	decision_no[21] 	0
scalar tree_4_3_u08_r14_network.node[21].content_store 	decision_ratio[21] 	1
scalar tree_4_3_u08_r14_network.node[22].core_layer 	interests[22] 	14611
scalar tree_4_3_u08_r14_network.node[22].core_layer 	data[22] 	10159
scalar tree_4_3_u08_r14_network.node[22].content_store 	p_hit[22] 	0.30449661214154
scalar tree_4_3_u08_r14_network.node[22].content_store 	hits[22] 	4449
scalar tree_4_3_u08_r14_network.node[22].content_store 	misses[22] 	10162
scalar tree_4_3_u08_r14_network.node[22].content_store 	decision_yes[22] 	10159
scalar tree_4_3_u08_r14_network.node[22].content_store 	decision_no[22] 	0
scalar tree_4_3_u08_r14_network.node[22].content_store 	decision_ratio[22] 	1
scalar tree_4_3_u08_r14_network.node[23].core_layer 	interests[23] 	15173
scalar tree_4_3_u08_r14_network.node[23].core_layer 	data[23] 	10125
scalar tree_4_3_u08_r14_network.node[23].content_store 	p_hit[23] 	0.33263033019179
scalar tree_4_3_u08_r14_network.node[23].content_store 	hits[23] 	5047
scalar tree_4_3_u08_r14_network.node[23].content_store 	misses[23] 	10126
scalar tree_4_3_u08_r14_network.node[23].content_store 	decision_yes[23] 	10125
scalar tree_4_3_u08_r14_network.node[23].content_store 	decision_no[23] 	0
scalar tree_4_3_u08_r14_network.node[23].content_store 	decision_ratio[23] 	1
scalar tree_4_3_u08_r14_network.node[24].core_layer 	interests[24] 	15547
scalar tree_4_3_u08_r14_network.node[24].core_layer 	data[24] 	10037
scalar tree_4_3_u08_r14_network.node[24].content_store 	p_hit[24] 	0.35428056859844
scalar tree_4_3_u08_r14_network.node[24].content_store 	hits[24] 	5508
scalar tree_4_3_u08_r14_network.node[24].content_store 	misses[24] 	10039
scalar tree_4_3_u08_r14_network.node[24].content_store 	decision_yes[24] 	10037
scalar tree_4_3_u08_r14_network.node[24].content_store 	decision_no[24] 	0
scalar tree_4_3_u08_r14_network.node[24].content_store 	decision_ratio[24] 	1
scalar tree_4_3_u08_r14_network.node[25].core_layer 	interests[25] 	14987
scalar tree_4_3_u08_r14_network.node[25].core_layer 	data[25] 	10010
scalar tree_4_3_u08_r14_network.node[25].content_store 	p_hit[25] 	0.33208780943484
scalar tree_4_3_u08_r14_network.node[25].content_store 	hits[25] 	4977
scalar tree_4_3_u08_r14_network.node[25].content_store 	misses[25] 	10010
scalar tree_4_3_u08_r14_network.node[25].content_store 	decision_yes[25] 	10010
scalar tree_4_3_u08_r14_network.node[25].content_store 	decision_no[25] 	0
scalar tree_4_3_u08_r14_network.node[25].content_store 	decision_ratio[25] 	1
scalar tree_4_3_u08_r14_network.node[26].core_layer 	interests[26] 	13427
scalar tree_4_3_u08_r14_network.node[26].core_layer 	data[26] 	10128
scalar tree_4_3_u08_r14_network.node[26].content_store 	p_hit[26] 	0.24555001117152
scalar tree_4_3_u08_r14_network.node[26].content_store 	hits[26] 	3297
scalar tree_4_3_u08_r14_network.node[26].content_store 	misses[26] 	10130
scalar tree_4_3_u08_r14_network.node[26].content_store 	decision_yes[26] 	10128
scalar tree_4_3_u08_r14_network.node[26].content_store 	decision_no[26] 	0
scalar tree_4_3_u08_r14_network.node[26].content_store 	decision_ratio[26] 	1
scalar tree_4_3_u08_r14_network.node[27].core_layer 	interests[27] 	15472
scalar tree_4_3_u08_r14_network.node[27].core_layer 	data[27] 	9952
scalar tree_4_3_u08_r14_network.node[27].content_store 	p_hit[27] 	0.35664426059979
scalar tree_4_3_u08_r14_network.node[27].content_store 	hits[27] 	5518
scalar tree_4_3_u08_r14_network.node[27].content_store 	misses[27] 	9954
scalar tree_4_3_u08_r14_network.node[27].content_store 	decision_yes[27] 	9952
scalar tree_4_3_u08_r14_network.node[27].content_store 	decision_no[27] 	0
scalar tree_4_3_u08_r14_network.node[27].content_store 	decision_ratio[27] 	1
scalar tree_4_3_u08_r14_network.node[28].core_layer 	interests[28] 	15679
scalar tree_4_3_u08_r14_network.node[28].core_layer 	data[28] 	9975
scalar tree_4_3_u08_r14_network.node[28].content_store 	p_hit[28] 	0.36379871165253
scalar tree_4_3_u08_r14_network.node[28].content_store 	hits[28] 	5704
scalar tree_4_3_u08_r14_network.node[28].content_store 	misses[28] 	9975
scalar tree_4_3_u08_r14_network.node[28].content_store 	decision_yes[28] 	9975
scalar tree_4_3_u08_r14_network.node[28].content_store 	decision_no[28] 	0
scalar tree_4_3_u08_r14_network.node[28].content_store 	decision_ratio[28] 	1
scalar tree_4_3_u08_r14_network.node[29].core_layer 	interests[29] 	14522
scalar tree_4_3_u08_r14_network.node[29].core_layer 	data[29] 	10129
scalar tree_4_3_u08_r14_network.node[29].content_store 	p_hit[29] 	0.30243768076023
scalar tree_4_3_u08_r14_network.node[29].content_store 	hits[29] 	4392
scalar tree_4_3_u08_r14_network.node[29].content_store 	misses[29] 	10130
scalar tree_4_3_u08_r14_network.node[29].content_store 	decision_yes[29] 	10129
scalar tree_4_3_u08_r14_network.node[29].content_store 	decision_no[29] 	0
scalar tree_4_3_u08_r14_network.node[29].content_store 	decision_ratio[29] 	1
scalar tree_4_3_u08_r14_network.node[30].core_layer 	interests[30] 	14335
scalar tree_4_3_u08_r14_network.node[30].core_layer 	data[30] 	9965
scalar tree_4_3_u08_r14_network.node[30].content_store 	p_hit[30] 	0.30470875479595
scalar tree_4_3_u08_r14_network.node[30].content_store 	hits[30] 	4368
scalar tree_4_3_u08_r14_network.node[30].content_store 	misses[30] 	9967
scalar tree_4_3_u08_r14_network.node[30].content_store 	decision_yes[30] 	9965
scalar tree_4_3_u08_r14_network.node[30].content_store 	decision_no[30] 	0
scalar tree_4_3_u08_r14_network.node[30].content_store 	decision_ratio[30] 	1
scalar tree_4_3_u08_r14_network.node[31].core_layer 	interests[31] 	14565
scalar tree_4_3_u08_r14_network.node[31].core_layer 	data[31] 	10069
scalar tree_4_3_u08_r14_network.node[31].content_store 	p_hit[31] 	0.30868520425678
scalar tree_4_3_u08_r14_network.node[31].content_store 	hits[31] 	4496
scalar tree_4_3_u08_r14_network.node[31].content_store 	misses[31] 	10069
scalar tree_4_3_u08_r14_network.node[31].content_store 	decision_yes[31] 	10069
scalar tree_4_3_u08_r14_network.node[31].content_store 	decision_no[31] 	0
scalar tree_4_3_u08_r14_network.node[31].content_store 	decision_ratio[31] 	1
scalar tree_4_3_u08_r14_network.node[32].core_layer 	interests[32] 	15339
scalar tree_4_3_u08_r14_network.node[32].core_layer 	data[32] 	10022
scalar tree_4_3_u08_r14_network.node[32].content_store 	p_hit[32] 	0.34656757285351
scalar tree_4_3_u08_r14_network.node[32].content_store 	hits[32] 	5316
scalar tree_4_3_u08_r14_network.node[32].content_store 	misses[32] 	10023
scalar tree_4_3_u08_r14_network.node[32].content_store 	decision_yes[32] 	10022
scalar tree_4_3_u08_r14_network.node[32].content_store 	decision_no[32] 	0
scalar tree_4_3_u08_r14_network.node[32].content_store 	decision_ratio[32] 	1
scalar tree_4_3_u08_r14_network.node[33].core_layer 	interests[33] 	15309
scalar tree_4_3_u08_r14_network.node[33].core_layer 	data[33] 	10019
scalar tree_4_3_u08_r14_network.node[33].content_store 	p_hit[33] 	0.34548304918675
scalar tree_4_3_u08_r14_network.node[33].content_store 	hits[33] 	5289
scalar tree_4_3_u08_r14_network.node[33].content_store 	misses[33] 	10020
scalar tree_4_3_u08_r14_network.node[33].content_store 	decision_yes[33] 	10019
scalar tree_4_3_u08_r14_network.node[33].content_store 	decision_no[33] 	0
scalar tree_4_3_u08_r14_network.node[33].content_store 	decision_ratio[33] 	1
scalar tree_4_3_u08_r14_network.node[34].core_layer 	interests[34] 	15272
scalar tree_4_3_u08_r14_network.node[34].core_layer 	data[34] 	10035
scalar tree_4_3_u08_r14_network.node[34].content_store 	p_hit[34] 	0.34291513881613
scalar tree_4_3_u08_r14_network.node[34].content_store 	hits[34] 	5237
scalar tree_4_3_u08_r14_network.node[34].content_store 	misses[34] 	10035
scalar tree_4_3_u08_r14_network.node[34].content_store 	decision_yes[34] 	10035
scalar tree_4_3_u08_r14_network.node[34].content_store 	decision_no[34] 	0
scalar tree_4_3_u08_r14_network.node[34].content_store 	decision_ratio[34] 	1
scalar tree_4_3_u08_r14_network.node[35].core_layer 	interests[35] 	14227
scalar tree_4_3_u08_r14_network.node[35].core_layer 	data[35] 	10121
scalar tree_4_3_u08_r14_network.node[35].content_store 	p_hit[35] 	0.28867646025163
scalar tree_4_3_u08_r14_network.node[35].content_store 	hits[35] 	4107
scalar tree_4_3_u08_r14_network.node[35].content_store 	misses[35] 	10120
scalar tree_4_3_u08_r14_network.node[35].content_store 	decision_yes[35] 	10121
scalar tree_4_3_u08_r14_network.node[35].content_store 	decision_no[35] 	0
scalar tree_4_3_u08_r14_network.node[35].content_store 	decision_ratio[35] 	1
scalar tree_4_3_u08_r14_network.node[36].core_layer 	interests[36] 	15559
scalar tree_4_3_u08_r14_network.node[36].core_layer 	data[36] 	10190
scalar tree_4_3_u08_r14_network.node[36].content_store 	p_hit[36] 	0.34507359084774
scalar tree_4_3_u08_r14_network.node[36].content_store 	hits[36] 	5369
scalar tree_4_3_u08_r14_network.node[36].content_store 	misses[36] 	10190
scalar tree_4_3_u08_r14_network.node[36].content_store 	decision_yes[36] 	10190
scalar tree_4_3_u08_r14_network.node[36].content_store 	decision_no[36] 	0
scalar tree_4_3_u08_r14_network.node[36].content_store 	decision_ratio[36] 	1
scalar tree_4_3_u08_r14_network.node[37].core_layer 	interests[37] 	15407
scalar tree_4_3_u08_r14_network.node[37].core_layer 	data[37] 	10024
scalar tree_4_3_u08_r14_network.node[37].content_store 	p_hit[37] 	0.34938664243526
scalar tree_4_3_u08_r14_network.node[37].content_store 	hits[37] 	5383
scalar tree_4_3_u08_r14_network.node[37].content_store 	misses[37] 	10024
scalar tree_4_3_u08_r14_network.node[37].content_store 	decision_yes[37] 	10024
scalar tree_4_3_u08_r14_network.node[37].content_store 	decision_no[37] 	0
scalar tree_4_3_u08_r14_network.node[37].content_store 	decision_ratio[37] 	1
scalar tree_4_3_u08_r14_network.node[38].core_layer 	interests[38] 	14009
scalar tree_4_3_u08_r14_network.node[38].core_layer 	data[38] 	10125
scalar tree_4_3_u08_r14_network.node[38].content_store 	p_hit[38] 	0.27725033906774
scalar tree_4_3_u08_r14_network.node[38].content_store 	hits[38] 	3884
scalar tree_4_3_u08_r14_network.node[38].content_store 	misses[38] 	10125
scalar tree_4_3_u08_r14_network.node[38].content_store 	decision_yes[38] 	10125
scalar tree_4_3_u08_r14_network.node[38].content_store 	decision_no[38] 	0
scalar tree_4_3_u08_r14_network.node[38].content_store 	decision_ratio[38] 	1
scalar tree_4_3_u08_r14_network.node[39].core_layer 	interests[39] 	14086
scalar tree_4_3_u08_r14_network.node[39].core_layer 	data[39] 	10305
scalar tree_4_3_u08_r14_network.node[39].content_store 	p_hit[39] 	0.2683515547352
scalar tree_4_3_u08_r14_network.node[39].content_store 	hits[39] 	3780
scalar tree_4_3_u08_r14_network.node[39].content_store 	misses[39] 	10306
scalar tree_4_3_u08_r14_network.node[39].content_store 	decision_yes[39] 	10305
scalar tree_4_3_u08_r14_network.node[39].content_store 	decision_no[39] 	0
scalar tree_4_3_u08_r14_network.node[39].content_store 	decision_ratio[39] 	1
scalar tree_4_3_u08_r14_network.client[13] 	hdistance[13] 	3.1255
scalar tree_4_3_u08_r14_network.client[13] 	downloads[13] 	12000
scalar tree_4_3_u08_r14_network.client[13] 	avg_time[13] 	0.004996330343
scalar tree_4_3_u08_r14_network.client[14] 	hdistance[14] 	3.1366192523983
scalar tree_4_3_u08_r14_network.client[14] 	downloads[14] 	12092
scalar tree_4_3_u08_r14_network.client[14] 	avg_time[14] 	0.005023042231
scalar tree_4_3_u08_r14_network.client[15] 	hdistance[15] 	3.0494417862839
scalar tree_4_3_u08_r14_network.client[15] 	downloads[15] 	11913
scalar tree_4_3_u08_r14_network.client[15] 	avg_time[15] 	0.004905557673
scalar tree_4_3_u08_r14_network.client[16] 	hdistance[16] 	3.0801072565778
scalar tree_4_3_u08_r14_network.client[16] 	downloads[16] 	11934
scalar tree_4_3_u08_r14_network.client[16] 	avg_time[16] 	0.004953361474
scalar tree_4_3_u08_r14_network.client[17] 	hdistance[17] 	3.190332326284
scalar tree_4_3_u08_r14_network.client[17] 	downloads[17] 	11916
scalar tree_4_3_u08_r14_network.client[17] 	avg_time[17] 	0.005196108511
scalar tree_4_3_u08_r14_network.client[18] 	hdistance[18] 	3.0775577557756
scalar tree_4_3_u08_r14_network.client[18] 	downloads[18] 	12120
scalar tree_4_3_u08_r14_network.client[18] 	avg_time[18] 	0.004953287734
scalar tree_4_3_u08_r14_network.client[19] 	hdistance[19] 	3.0670298827803
scalar tree_4_3_u08_r14_network.client[19] 	downloads[19] 	12114
scalar tree_4_3_u08_r14_network.client[19] 	avg_time[19] 	0.004931310683
scalar tree_4_3_u08_r14_network.client[20] 	hdistance[20] 	3.1343082871071
scalar tree_4_3_u08_r14_network.client[20] 	downloads[20] 	11898
scalar tree_4_3_u08_r14_network.client[20] 	avg_time[20] 	0.005079471055
scalar tree_4_3_u08_r14_network.client[21] 	hdistance[21] 	3.1283631820075
scalar tree_4_3_u08_r14_network.client[21] 	downloads[21] 	12005
scalar tree_4_3_u08_r14_network.client[21] 	avg_time[21] 	0.005054511765
scalar tree_4_3_u08_r14_network.client[22] 	hdistance[22] 	3.1145867632532
scalar tree_4_3_u08_r14_network.client[22] 	downloads[22] 	12148
scalar tree_4_3_u08_r14_network.client[22] 	avg_time[22] 	0.005030128009
scalar tree_4_3_u08_r14_network.client[23] 	hdistance[23] 	3.065575126106
scalar tree_4_3_u08_r14_network.client[23] 	downloads[23] 	12093
scalar tree_4_3_u08_r14_network.client[23] 	avg_time[23] 	0.004925642262
scalar tree_4_3_u08_r14_network.client[24] 	hdistance[24] 	3.0520876739728
scalar tree_4_3_u08_r14_network.client[24] 	downloads[24] 	11999
scalar tree_4_3_u08_r14_network.client[24] 	avg_time[24] 	0.004903162514
scalar tree_4_3_u08_r14_network.client[25] 	hdistance[25] 	3.0543216038599
scalar tree_4_3_u08_r14_network.client[25] 	downloads[25] 	12021
scalar tree_4_3_u08_r14_network.client[25] 	avg_time[25] 	0.004909072768
scalar tree_4_3_u08_r14_network.client[26] 	hdistance[26] 	3.197178367484
scalar tree_4_3_u08_r14_network.client[26] 	downloads[26] 	11908
scalar tree_4_3_u08_r14_network.client[26] 	avg_time[26] 	0.005112034641
scalar tree_4_3_u08_r14_network.client[27] 	hdistance[27] 	3.0261753917973
scalar tree_4_3_u08_r14_network.client[27] 	downloads[27] 	11996
scalar tree_4_3_u08_r14_network.client[27] 	avg_time[27] 	0.004861568909
scalar tree_4_3_u08_r14_network.client[28] 	hdistance[28] 	3.0154050024847
scalar tree_4_3_u08_r14_network.client[28] 	downloads[28] 	12074
scalar tree_4_3_u08_r14_network.client[28] 	avg_time[28] 	0.004850378207
scalar tree_4_3_u08_r14_network.client[29] 	hdistance[29] 	3.1279117964022
scalar tree_4_3_u08_r14_network.client[29] 	downloads[29] 	12063
scalar tree_4_3_u08_r14_network.client[29] 	avg_time[29] 	0.005045854532
scalar tree_4_3_u08_r14_network.client[30] 	hdistance[30] 	3.1306184521798
scalar tree_4_3_u08_r14_network.client[30] 	downloads[30] 	11836
scalar tree_4_3_u08_r14_network.client[30] 	avg_time[30] 	0.005055977073
scalar tree_4_3_u08_r14_network.client[31] 	hdistance[31] 	3.1172849775412
scalar tree_4_3_u08_r14_network.client[31] 	downloads[31] 	12022
scalar tree_4_3_u08_r14_network.client[31] 	avg_time[31] 	0.005033152877
scalar tree_4_3_u08_r14_network.client[32] 	hdistance[32] 	3.0584323830106
scalar tree_4_3_u08_r14_network.client[32] 	downloads[32] 	12031
scalar tree_4_3_u08_r14_network.client[32] 	avg_time[32] 	0.004930943239
scalar tree_4_3_u08_r14_network.client[33] 	hdistance[33] 	3.0570640822124
scalar tree_4_3_u08_r14_network.client[33] 	downloads[33] 	11969
scalar tree_4_3_u08_r14_network.client[33] 	avg_time[33] 	0.004916000926
scalar tree_4_3_u08_r14_network.client[34] 	hdistance[34] 	3.0653132540145
scalar tree_4_3_u08_r14_network.client[34] 	downloads[34] 	12019
scalar tree_4_3_u08_r14_network.client[34] 	avg_time[34] 	0.004934854551
scalar tree_4_3_u08_r14_network.client[35] 	hdistance[35] 	3.1622723114031
scalar tree_4_3_u08_r14_network.client[35] 	downloads[35] 	12023
scalar tree_4_3_u08_r14_network.client[35] 	avg_time[35] 	0.005124841078
scalar tree_4_3_u08_r14_network.client[36] 	hdistance[36] 	3.0762383581967
scalar tree_4_3_u08_r14_network.client[36] 	downloads[36] 	12133
scalar tree_4_3_u08_r14_network.client[36] 	avg_time[36] 	0.00494025104
scalar tree_4_3_u08_r14_network.client[37] 	hdistance[37] 	3.0461820606869
scalar tree_4_3_u08_r14_network.client[37] 	downloads[37] 	11996
scalar tree_4_3_u08_r14_network.client[37] 	avg_time[37] 	0.004909086135
scalar tree_4_3_u08_r14_network.client[38] 	hdistance[38] 	3.1342488555972
scalar tree_4_3_u08_r14_network.client[38] 	downloads[38] 	12015
scalar tree_4_3_u08_r14_network.client[38] 	avg_time[38] 	0.00501887816
scalar tree_4_3_u08_r14_network.client[39] 	hdistance[39] 	3.1469264140133
scalar tree_4_3_u08_r14_network.client[39] 	downloads[39] 	12217
scalar tree_4_3_u08_r14_network.client[39] 	avg_time[39] 	0.005042478739
