version 2
run General-171-20160818-20:23:20-19481
attr a 0.9
attr cd lce
attr configname General
attr cr lru
attr datetime 20160818-20:23:20
attr experiment General
attr fsize 1
attr inifile hw5115/scenario_A/EdgeCoop.ini
attr iterationvars "$name=tree_4_3, $un=08, $rep=12, $scenario=Edge, $cd=lce, $cr=lru, $fsize=1, $a=0.9, $sl=nrr, $ttl=1000, $variance=0.05"
attr iterationvars2 "$name=tree_4_3, $un=08, $rep=12, $scenario=Edge, $cd=lce, $cr=lru, $fsize=1, $a=0.9, $sl=nrr, $ttl=1000, $variance=0.05, $repetition=0"
attr measurement "$name=tree_4_3, $un=08, $rep=12, $scenario=Edge, $cd=lce, $cr=lru, $fsize=1, $a=0.9, $sl=nrr, $ttl=1000, $variance=0.05"
attr name tree_4_3
attr network networks.${name}_u${un}_r${rep}_network
attr processid 19481
attr rep 12
attr repetition 0
attr replication #0
attr resultdir results
attr runnumber 171
attr scenario Edge
attr seedset 12
attr sl nrr
attr ttl 1000
attr un 08
attr variance 0.05

scalar . 	a 	0.9
scalar . 	fsize 	1
scalar . 	rep 	12
scalar . 	ttl 	1000
scalar . 	un 	08
scalar . 	variance 	0.05
scalar tree_4_3_u08_r12_network.content_distribution 	repo-0 	0
scalar tree_4_3_u08_r12_network.content_distribution 	client-0 	13
scalar tree_4_3_u08_r12_network.content_distribution 	client-1 	14
scalar tree_4_3_u08_r12_network.content_distribution 	client-2 	15
scalar tree_4_3_u08_r12_network.content_distribution 	client-3 	16
scalar tree_4_3_u08_r12_network.content_distribution 	client-4 	17
scalar tree_4_3_u08_r12_network.content_distribution 	client-5 	18
scalar tree_4_3_u08_r12_network.content_distribution 	client-6 	19
scalar tree_4_3_u08_r12_network.content_distribution 	client-7 	20
scalar tree_4_3_u08_r12_network.content_distribution 	client-8 	21
scalar tree_4_3_u08_r12_network.content_distribution 	client-9 	22
scalar tree_4_3_u08_r12_network.content_distribution 	client-10 	23
scalar tree_4_3_u08_r12_network.content_distribution 	client-11 	24
scalar tree_4_3_u08_r12_network.content_distribution 	client-12 	25
scalar tree_4_3_u08_r12_network.content_distribution 	client-13 	26
scalar tree_4_3_u08_r12_network.content_distribution 	client-14 	27
scalar tree_4_3_u08_r12_network.content_distribution 	client-15 	28
scalar tree_4_3_u08_r12_network.content_distribution 	client-16 	29
scalar tree_4_3_u08_r12_network.content_distribution 	client-17 	30
scalar tree_4_3_u08_r12_network.content_distribution 	client-18 	31
scalar tree_4_3_u08_r12_network.content_distribution 	client-19 	32
scalar tree_4_3_u08_r12_network.content_distribution 	client-20 	33
scalar tree_4_3_u08_r12_network.content_distribution 	client-21 	34
scalar tree_4_3_u08_r12_network.content_distribution 	client-22 	35
scalar tree_4_3_u08_r12_network.content_distribution 	client-23 	36
scalar tree_4_3_u08_r12_network.content_distribution 	client-24 	37
scalar tree_4_3_u08_r12_network.content_distribution 	client-25 	38
scalar tree_4_3_u08_r12_network.content_distribution 	client-26 	39
scalar tree_4_3_u08_r12_network.content_distribution 	repo-0_card 	100000
scalar tree_4_3_u08_r12_network.content_distribution 	repo-0_price 	0
scalar tree_4_3_u08_r12_network.statistics 	stabilization_time 	326.8
scalar tree_4_3_u08_r12_network.statistics 	p_hit 	0.21680912788047
scalar tree_4_3_u08_r12_network.statistics 	interests 	28308
scalar tree_4_3_u08_r12_network.statistics 	data 	20210.275
scalar tree_4_3_u08_r12_network.statistics 	hdistance 	3.097209295469
scalar tree_4_3_u08_r12_network.statistics 	avg_time 	0.004991429719
scalar tree_4_3_u08_r12_network.statistics 	downloads 	323900
scalar tree_4_3_u08_r12_network.statistics 	total_cost 	0
scalar tree_4_3_u08_r12_network.statistics 	total_replicas 	100000
scalar tree_4_3_u08_r12_network.statistics 	inner_hit 	0.39852114850262
scalar tree_4_3_u08_r12_network.node[0].core_layer 	interests[0] 	194819
scalar tree_4_3_u08_r12_network.node[0].core_layer 	repo_load[0] 	194819
scalar tree_4_3_u08_r12_network.node[0].core_layer 	data[0] 	0
scalar tree_4_3_u08_r12_network.node[0].core_layer 	repo_int[0] 	194819
scalar tree_4_3_u08_r12_network.node[0].content_store 	p_hit[0] 	0
scalar tree_4_3_u08_r12_network.node[0].content_store 	hits[0] 	0
scalar tree_4_3_u08_r12_network.node[0].content_store 	misses[0] 	194819
scalar tree_4_3_u08_r12_network.node[0].content_store 	decision_yes[0] 	0
scalar tree_4_3_u08_r12_network.node[0].content_store 	decision_no[0] 	194819
scalar tree_4_3_u08_r12_network.node[0].content_store 	decision_ratio[0] 	0
scalar tree_4_3_u08_r12_network.node[1].core_layer 	interests[1] 	145722
scalar tree_4_3_u08_r12_network.node[1].core_layer 	data[1] 	145717
scalar tree_4_3_u08_r12_network.node[1].content_store 	p_hit[1] 	0
scalar tree_4_3_u08_r12_network.node[1].content_store 	hits[1] 	0
scalar tree_4_3_u08_r12_network.node[1].content_store 	misses[1] 	145722
scalar tree_4_3_u08_r12_network.node[1].content_store 	decision_yes[1] 	0
scalar tree_4_3_u08_r12_network.node[1].content_store 	decision_no[1] 	145702
scalar tree_4_3_u08_r12_network.node[1].content_store 	decision_ratio[1] 	0
scalar tree_4_3_u08_r12_network.node[2].core_layer 	interests[2] 	70003
scalar tree_4_3_u08_r12_network.node[2].core_layer 	data[2] 	70001
scalar tree_4_3_u08_r12_network.node[2].content_store 	p_hit[2] 	0
scalar tree_4_3_u08_r12_network.node[2].content_store 	hits[2] 	0
scalar tree_4_3_u08_r12_network.node[2].content_store 	misses[2] 	70003
scalar tree_4_3_u08_r12_network.node[2].content_store 	decision_yes[2] 	0
scalar tree_4_3_u08_r12_network.node[2].content_store 	decision_no[2] 	69995
scalar tree_4_3_u08_r12_network.node[2].content_store 	decision_ratio[2] 	0
scalar tree_4_3_u08_r12_network.node[3].core_layer 	interests[3] 	14812
scalar tree_4_3_u08_r12_network.node[3].core_layer 	data[3] 	14812
scalar tree_4_3_u08_r12_network.node[3].content_store 	p_hit[3] 	0
scalar tree_4_3_u08_r12_network.node[3].content_store 	hits[3] 	0
scalar tree_4_3_u08_r12_network.node[3].content_store 	misses[3] 	14812
scalar tree_4_3_u08_r12_network.node[3].content_store 	decision_yes[3] 	0
scalar tree_4_3_u08_r12_network.node[3].content_store 	decision_no[3] 	14812
scalar tree_4_3_u08_r12_network.node[3].content_store 	decision_ratio[3] 	0
scalar tree_4_3_u08_r12_network.node[4].core_layer 	interests[4] 	40615
scalar tree_4_3_u08_r12_network.node[4].core_layer 	data[4] 	40612
scalar tree_4_3_u08_r12_network.node[4].content_store 	p_hit[4] 	0
scalar tree_4_3_u08_r12_network.node[4].content_store 	hits[4] 	0
scalar tree_4_3_u08_r12_network.node[4].content_store 	misses[4] 	40615
scalar tree_4_3_u08_r12_network.node[4].content_store 	decision_yes[4] 	0
scalar tree_4_3_u08_r12_network.node[4].content_store 	decision_no[4] 	40606
scalar tree_4_3_u08_r12_network.node[4].content_store 	decision_ratio[4] 	0
scalar tree_4_3_u08_r12_network.node[5].core_layer 	interests[5] 	37191
scalar tree_4_3_u08_r12_network.node[5].core_layer 	data[5] 	37184
scalar tree_4_3_u08_r12_network.node[5].content_store 	p_hit[5] 	0
scalar tree_4_3_u08_r12_network.node[5].content_store 	hits[5] 	0
scalar tree_4_3_u08_r12_network.node[5].content_store 	misses[5] 	37191
scalar tree_4_3_u08_r12_network.node[5].content_store 	decision_yes[5] 	0
scalar tree_4_3_u08_r12_network.node[5].content_store 	decision_no[5] 	37181
scalar tree_4_3_u08_r12_network.node[5].content_store 	decision_ratio[5] 	0
scalar tree_4_3_u08_r12_network.node[6].core_layer 	interests[6] 	24739
scalar tree_4_3_u08_r12_network.node[6].core_layer 	data[6] 	24736
scalar tree_4_3_u08_r12_network.node[6].content_store 	p_hit[6] 	0
scalar tree_4_3_u08_r12_network.node[6].content_store 	hits[6] 	0
scalar tree_4_3_u08_r12_network.node[6].content_store 	misses[6] 	24739
scalar tree_4_3_u08_r12_network.node[6].content_store 	decision_yes[6] 	0
scalar tree_4_3_u08_r12_network.node[6].content_store 	decision_no[6] 	24732
scalar tree_4_3_u08_r12_network.node[6].content_store 	decision_ratio[6] 	0
scalar tree_4_3_u08_r12_network.node[7].core_layer 	interests[7] 	53686
scalar tree_4_3_u08_r12_network.node[7].core_layer 	data[7] 	53680
scalar tree_4_3_u08_r12_network.node[7].content_store 	p_hit[7] 	0
scalar tree_4_3_u08_r12_network.node[7].content_store 	hits[7] 	0
scalar tree_4_3_u08_r12_network.node[7].content_store 	misses[7] 	53686
scalar tree_4_3_u08_r12_network.node[7].content_store 	decision_yes[7] 	0
scalar tree_4_3_u08_r12_network.node[7].content_store 	decision_no[7] 	53674
scalar tree_4_3_u08_r12_network.node[7].content_store 	decision_ratio[7] 	0
scalar tree_4_3_u08_r12_network.node[8].core_layer 	interests[8] 	31482
scalar tree_4_3_u08_r12_network.node[8].core_layer 	data[8] 	31476
scalar tree_4_3_u08_r12_network.node[8].content_store 	p_hit[8] 	0
scalar tree_4_3_u08_r12_network.node[8].content_store 	hits[8] 	0
scalar tree_4_3_u08_r12_network.node[8].content_store 	misses[8] 	31482
scalar tree_4_3_u08_r12_network.node[8].content_store 	decision_yes[8] 	0
scalar tree_4_3_u08_r12_network.node[8].content_store 	decision_no[8] 	31473
scalar tree_4_3_u08_r12_network.node[8].content_store 	decision_ratio[8] 	0
scalar tree_4_3_u08_r12_network.node[9].core_layer 	interests[9] 	16748
scalar tree_4_3_u08_r12_network.node[9].core_layer 	data[9] 	16747
scalar tree_4_3_u08_r12_network.node[9].content_store 	p_hit[9] 	0
scalar tree_4_3_u08_r12_network.node[9].content_store 	hits[9] 	0
scalar tree_4_3_u08_r12_network.node[9].content_store 	misses[9] 	16748
scalar tree_4_3_u08_r12_network.node[9].content_store 	decision_yes[9] 	0
scalar tree_4_3_u08_r12_network.node[9].content_store 	decision_no[9] 	16746
scalar tree_4_3_u08_r12_network.node[9].content_store 	decision_ratio[9] 	0
scalar tree_4_3_u08_r12_network.node[10].core_layer 	interests[10] 	43136
scalar tree_4_3_u08_r12_network.node[10].core_layer 	data[10] 	43132
scalar tree_4_3_u08_r12_network.node[10].content_store 	p_hit[10] 	0
scalar tree_4_3_u08_r12_network.node[10].content_store 	hits[10] 	0
scalar tree_4_3_u08_r12_network.node[10].content_store 	misses[10] 	43136
scalar tree_4_3_u08_r12_network.node[10].content_store 	decision_yes[10] 	0
scalar tree_4_3_u08_r12_network.node[10].content_store 	decision_no[10] 	43126
scalar tree_4_3_u08_r12_network.node[10].content_store 	decision_ratio[10] 	0
scalar tree_4_3_u08_r12_network.node[11].core_layer 	interests[11] 	46062
scalar tree_4_3_u08_r12_network.node[11].core_layer 	data[11] 	46058
scalar tree_4_3_u08_r12_network.node[11].content_store 	p_hit[11] 	0
scalar tree_4_3_u08_r12_network.node[11].content_store 	hits[11] 	0
scalar tree_4_3_u08_r12_network.node[11].content_store 	misses[11] 	46062
scalar tree_4_3_u08_r12_network.node[11].content_store 	decision_yes[11] 	0
scalar tree_4_3_u08_r12_network.node[11].content_store 	decision_no[11] 	46051
scalar tree_4_3_u08_r12_network.node[11].content_store 	decision_ratio[11] 	0
scalar tree_4_3_u08_r12_network.node[12].core_layer 	interests[12] 	13154
scalar tree_4_3_u08_r12_network.node[12].core_layer 	data[12] 	13153
scalar tree_4_3_u08_r12_network.node[12].content_store 	p_hit[12] 	0
scalar tree_4_3_u08_r12_network.node[12].content_store 	hits[12] 	0
scalar tree_4_3_u08_r12_network.node[12].content_store 	misses[12] 	13154
scalar tree_4_3_u08_r12_network.node[12].content_store 	decision_yes[12] 	0
scalar tree_4_3_u08_r12_network.node[12].content_store 	decision_no[12] 	13152
scalar tree_4_3_u08_r12_network.node[12].content_store 	decision_ratio[12] 	0
scalar tree_4_3_u08_r12_network.node[13].core_layer 	interests[13] 	13548
scalar tree_4_3_u08_r12_network.node[13].core_layer 	data[13] 	9966
scalar tree_4_3_u08_r12_network.node[13].content_store 	p_hit[13] 	0.2643932683791
scalar tree_4_3_u08_r12_network.node[13].content_store 	hits[13] 	3582
scalar tree_4_3_u08_r12_network.node[13].content_store 	misses[13] 	9966
scalar tree_4_3_u08_r12_network.node[13].content_store 	decision_yes[13] 	9966
scalar tree_4_3_u08_r12_network.node[13].content_store 	decision_no[13] 	0
scalar tree_4_3_u08_r12_network.node[13].content_store 	decision_ratio[13] 	1
scalar tree_4_3_u08_r12_network.node[14].core_layer 	interests[14] 	15426
scalar tree_4_3_u08_r12_network.node[14].core_layer 	data[14] 	10176
scalar tree_4_3_u08_r12_network.node[14].content_store 	p_hit[14] 	0.34020484895631
scalar tree_4_3_u08_r12_network.node[14].content_store 	hits[14] 	5248
scalar tree_4_3_u08_r12_network.node[14].content_store 	misses[14] 	10178
scalar tree_4_3_u08_r12_network.node[14].content_store 	decision_yes[14] 	10176
scalar tree_4_3_u08_r12_network.node[14].content_store 	decision_no[14] 	0
scalar tree_4_3_u08_r12_network.node[14].content_store 	decision_ratio[14] 	1
scalar tree_4_3_u08_r12_network.node[15].core_layer 	interests[15] 	13850
scalar tree_4_3_u08_r12_network.node[15].core_layer 	data[15] 	10050
scalar tree_4_3_u08_r12_network.node[15].content_store 	p_hit[15] 	0.27436823104693
scalar tree_4_3_u08_r12_network.node[15].content_store 	hits[15] 	3800
scalar tree_4_3_u08_r12_network.node[15].content_store 	misses[15] 	10050
scalar tree_4_3_u08_r12_network.node[15].content_store 	decision_yes[15] 	10050
scalar tree_4_3_u08_r12_network.node[15].content_store 	decision_no[15] 	0
scalar tree_4_3_u08_r12_network.node[15].content_store 	decision_ratio[15] 	1
scalar tree_4_3_u08_r12_network.node[16].core_layer 	interests[16] 	15299
scalar tree_4_3_u08_r12_network.node[16].core_layer 	data[16] 	9826
scalar tree_4_3_u08_r12_network.node[16].content_store 	p_hit[16] 	0.35760507222694
scalar tree_4_3_u08_r12_network.node[16].content_store 	hits[16] 	5471
scalar tree_4_3_u08_r12_network.node[16].content_store 	misses[16] 	9828
scalar tree_4_3_u08_r12_network.node[16].content_store 	decision_yes[16] 	9826
scalar tree_4_3_u08_r12_network.node[16].content_store 	decision_no[16] 	0
scalar tree_4_3_u08_r12_network.node[16].content_store 	decision_ratio[16] 	1
scalar tree_4_3_u08_r12_network.node[17].core_layer 	interests[17] 	14592
scalar tree_4_3_u08_r12_network.node[17].core_layer 	data[17] 	10196
scalar tree_4_3_u08_r12_network.node[17].content_store 	p_hit[17] 	0.30112390350877
scalar tree_4_3_u08_r12_network.node[17].content_store 	hits[17] 	4394
scalar tree_4_3_u08_r12_network.node[17].content_store 	misses[17] 	10198
scalar tree_4_3_u08_r12_network.node[17].content_store 	decision_yes[17] 	10196
scalar tree_4_3_u08_r12_network.node[17].content_store 	decision_no[17] 	0
scalar tree_4_3_u08_r12_network.node[17].content_store 	decision_ratio[17] 	1
scalar tree_4_3_u08_r12_network.node[18].core_layer 	interests[18] 	15639
scalar tree_4_3_u08_r12_network.node[18].core_layer 	data[18] 	10022
scalar tree_4_3_u08_r12_network.node[18].content_store 	p_hit[18] 	0.35910224438903
scalar tree_4_3_u08_r12_network.node[18].content_store 	hits[18] 	5616
scalar tree_4_3_u08_r12_network.node[18].content_store 	misses[18] 	10023
scalar tree_4_3_u08_r12_network.node[18].content_store 	decision_yes[18] 	10022
scalar tree_4_3_u08_r12_network.node[18].content_store 	decision_no[18] 	0
scalar tree_4_3_u08_r12_network.node[18].content_store 	decision_ratio[18] 	1
scalar tree_4_3_u08_r12_network.node[19].core_layer 	interests[19] 	14427
scalar tree_4_3_u08_r12_network.node[19].core_layer 	data[19] 	10042
scalar tree_4_3_u08_r12_network.node[19].content_store 	p_hit[19] 	0.30387467942053
scalar tree_4_3_u08_r12_network.node[19].content_store 	hits[19] 	4384
scalar tree_4_3_u08_r12_network.node[19].content_store 	misses[19] 	10043
scalar tree_4_3_u08_r12_network.node[19].content_store 	decision_yes[19] 	10042
scalar tree_4_3_u08_r12_network.node[19].content_store 	decision_no[19] 	0
scalar tree_4_3_u08_r12_network.node[19].content_store 	decision_ratio[19] 	1
scalar tree_4_3_u08_r12_network.node[20].core_layer 	interests[20] 	15389
scalar tree_4_3_u08_r12_network.node[20].core_layer 	data[20] 	10070
scalar tree_4_3_u08_r12_network.node[20].content_store 	p_hit[20] 	0.34557151211905
scalar tree_4_3_u08_r12_network.node[20].content_store 	hits[20] 	5318
scalar tree_4_3_u08_r12_network.node[20].content_store 	misses[20] 	10071
scalar tree_4_3_u08_r12_network.node[20].content_store 	decision_yes[20] 	10070
scalar tree_4_3_u08_r12_network.node[20].content_store 	decision_no[20] 	0
scalar tree_4_3_u08_r12_network.node[20].content_store 	decision_ratio[20] 	1
scalar tree_4_3_u08_r12_network.node[21].core_layer 	interests[21] 	14491
scalar tree_4_3_u08_r12_network.node[21].core_layer 	data[21] 	10245
scalar tree_4_3_u08_r12_network.node[21].content_store 	p_hit[21] 	0.29294044579394
scalar tree_4_3_u08_r12_network.node[21].content_store 	hits[21] 	4245
scalar tree_4_3_u08_r12_network.node[21].content_store 	misses[21] 	10246
scalar tree_4_3_u08_r12_network.node[21].content_store 	decision_yes[21] 	10245
scalar tree_4_3_u08_r12_network.node[21].content_store 	decision_no[21] 	0
scalar tree_4_3_u08_r12_network.node[21].content_store 	decision_ratio[21] 	1
scalar tree_4_3_u08_r12_network.node[22].core_layer 	interests[22] 	14400
scalar tree_4_3_u08_r12_network.node[22].core_layer 	data[22] 	9869
scalar tree_4_3_u08_r12_network.node[22].content_store 	p_hit[22] 	0.31458333333333
scalar tree_4_3_u08_r12_network.node[22].content_store 	hits[22] 	4530
scalar tree_4_3_u08_r12_network.node[22].content_store 	misses[22] 	9870
scalar tree_4_3_u08_r12_network.node[22].content_store 	decision_yes[22] 	9869
scalar tree_4_3_u08_r12_network.node[22].content_store 	decision_no[22] 	0
scalar tree_4_3_u08_r12_network.node[22].content_store 	decision_ratio[22] 	1
scalar tree_4_3_u08_r12_network.node[23].core_layer 	interests[23] 	14966
scalar tree_4_3_u08_r12_network.node[23].core_layer 	data[23] 	9805
scalar tree_4_3_u08_r12_network.node[23].content_store 	p_hit[23] 	0.34484832286516
scalar tree_4_3_u08_r12_network.node[23].content_store 	hits[23] 	5161
scalar tree_4_3_u08_r12_network.node[23].content_store 	misses[23] 	9805
scalar tree_4_3_u08_r12_network.node[23].content_store 	decision_yes[23] 	9805
scalar tree_4_3_u08_r12_network.node[23].content_store 	decision_no[23] 	0
scalar tree_4_3_u08_r12_network.node[23].content_store 	decision_ratio[23] 	1
scalar tree_4_3_u08_r12_network.node[24].core_layer 	interests[24] 	15405
scalar tree_4_3_u08_r12_network.node[24].core_layer 	data[24] 	10113
scalar tree_4_3_u08_r12_network.node[24].content_store 	p_hit[24] 	0.34352482960078
scalar tree_4_3_u08_r12_network.node[24].content_store 	hits[24] 	5292
scalar tree_4_3_u08_r12_network.node[24].content_store 	misses[24] 	10113
scalar tree_4_3_u08_r12_network.node[24].content_store 	decision_yes[24] 	10113
scalar tree_4_3_u08_r12_network.node[24].content_store 	decision_no[24] 	0
scalar tree_4_3_u08_r12_network.node[24].content_store 	decision_ratio[24] 	1
scalar tree_4_3_u08_r12_network.node[25].core_layer 	interests[25] 	15404
scalar tree_4_3_u08_r12_network.node[25].core_layer 	data[25] 	9982
scalar tree_4_3_u08_r12_network.node[25].content_store 	p_hit[25] 	0.35198649701376
scalar tree_4_3_u08_r12_network.node[25].content_store 	hits[25] 	5422
scalar tree_4_3_u08_r12_network.node[25].content_store 	misses[25] 	9982
scalar tree_4_3_u08_r12_network.node[25].content_store 	decision_yes[25] 	9982
scalar tree_4_3_u08_r12_network.node[25].content_store 	decision_no[25] 	0
scalar tree_4_3_u08_r12_network.node[25].content_store 	decision_ratio[25] 	1
scalar tree_4_3_u08_r12_network.node[26].core_layer 	interests[26] 	13834
scalar tree_4_3_u08_r12_network.node[26].core_layer 	data[26] 	10136
scalar tree_4_3_u08_r12_network.node[26].content_store 	p_hit[26] 	0.2673847043516
scalar tree_4_3_u08_r12_network.node[26].content_store 	hits[26] 	3699
scalar tree_4_3_u08_r12_network.node[26].content_store 	misses[26] 	10135
scalar tree_4_3_u08_r12_network.node[26].content_store 	decision_yes[26] 	10136
scalar tree_4_3_u08_r12_network.node[26].content_store 	decision_no[26] 	0
scalar tree_4_3_u08_r12_network.node[26].content_store 	decision_ratio[26] 	1
scalar tree_4_3_u08_r12_network.node[27].core_layer 	interests[27] 	15212
scalar tree_4_3_u08_r12_network.node[27].core_layer 	data[27] 	9895
scalar tree_4_3_u08_r12_network.node[27].content_store 	p_hit[27] 	0.34952668945569
scalar tree_4_3_u08_r12_network.node[27].content_store 	hits[27] 	5317
scalar tree_4_3_u08_r12_network.node[27].content_store 	misses[27] 	9895
scalar tree_4_3_u08_r12_network.node[27].content_store 	decision_yes[27] 	9895
scalar tree_4_3_u08_r12_network.node[27].content_store 	decision_no[27] 	0
scalar tree_4_3_u08_r12_network.node[27].content_store 	decision_ratio[27] 	1
scalar tree_4_3_u08_r12_network.node[28].core_layer 	interests[28] 	15556
scalar tree_4_3_u08_r12_network.node[28].core_layer 	data[28] 	10033
scalar tree_4_3_u08_r12_network.node[28].content_store 	p_hit[28] 	0.35510413988172
scalar tree_4_3_u08_r12_network.node[28].content_store 	hits[28] 	5524
scalar tree_4_3_u08_r12_network.node[28].content_store 	misses[28] 	10032
scalar tree_4_3_u08_r12_network.node[28].content_store 	decision_yes[28] 	10033
scalar tree_4_3_u08_r12_network.node[28].content_store 	decision_no[28] 	0
scalar tree_4_3_u08_r12_network.node[28].content_store 	decision_ratio[28] 	1
scalar tree_4_3_u08_r12_network.node[29].core_layer 	interests[29] 	15270
scalar tree_4_3_u08_r12_network.node[29].core_layer 	data[29] 	10059
scalar tree_4_3_u08_r12_network.node[29].content_store 	p_hit[29] 	0.34125736738703
scalar tree_4_3_u08_r12_network.node[29].content_store 	hits[29] 	5211
scalar tree_4_3_u08_r12_network.node[29].content_store 	misses[29] 	10059
scalar tree_4_3_u08_r12_network.node[29].content_store 	decision_yes[29] 	10059
scalar tree_4_3_u08_r12_network.node[29].content_store 	decision_no[29] 	0
scalar tree_4_3_u08_r12_network.node[29].content_store 	decision_ratio[29] 	1
scalar tree_4_3_u08_r12_network.node[30].core_layer 	interests[30] 	14449
scalar tree_4_3_u08_r12_network.node[30].core_layer 	data[30] 	10194
scalar tree_4_3_u08_r12_network.node[30].content_store 	p_hit[30] 	0.29448404733892
scalar tree_4_3_u08_r12_network.node[30].content_store 	hits[30] 	4255
scalar tree_4_3_u08_r12_network.node[30].content_store 	misses[30] 	10194
scalar tree_4_3_u08_r12_network.node[30].content_store 	decision_yes[30] 	10194
scalar tree_4_3_u08_r12_network.node[30].content_store 	decision_no[30] 	0
scalar tree_4_3_u08_r12_network.node[30].content_store 	decision_ratio[30] 	1
scalar tree_4_3_u08_r12_network.node[31].core_layer 	interests[31] 	14286
scalar tree_4_3_u08_r12_network.node[31].core_layer 	data[31] 	10090
scalar tree_4_3_u08_r12_network.node[31].content_store 	p_hit[31] 	0.29371412571749
scalar tree_4_3_u08_r12_network.node[31].content_store 	hits[31] 	4196
scalar tree_4_3_u08_r12_network.node[31].content_store 	misses[31] 	10090
scalar tree_4_3_u08_r12_network.node[31].content_store 	decision_yes[31] 	10090
scalar tree_4_3_u08_r12_network.node[31].content_store 	decision_no[31] 	0
scalar tree_4_3_u08_r12_network.node[31].content_store 	decision_ratio[31] 	1
scalar tree_4_3_u08_r12_network.node[32].core_layer 	interests[32] 	15802
scalar tree_4_3_u08_r12_network.node[32].core_layer 	data[32] 	10110
scalar tree_4_3_u08_r12_network.node[32].content_store 	p_hit[32] 	0.36020756866219
scalar tree_4_3_u08_r12_network.node[32].content_store 	hits[32] 	5692
scalar tree_4_3_u08_r12_network.node[32].content_store 	misses[32] 	10110
scalar tree_4_3_u08_r12_network.node[32].content_store 	decision_yes[32] 	10110
scalar tree_4_3_u08_r12_network.node[32].content_store 	decision_no[32] 	0
scalar tree_4_3_u08_r12_network.node[32].content_store 	decision_ratio[32] 	1
scalar tree_4_3_u08_r12_network.node[33].core_layer 	interests[33] 	14896
scalar tree_4_3_u08_r12_network.node[33].core_layer 	data[33] 	9812
scalar tree_4_3_u08_r12_network.node[33].content_store 	p_hit[33] 	0.34136680988185
scalar tree_4_3_u08_r12_network.node[33].content_store 	hits[33] 	5085
scalar tree_4_3_u08_r12_network.node[33].content_store 	misses[33] 	9811
scalar tree_4_3_u08_r12_network.node[33].content_store 	decision_yes[33] 	9812
scalar tree_4_3_u08_r12_network.node[33].content_store 	decision_no[33] 	0
scalar tree_4_3_u08_r12_network.node[33].content_store 	decision_ratio[33] 	1
scalar tree_4_3_u08_r12_network.node[34].core_layer 	interests[34] 	14372
scalar tree_4_3_u08_r12_network.node[34].core_layer 	data[34] 	9921
scalar tree_4_3_u08_r12_network.node[34].content_store 	p_hit[34] 	0.30962983579182
scalar tree_4_3_u08_r12_network.node[34].content_store 	hits[34] 	4450
scalar tree_4_3_u08_r12_network.node[34].content_store 	misses[34] 	9922
scalar tree_4_3_u08_r12_network.node[34].content_store 	decision_yes[34] 	9921
scalar tree_4_3_u08_r12_network.node[34].content_store 	decision_no[34] 	0
scalar tree_4_3_u08_r12_network.node[34].content_store 	decision_ratio[34] 	1
scalar tree_4_3_u08_r12_network.node[35].core_layer 	interests[35] 	14570
scalar tree_4_3_u08_r12_network.node[35].core_layer 	data[35] 	10157
scalar tree_4_3_u08_r12_network.node[35].content_store 	p_hit[35] 	0.30274536719286
scalar tree_4_3_u08_r12_network.node[35].content_store 	hits[35] 	4411
scalar tree_4_3_u08_r12_network.node[35].content_store 	misses[35] 	10159
scalar tree_4_3_u08_r12_network.node[35].content_store 	decision_yes[35] 	10157
scalar tree_4_3_u08_r12_network.node[35].content_store 	decision_no[35] 	0
scalar tree_4_3_u08_r12_network.node[35].content_store 	decision_ratio[35] 	1
scalar tree_4_3_u08_r12_network.node[36].core_layer 	interests[36] 	14510
scalar tree_4_3_u08_r12_network.node[36].core_layer 	data[36] 	9970
scalar tree_4_3_u08_r12_network.node[36].content_store 	p_hit[36] 	0.31288766368022
scalar tree_4_3_u08_r12_network.node[36].content_store 	hits[36] 	4540
scalar tree_4_3_u08_r12_network.node[36].content_store 	misses[36] 	9970
scalar tree_4_3_u08_r12_network.node[36].content_store 	decision_yes[36] 	9970
scalar tree_4_3_u08_r12_network.node[36].content_store 	decision_no[36] 	0
scalar tree_4_3_u08_r12_network.node[36].content_store 	decision_ratio[36] 	1
scalar tree_4_3_u08_r12_network.node[37].core_layer 	interests[37] 	14956
scalar tree_4_3_u08_r12_network.node[37].core_layer 	data[37] 	9975
scalar tree_4_3_u08_r12_network.node[37].content_store 	p_hit[37] 	0.33297673174646
scalar tree_4_3_u08_r12_network.node[37].content_store 	hits[37] 	4980
scalar tree_4_3_u08_r12_network.node[37].content_store 	misses[37] 	9976
scalar tree_4_3_u08_r12_network.node[37].content_store 	decision_yes[37] 	9975
scalar tree_4_3_u08_r12_network.node[37].content_store 	decision_no[37] 	0
scalar tree_4_3_u08_r12_network.node[37].content_store 	decision_ratio[37] 	1
scalar tree_4_3_u08_r12_network.node[38].core_layer 	interests[38] 	15699
scalar tree_4_3_u08_r12_network.node[38].core_layer 	data[38] 	10144
scalar tree_4_3_u08_r12_network.node[38].content_store 	p_hit[38] 	0.3538441938977
scalar tree_4_3_u08_r12_network.node[38].content_store 	hits[38] 	5555
scalar tree_4_3_u08_r12_network.node[38].content_store 	misses[38] 	10144
scalar tree_4_3_u08_r12_network.node[38].content_store 	decision_yes[38] 	10144
scalar tree_4_3_u08_r12_network.node[38].content_store 	decision_no[38] 	0
scalar tree_4_3_u08_r12_network.node[38].content_store 	decision_ratio[38] 	1
scalar tree_4_3_u08_r12_network.node[39].core_layer 	interests[39] 	13903
scalar tree_4_3_u08_r12_network.node[39].core_layer 	data[39] 	10245
scalar tree_4_3_u08_r12_network.node[39].content_store 	p_hit[39] 	0.26310868157952
scalar tree_4_3_u08_r12_network.node[39].content_store 	hits[39] 	3658
scalar tree_4_3_u08_r12_network.node[39].content_store 	misses[39] 	10245
scalar tree_4_3_u08_r12_network.node[39].content_store 	decision_yes[39] 	10245
scalar tree_4_3_u08_r12_network.node[39].content_store 	decision_no[39] 	0
scalar tree_4_3_u08_r12_network.node[39].content_store 	decision_ratio[39] 	1
scalar tree_4_3_u08_r12_network.client[13] 	hdistance[13] 	3.1762218839844
scalar tree_4_3_u08_r12_network.client[13] 	downloads[13] 	11826
scalar tree_4_3_u08_r12_network.client[13] 	avg_time[13] 	0.005091294405
scalar tree_4_3_u08_r12_network.client[14] 	hdistance[14] 	3.0863237969241
scalar tree_4_3_u08_r12_network.client[14] 	downloads[14] 	12094
scalar tree_4_3_u08_r12_network.client[14] 	avg_time[14] 	0.004960169545
scalar tree_4_3_u08_r12_network.client[15] 	hdistance[15] 	3.1477291632008
scalar tree_4_3_u08_r12_network.client[15] 	downloads[15] 	12022
scalar tree_4_3_u08_r12_network.client[15] 	avg_time[15] 	0.005053622408
scalar tree_4_3_u08_r12_network.client[16] 	hdistance[16] 	3.0425244684441
scalar tree_4_3_u08_r12_network.client[16] 	downloads[16] 	11852
scalar tree_4_3_u08_r12_network.client[16] 	avg_time[16] 	0.004906693264
scalar tree_4_3_u08_r12_network.client[17] 	hdistance[17] 	3.1384080178912
scalar tree_4_3_u08_r12_network.client[17] 	downloads[17] 	12073
scalar tree_4_3_u08_r12_network.client[17] 	avg_time[17] 	0.005080531226
scalar tree_4_3_u08_r12_network.client[18] 	hdistance[18] 	3.0522288755822
scalar tree_4_3_u08_r12_network.client[18] 	downloads[18] 	12024
scalar tree_4_3_u08_r12_network.client[18] 	avg_time[18] 	0.004922634018
scalar tree_4_3_u08_r12_network.client[19] 	hdistance[19] 	3.1623159303882
scalar tree_4_3_u08_r12_network.client[19] 	downloads[19] 	11952
scalar tree_4_3_u08_r12_network.client[19] 	avg_time[19] 	0.005124777333
scalar tree_4_3_u08_r12_network.client[20] 	hdistance[20] 	3.0904401364506
scalar tree_4_3_u08_r12_network.client[20] 	downloads[20] 	12019
scalar tree_4_3_u08_r12_network.client[20] 	avg_time[20] 	0.004980402066
scalar tree_4_3_u08_r12_network.client[21] 	hdistance[21] 	3.1831707720284
scalar tree_4_3_u08_r12_network.client[21] 	downloads[21] 	12098
scalar tree_4_3_u08_r12_network.client[21] 	avg_time[21] 	0.005174397423
scalar tree_4_3_u08_r12_network.client[22] 	hdistance[22] 	3.0973675329058
scalar tree_4_3_u08_r12_network.client[22] 	downloads[22] 	11852
scalar tree_4_3_u08_r12_network.client[22] 	avg_time[22] 	0.005019549708
scalar tree_4_3_u08_r12_network.client[23] 	hdistance[23] 	3.0475623245129
scalar tree_4_3_u08_r12_network.client[23] 	downloads[23] 	11753
scalar tree_4_3_u08_r12_network.client[23] 	avg_time[23] 	0.004893733445
scalar tree_4_3_u08_r12_network.client[24] 	hdistance[24] 	3.0620540899287
scalar tree_4_3_u08_r12_network.client[24] 	downloads[24] 	12054
scalar tree_4_3_u08_r12_network.client[24] 	avg_time[24] 	0.004915660965
scalar tree_4_3_u08_r12_network.client[25] 	hdistance[25] 	3.0302122347066
scalar tree_4_3_u08_r12_network.client[25] 	downloads[25] 	12015
scalar tree_4_3_u08_r12_network.client[25] 	avg_time[25] 	0.004870702383
scalar tree_4_3_u08_r12_network.client[26] 	hdistance[26] 	3.1394614361702
scalar tree_4_3_u08_r12_network.client[26] 	downloads[26] 	12032
scalar tree_4_3_u08_r12_network.client[26] 	avg_time[26] 	0.00502286666
scalar tree_4_3_u08_r12_network.client[27] 	hdistance[27] 	3.0039254990395
scalar tree_4_3_u08_r12_network.client[27] 	downloads[27] 	11973
scalar tree_4_3_u08_r12_network.client[27] 	avg_time[27] 	0.00483153725
scalar tree_4_3_u08_r12_network.client[28] 	hdistance[28] 	3.0493467587584
scalar tree_4_3_u08_r12_network.client[28] 	downloads[28] 	12017
scalar tree_4_3_u08_r12_network.client[28] 	avg_time[28] 	0.004909877034
scalar tree_4_3_u08_r12_network.client[29] 	hdistance[29] 	3.0265092080271
scalar tree_4_3_u08_r12_network.client[29] 	downloads[29] 	12109
scalar tree_4_3_u08_r12_network.client[29] 	avg_time[29] 	0.004859415291
scalar tree_4_3_u08_r12_network.client[30] 	hdistance[30] 	3.1278629098698
scalar tree_4_3_u08_r12_network.client[30] 	downloads[30] 	12138
scalar tree_4_3_u08_r12_network.client[30] 	avg_time[30] 	0.005056791804
scalar tree_4_3_u08_r12_network.client[31] 	hdistance[31] 	3.1688137861804
scalar tree_4_3_u08_r12_network.client[31] 	downloads[31] 	11954
scalar tree_4_3_u08_r12_network.client[31] 	avg_time[31] 	0.005136031191
scalar tree_4_3_u08_r12_network.client[32] 	hdistance[32] 	3.0553254927944
scalar tree_4_3_u08_r12_network.client[32] 	downloads[32] 	12074
scalar tree_4_3_u08_r12_network.client[32] 	avg_time[32] 	0.004913911921
scalar tree_4_3_u08_r12_network.client[33] 	hdistance[33] 	3.0761775208298
scalar tree_4_3_u08_r12_network.client[33] 	downloads[33] 	11762
scalar tree_4_3_u08_r12_network.client[33] 	avg_time[33] 	0.004967401702
scalar tree_4_3_u08_r12_network.client[34] 	hdistance[34] 	3.1251900658895
scalar tree_4_3_u08_r12_network.client[34] 	downloads[34] 	11838
scalar tree_4_3_u08_r12_network.client[34] 	avg_time[34] 	0.005047838635
scalar tree_4_3_u08_r12_network.client[35] 	hdistance[35] 	3.1291147595083
scalar tree_4_3_u08_r12_network.client[35] 	downloads[35] 	12121
scalar tree_4_3_u08_r12_network.client[35] 	avg_time[35] 	0.00504622729
scalar tree_4_3_u08_r12_network.client[36] 	hdistance[36] 	3.0984058091979
scalar tree_4_3_u08_r12_network.client[36] 	downloads[36] 	11981
scalar tree_4_3_u08_r12_network.client[36] 	avg_time[36] 	0.005008478934
scalar tree_4_3_u08_r12_network.client[37] 	hdistance[37] 	3.0880776959143
scalar tree_4_3_u08_r12_network.client[37] 	downloads[37] 	11944
scalar tree_4_3_u08_r12_network.client[37] 	avg_time[37] 	0.004984960425
scalar tree_4_3_u08_r12_network.client[38] 	hdistance[38] 	3.0443988510464
scalar tree_4_3_u08_r12_network.client[38] 	downloads[38] 	12185
scalar tree_4_3_u08_r12_network.client[38] 	avg_time[38] 	0.004889122942
scalar tree_4_3_u08_r12_network.client[39] 	hdistance[39] 	3.1754819574889
scalar tree_4_3_u08_r12_network.client[39] 	downloads[39] 	12138
scalar tree_4_3_u08_r12_network.client[39] 	avg_time[39] 	0.005099973169
