version 2
run General-179-20160818-20:29:16-19481
attr a 0.9
attr cd lce
attr configname General
attr cr lru
attr datetime 20160818-20:29:16
attr experiment General
attr fsize 1
attr inifile hw5115/scenario_A/EdgeCoop.ini
attr iterationvars "$name=tree_4_3, $un=08, $rep=20, $scenario=Edge, $cd=lce, $cr=lru, $fsize=1, $a=0.9, $sl=nrr, $ttl=1000, $variance=0.05"
attr iterationvars2 "$name=tree_4_3, $un=08, $rep=20, $scenario=Edge, $cd=lce, $cr=lru, $fsize=1, $a=0.9, $sl=nrr, $ttl=1000, $variance=0.05, $repetition=0"
attr measurement "$name=tree_4_3, $un=08, $rep=20, $scenario=Edge, $cd=lce, $cr=lru, $fsize=1, $a=0.9, $sl=nrr, $ttl=1000, $variance=0.05"
attr name tree_4_3
attr network networks.${name}_u${un}_r${rep}_network
attr processid 19481
attr rep 20
attr repetition 0
attr replication #0
attr resultdir results
attr runnumber 179
attr scenario Edge
attr seedset 20
attr sl nrr
attr ttl 1000
attr un 08
attr variance 0.05

scalar . 	a 	0.9
scalar . 	fsize 	1
scalar . 	rep 	20
scalar . 	ttl 	1000
scalar . 	un 	08
scalar . 	variance 	0.05
scalar tree_4_3_u08_r20_network.content_distribution 	repo-0 	0
scalar tree_4_3_u08_r20_network.content_distribution 	client-0 	13
scalar tree_4_3_u08_r20_network.content_distribution 	client-1 	14
scalar tree_4_3_u08_r20_network.content_distribution 	client-2 	15
scalar tree_4_3_u08_r20_network.content_distribution 	client-3 	16
scalar tree_4_3_u08_r20_network.content_distribution 	client-4 	17
scalar tree_4_3_u08_r20_network.content_distribution 	client-5 	18
scalar tree_4_3_u08_r20_network.content_distribution 	client-6 	19
scalar tree_4_3_u08_r20_network.content_distribution 	client-7 	20
scalar tree_4_3_u08_r20_network.content_distribution 	client-8 	21
scalar tree_4_3_u08_r20_network.content_distribution 	client-9 	22
scalar tree_4_3_u08_r20_network.content_distribution 	client-10 	23
scalar tree_4_3_u08_r20_network.content_distribution 	client-11 	24
scalar tree_4_3_u08_r20_network.content_distribution 	client-12 	25
scalar tree_4_3_u08_r20_network.content_distribution 	client-13 	26
scalar tree_4_3_u08_r20_network.content_distribution 	client-14 	27
scalar tree_4_3_u08_r20_network.content_distribution 	client-15 	28
scalar tree_4_3_u08_r20_network.content_distribution 	client-16 	29
scalar tree_4_3_u08_r20_network.content_distribution 	client-17 	30
scalar tree_4_3_u08_r20_network.content_distribution 	client-18 	31
scalar tree_4_3_u08_r20_network.content_distribution 	client-19 	32
scalar tree_4_3_u08_r20_network.content_distribution 	client-20 	33
scalar tree_4_3_u08_r20_network.content_distribution 	client-21 	34
scalar tree_4_3_u08_r20_network.content_distribution 	client-22 	35
scalar tree_4_3_u08_r20_network.content_distribution 	client-23 	36
scalar tree_4_3_u08_r20_network.content_distribution 	client-24 	37
scalar tree_4_3_u08_r20_network.content_distribution 	client-25 	38
scalar tree_4_3_u08_r20_network.content_distribution 	client-26 	39
scalar tree_4_3_u08_r20_network.content_distribution 	repo-0_card 	100000
scalar tree_4_3_u08_r20_network.content_distribution 	repo-0_price 	0
scalar tree_4_3_u08_r20_network.statistics 	stabilization_time 	271.8
scalar tree_4_3_u08_r20_network.statistics 	p_hit 	0.21213084240431
scalar tree_4_3_u08_r20_network.statistics 	interests 	28211.025
scalar tree_4_3_u08_r20_network.statistics 	data 	20102.625
scalar tree_4_3_u08_r20_network.statistics 	hdistance 	3.092707115314
scalar tree_4_3_u08_r20_network.statistics 	avg_time 	0.00495843231
scalar tree_4_3_u08_r20_network.statistics 	downloads 	324313
scalar tree_4_3_u08_r20_network.statistics 	total_cost 	0
scalar tree_4_3_u08_r20_network.statistics 	total_replicas 	100000
scalar tree_4_3_u08_r20_network.statistics 	inner_hit 	0.38652782959672
scalar tree_4_3_u08_r20_network.node[0].core_layer 	interests[0] 	198957
scalar tree_4_3_u08_r20_network.node[0].core_layer 	repo_load[0] 	198957
scalar tree_4_3_u08_r20_network.node[0].core_layer 	data[0] 	0
scalar tree_4_3_u08_r20_network.node[0].core_layer 	repo_int[0] 	198957
scalar tree_4_3_u08_r20_network.node[0].content_store 	p_hit[0] 	0
scalar tree_4_3_u08_r20_network.node[0].content_store 	hits[0] 	0
scalar tree_4_3_u08_r20_network.node[0].content_store 	misses[0] 	198957
scalar tree_4_3_u08_r20_network.node[0].content_store 	decision_yes[0] 	0
scalar tree_4_3_u08_r20_network.node[0].content_store 	decision_no[0] 	198957
scalar tree_4_3_u08_r20_network.node[0].content_store 	decision_ratio[0] 	0
scalar tree_4_3_u08_r20_network.node[1].core_layer 	interests[1] 	137988
scalar tree_4_3_u08_r20_network.node[1].core_layer 	data[1] 	137986
scalar tree_4_3_u08_r20_network.node[1].content_store 	p_hit[1] 	0
scalar tree_4_3_u08_r20_network.node[1].content_store 	hits[1] 	0
scalar tree_4_3_u08_r20_network.node[1].content_store 	misses[1] 	137988
scalar tree_4_3_u08_r20_network.node[1].content_store 	decision_yes[1] 	0
scalar tree_4_3_u08_r20_network.node[1].content_store 	decision_no[1] 	137975
scalar tree_4_3_u08_r20_network.node[1].content_store 	decision_ratio[1] 	0
scalar tree_4_3_u08_r20_network.node[2].core_layer 	interests[2] 	62211
scalar tree_4_3_u08_r20_network.node[2].core_layer 	data[2] 	62209
scalar tree_4_3_u08_r20_network.node[2].content_store 	p_hit[2] 	0
scalar tree_4_3_u08_r20_network.node[2].content_store 	hits[2] 	0
scalar tree_4_3_u08_r20_network.node[2].content_store 	misses[2] 	62211
scalar tree_4_3_u08_r20_network.node[2].content_store 	decision_yes[2] 	0
scalar tree_4_3_u08_r20_network.node[2].content_store 	decision_no[2] 	62207
scalar tree_4_3_u08_r20_network.node[2].content_store 	decision_ratio[2] 	0
scalar tree_4_3_u08_r20_network.node[3].core_layer 	interests[3] 	29791
scalar tree_4_3_u08_r20_network.node[3].core_layer 	data[3] 	29790
scalar tree_4_3_u08_r20_network.node[3].content_store 	p_hit[3] 	0
scalar tree_4_3_u08_r20_network.node[3].content_store 	hits[3] 	0
scalar tree_4_3_u08_r20_network.node[3].content_store 	misses[3] 	29791
scalar tree_4_3_u08_r20_network.node[3].content_store 	decision_yes[3] 	0
scalar tree_4_3_u08_r20_network.node[3].content_store 	decision_no[3] 	29789
scalar tree_4_3_u08_r20_network.node[3].content_store 	decision_ratio[3] 	0
scalar tree_4_3_u08_r20_network.node[4].core_layer 	interests[4] 	49460
scalar tree_4_3_u08_r20_network.node[4].core_layer 	data[4] 	49456
scalar tree_4_3_u08_r20_network.node[4].content_store 	p_hit[4] 	0
scalar tree_4_3_u08_r20_network.node[4].content_store 	hits[4] 	0
scalar tree_4_3_u08_r20_network.node[4].content_store 	misses[4] 	49460
scalar tree_4_3_u08_r20_network.node[4].content_store 	decision_yes[4] 	0
scalar tree_4_3_u08_r20_network.node[4].content_store 	decision_no[4] 	49453
scalar tree_4_3_u08_r20_network.node[4].content_store 	decision_ratio[4] 	0
scalar tree_4_3_u08_r20_network.node[5].core_layer 	interests[5] 	35978
scalar tree_4_3_u08_r20_network.node[5].core_layer 	data[5] 	35976
scalar tree_4_3_u08_r20_network.node[5].content_store 	p_hit[5] 	0
scalar tree_4_3_u08_r20_network.node[5].content_store 	hits[5] 	0
scalar tree_4_3_u08_r20_network.node[5].content_store 	misses[5] 	35978
scalar tree_4_3_u08_r20_network.node[5].content_store 	decision_yes[5] 	0
scalar tree_4_3_u08_r20_network.node[5].content_store 	decision_no[5] 	35972
scalar tree_4_3_u08_r20_network.node[5].content_store 	decision_ratio[5] 	0
scalar tree_4_3_u08_r20_network.node[6].core_layer 	interests[6] 	13823
scalar tree_4_3_u08_r20_network.node[6].core_layer 	data[6] 	13822
scalar tree_4_3_u08_r20_network.node[6].content_store 	p_hit[6] 	0
scalar tree_4_3_u08_r20_network.node[6].content_store 	hits[6] 	0
scalar tree_4_3_u08_r20_network.node[6].content_store 	misses[6] 	13823
scalar tree_4_3_u08_r20_network.node[6].content_store 	decision_yes[6] 	0
scalar tree_4_3_u08_r20_network.node[6].content_store 	decision_no[6] 	13819
scalar tree_4_3_u08_r20_network.node[6].content_store 	decision_ratio[6] 	0
scalar tree_4_3_u08_r20_network.node[7].core_layer 	interests[7] 	42308
scalar tree_4_3_u08_r20_network.node[7].core_layer 	data[7] 	42302
scalar tree_4_3_u08_r20_network.node[7].content_store 	p_hit[7] 	0
scalar tree_4_3_u08_r20_network.node[7].content_store 	hits[7] 	0
scalar tree_4_3_u08_r20_network.node[7].content_store 	misses[7] 	42308
scalar tree_4_3_u08_r20_network.node[7].content_store 	decision_yes[7] 	0
scalar tree_4_3_u08_r20_network.node[7].content_store 	decision_no[7] 	42298
scalar tree_4_3_u08_r20_network.node[7].content_store 	decision_ratio[7] 	0
scalar tree_4_3_u08_r20_network.node[8].core_layer 	interests[8] 	42198
scalar tree_4_3_u08_r20_network.node[8].core_layer 	data[8] 	42196
scalar tree_4_3_u08_r20_network.node[8].content_store 	p_hit[8] 	0
scalar tree_4_3_u08_r20_network.node[8].content_store 	hits[8] 	0
scalar tree_4_3_u08_r20_network.node[8].content_store 	misses[8] 	42198
scalar tree_4_3_u08_r20_network.node[8].content_store 	decision_yes[8] 	0
scalar tree_4_3_u08_r20_network.node[8].content_store 	decision_no[8] 	42195
scalar tree_4_3_u08_r20_network.node[8].content_store 	decision_ratio[8] 	0
scalar tree_4_3_u08_r20_network.node[9].core_layer 	interests[9] 	17445
scalar tree_4_3_u08_r20_network.node[9].core_layer 	data[9] 	17442
scalar tree_4_3_u08_r20_network.node[9].content_store 	p_hit[9] 	0
scalar tree_4_3_u08_r20_network.node[9].content_store 	hits[9] 	0
scalar tree_4_3_u08_r20_network.node[9].content_store 	misses[9] 	17445
scalar tree_4_3_u08_r20_network.node[9].content_store 	decision_yes[9] 	0
scalar tree_4_3_u08_r20_network.node[9].content_store 	decision_no[9] 	17440
scalar tree_4_3_u08_r20_network.node[9].content_store 	decision_ratio[9] 	0
scalar tree_4_3_u08_r20_network.node[10].core_layer 	interests[10] 	43430
scalar tree_4_3_u08_r20_network.node[10].core_layer 	data[10] 	43429
scalar tree_4_3_u08_r20_network.node[10].content_store 	p_hit[10] 	0
scalar tree_4_3_u08_r20_network.node[10].content_store 	hits[10] 	0
scalar tree_4_3_u08_r20_network.node[10].content_store 	misses[10] 	43430
scalar tree_4_3_u08_r20_network.node[10].content_store 	decision_yes[10] 	0
scalar tree_4_3_u08_r20_network.node[10].content_store 	decision_no[10] 	43420
scalar tree_4_3_u08_r20_network.node[10].content_store 	decision_ratio[10] 	0
scalar tree_4_3_u08_r20_network.node[11].core_layer 	interests[11] 	23869
scalar tree_4_3_u08_r20_network.node[11].core_layer 	data[11] 	23868
scalar tree_4_3_u08_r20_network.node[11].content_store 	p_hit[11] 	0
scalar tree_4_3_u08_r20_network.node[11].content_store 	hits[11] 	0
scalar tree_4_3_u08_r20_network.node[11].content_store 	misses[11] 	23869
scalar tree_4_3_u08_r20_network.node[11].content_store 	decision_yes[11] 	0
scalar tree_4_3_u08_r20_network.node[11].content_store 	decision_no[11] 	23868
scalar tree_4_3_u08_r20_network.node[11].content_store 	decision_ratio[11] 	0
scalar tree_4_3_u08_r20_network.node[12].core_layer 	interests[12] 	34077
scalar tree_4_3_u08_r20_network.node[12].core_layer 	data[12] 	34072
scalar tree_4_3_u08_r20_network.node[12].content_store 	p_hit[12] 	0
scalar tree_4_3_u08_r20_network.node[12].content_store 	hits[12] 	0
scalar tree_4_3_u08_r20_network.node[12].content_store 	misses[12] 	34077
scalar tree_4_3_u08_r20_network.node[12].content_store 	decision_yes[12] 	0
scalar tree_4_3_u08_r20_network.node[12].content_store 	decision_no[12] 	34071
scalar tree_4_3_u08_r20_network.node[12].content_store 	decision_ratio[12] 	0
scalar tree_4_3_u08_r20_network.node[13].core_layer 	interests[13] 	13629
scalar tree_4_3_u08_r20_network.node[13].core_layer 	data[13] 	9988
scalar tree_4_3_u08_r20_network.node[13].content_store 	p_hit[13] 	0.26700418225842
scalar tree_4_3_u08_r20_network.node[13].content_store 	hits[13] 	3639
scalar tree_4_3_u08_r20_network.node[13].content_store 	misses[13] 	9990
scalar tree_4_3_u08_r20_network.node[13].content_store 	decision_yes[13] 	9988
scalar tree_4_3_u08_r20_network.node[13].content_store 	decision_no[13] 	0
scalar tree_4_3_u08_r20_network.node[13].content_store 	decision_ratio[13] 	1
scalar tree_4_3_u08_r20_network.node[14].core_layer 	interests[14] 	14998
scalar tree_4_3_u08_r20_network.node[14].core_layer 	data[14] 	9982
scalar tree_4_3_u08_r20_network.node[14].content_store 	p_hit[14] 	0.33444459261235
scalar tree_4_3_u08_r20_network.node[14].content_store 	hits[14] 	5016
scalar tree_4_3_u08_r20_network.node[14].content_store 	misses[14] 	9982
scalar tree_4_3_u08_r20_network.node[14].content_store 	decision_yes[14] 	9982
scalar tree_4_3_u08_r20_network.node[14].content_store 	decision_no[14] 	0
scalar tree_4_3_u08_r20_network.node[14].content_store 	decision_ratio[14] 	1
scalar tree_4_3_u08_r20_network.node[15].core_layer 	interests[15] 	14574
scalar tree_4_3_u08_r20_network.node[15].core_layer 	data[15] 	10124
scalar tree_4_3_u08_r20_network.node[15].content_store 	p_hit[15] 	0.30526965829559
scalar tree_4_3_u08_r20_network.node[15].content_store 	hits[15] 	4449
scalar tree_4_3_u08_r20_network.node[15].content_store 	misses[15] 	10125
scalar tree_4_3_u08_r20_network.node[15].content_store 	decision_yes[15] 	10124
scalar tree_4_3_u08_r20_network.node[15].content_store 	decision_no[15] 	0
scalar tree_4_3_u08_r20_network.node[15].content_store 	decision_ratio[15] 	1
scalar tree_4_3_u08_r20_network.node[16].core_layer 	interests[16] 	15136
scalar tree_4_3_u08_r20_network.node[16].core_layer 	data[16] 	10028
scalar tree_4_3_u08_r20_network.node[16].content_store 	p_hit[16] 	0.33747357293869
scalar tree_4_3_u08_r20_network.node[16].content_store 	hits[16] 	5108
scalar tree_4_3_u08_r20_network.node[16].content_store 	misses[16] 	10028
scalar tree_4_3_u08_r20_network.node[16].content_store 	decision_yes[16] 	10028
scalar tree_4_3_u08_r20_network.node[16].content_store 	decision_no[16] 	0
scalar tree_4_3_u08_r20_network.node[16].content_store 	decision_ratio[16] 	1
scalar tree_4_3_u08_r20_network.node[17].core_layer 	interests[17] 	14600
scalar tree_4_3_u08_r20_network.node[17].core_layer 	data[17] 	10240
scalar tree_4_3_u08_r20_network.node[17].content_store 	p_hit[17] 	0.2986301369863
scalar tree_4_3_u08_r20_network.node[17].content_store 	hits[17] 	4360
scalar tree_4_3_u08_r20_network.node[17].content_store 	misses[17] 	10240
scalar tree_4_3_u08_r20_network.node[17].content_store 	decision_yes[17] 	10240
scalar tree_4_3_u08_r20_network.node[17].content_store 	decision_no[17] 	0
scalar tree_4_3_u08_r20_network.node[17].content_store 	decision_ratio[17] 	1
scalar tree_4_3_u08_r20_network.node[18].core_layer 	interests[18] 	15160
scalar tree_4_3_u08_r20_network.node[18].core_layer 	data[18] 	9986
scalar tree_4_3_u08_r20_network.node[18].content_store 	p_hit[18] 	0.34116094986807
scalar tree_4_3_u08_r20_network.node[18].content_store 	hits[18] 	5172
scalar tree_4_3_u08_r20_network.node[18].content_store 	misses[18] 	9988
scalar tree_4_3_u08_r20_network.node[18].content_store 	decision_yes[18] 	9986
scalar tree_4_3_u08_r20_network.node[18].content_store 	decision_no[18] 	0
scalar tree_4_3_u08_r20_network.node[18].content_store 	decision_ratio[18] 	1
scalar tree_4_3_u08_r20_network.node[19].core_layer 	interests[19] 	14543
scalar tree_4_3_u08_r20_network.node[19].core_layer 	data[19] 	9867
scalar tree_4_3_u08_r20_network.node[19].content_store 	p_hit[19] 	0.32159801966582
scalar tree_4_3_u08_r20_network.node[19].content_store 	hits[19] 	4677
scalar tree_4_3_u08_r20_network.node[19].content_store 	misses[19] 	9866
scalar tree_4_3_u08_r20_network.node[19].content_store 	decision_yes[19] 	9867
scalar tree_4_3_u08_r20_network.node[19].content_store 	decision_no[19] 	0
scalar tree_4_3_u08_r20_network.node[19].content_store 	decision_ratio[19] 	1
scalar tree_4_3_u08_r20_network.node[20].core_layer 	interests[20] 	15280
scalar tree_4_3_u08_r20_network.node[20].core_layer 	data[20] 	9976
scalar tree_4_3_u08_r20_network.node[20].content_store 	p_hit[20] 	0.34712041884817
scalar tree_4_3_u08_r20_network.node[20].content_store 	hits[20] 	5304
scalar tree_4_3_u08_r20_network.node[20].content_store 	misses[20] 	9976
scalar tree_4_3_u08_r20_network.node[20].content_store 	decision_yes[20] 	9976
scalar tree_4_3_u08_r20_network.node[20].content_store 	decision_no[20] 	0
scalar tree_4_3_u08_r20_network.node[20].content_store 	decision_ratio[20] 	1
scalar tree_4_3_u08_r20_network.node[21].core_layer 	interests[21] 	13659
scalar tree_4_3_u08_r20_network.node[21].core_layer 	data[21] 	10054
scalar tree_4_3_u08_r20_network.node[21].content_store 	p_hit[21] 	0.26385533347976
scalar tree_4_3_u08_r20_network.node[21].content_store 	hits[21] 	3604
scalar tree_4_3_u08_r20_network.node[21].content_store 	misses[21] 	10055
scalar tree_4_3_u08_r20_network.node[21].content_store 	decision_yes[21] 	10054
scalar tree_4_3_u08_r20_network.node[21].content_store 	decision_no[21] 	0
scalar tree_4_3_u08_r20_network.node[21].content_store 	decision_ratio[21] 	1
scalar tree_4_3_u08_r20_network.node[22].core_layer 	interests[22] 	14257
scalar tree_4_3_u08_r20_network.node[22].core_layer 	data[22] 	10240
scalar tree_4_3_u08_r20_network.node[22].content_store 	p_hit[22] 	0.28168618924037
scalar tree_4_3_u08_r20_network.node[22].content_store 	hits[22] 	4016
scalar tree_4_3_u08_r20_network.node[22].content_store 	misses[22] 	10241
scalar tree_4_3_u08_r20_network.node[22].content_store 	decision_yes[22] 	10240
scalar tree_4_3_u08_r20_network.node[22].content_store 	decision_no[22] 	0
scalar tree_4_3_u08_r20_network.node[22].content_store 	decision_ratio[22] 	1
scalar tree_4_3_u08_r20_network.node[23].core_layer 	interests[23] 	15325
scalar tree_4_3_u08_r20_network.node[23].core_layer 	data[23] 	9992
scalar tree_4_3_u08_r20_network.node[23].content_store 	p_hit[23] 	0.34799347471452
scalar tree_4_3_u08_r20_network.node[23].content_store 	hits[23] 	5333
scalar tree_4_3_u08_r20_network.node[23].content_store 	misses[23] 	9992
scalar tree_4_3_u08_r20_network.node[23].content_store 	decision_yes[23] 	9992
scalar tree_4_3_u08_r20_network.node[23].content_store 	decision_no[23] 	0
scalar tree_4_3_u08_r20_network.node[23].content_store 	decision_ratio[23] 	1
scalar tree_4_3_u08_r20_network.node[24].core_layer 	interests[24] 	15213
scalar tree_4_3_u08_r20_network.node[24].core_layer 	data[24] 	9907
scalar tree_4_3_u08_r20_network.node[24].content_store 	p_hit[24] 	0.34878064812989
scalar tree_4_3_u08_r20_network.node[24].content_store 	hits[24] 	5306
scalar tree_4_3_u08_r20_network.node[24].content_store 	misses[24] 	9907
scalar tree_4_3_u08_r20_network.node[24].content_store 	decision_yes[24] 	9907
scalar tree_4_3_u08_r20_network.node[24].content_store 	decision_no[24] 	0
scalar tree_4_3_u08_r20_network.node[24].content_store 	decision_ratio[24] 	1
scalar tree_4_3_u08_r20_network.node[25].core_layer 	interests[25] 	13783
scalar tree_4_3_u08_r20_network.node[25].core_layer 	data[25] 	9973
scalar tree_4_3_u08_r20_network.node[25].content_store 	p_hit[25] 	0.27642748313139
scalar tree_4_3_u08_r20_network.node[25].content_store 	hits[25] 	3810
scalar tree_4_3_u08_r20_network.node[25].content_store 	misses[25] 	9973
scalar tree_4_3_u08_r20_network.node[25].content_store 	decision_yes[25] 	9973
scalar tree_4_3_u08_r20_network.node[25].content_store 	decision_no[25] 	0
scalar tree_4_3_u08_r20_network.node[25].content_store 	decision_ratio[25] 	1
scalar tree_4_3_u08_r20_network.node[26].core_layer 	interests[26] 	14275
scalar tree_4_3_u08_r20_network.node[26].core_layer 	data[26] 	10288
scalar tree_4_3_u08_r20_network.node[26].content_store 	p_hit[26] 	0.27908931698774
scalar tree_4_3_u08_r20_network.node[26].content_store 	hits[26] 	3984
scalar tree_4_3_u08_r20_network.node[26].content_store 	misses[26] 	10291
scalar tree_4_3_u08_r20_network.node[26].content_store 	decision_yes[26] 	10288
scalar tree_4_3_u08_r20_network.node[26].content_store 	decision_no[26] 	0
scalar tree_4_3_u08_r20_network.node[26].content_store 	decision_ratio[26] 	1
scalar tree_4_3_u08_r20_network.node[27].core_layer 	interests[27] 	15526
scalar tree_4_3_u08_r20_network.node[27].core_layer 	data[27] 	10127
scalar tree_4_3_u08_r20_network.node[27].content_store 	p_hit[27] 	0.34780368414273
scalar tree_4_3_u08_r20_network.node[27].content_store 	hits[27] 	5400
scalar tree_4_3_u08_r20_network.node[27].content_store 	misses[27] 	10126
scalar tree_4_3_u08_r20_network.node[27].content_store 	decision_yes[27] 	10127
scalar tree_4_3_u08_r20_network.node[27].content_store 	decision_no[27] 	0
scalar tree_4_3_u08_r20_network.node[27].content_store 	decision_ratio[27] 	1
scalar tree_4_3_u08_r20_network.node[28].core_layer 	interests[28] 	15373
scalar tree_4_3_u08_r20_network.node[28].core_layer 	data[28] 	10011
scalar tree_4_3_u08_r20_network.node[28].content_store 	p_hit[28] 	0.34879333897092
scalar tree_4_3_u08_r20_network.node[28].content_store 	hits[28] 	5362
scalar tree_4_3_u08_r20_network.node[28].content_store 	misses[28] 	10011
scalar tree_4_3_u08_r20_network.node[28].content_store 	decision_yes[28] 	10011
scalar tree_4_3_u08_r20_network.node[28].content_store 	decision_no[28] 	0
scalar tree_4_3_u08_r20_network.node[28].content_store 	decision_ratio[28] 	1
scalar tree_4_3_u08_r20_network.node[29].core_layer 	interests[29] 	15366
scalar tree_4_3_u08_r20_network.node[29].core_layer 	data[29] 	10026
scalar tree_4_3_u08_r20_network.node[29].content_store 	p_hit[29] 	0.34752049980476
scalar tree_4_3_u08_r20_network.node[29].content_store 	hits[29] 	5340
scalar tree_4_3_u08_r20_network.node[29].content_store 	misses[29] 	10026
scalar tree_4_3_u08_r20_network.node[29].content_store 	decision_yes[29] 	10026
scalar tree_4_3_u08_r20_network.node[29].content_store 	decision_no[29] 	0
scalar tree_4_3_u08_r20_network.node[29].content_store 	decision_ratio[29] 	1
scalar tree_4_3_u08_r20_network.node[30].core_layer 	interests[30] 	14312
scalar tree_4_3_u08_r20_network.node[30].core_layer 	data[30] 	9956
scalar tree_4_3_u08_r20_network.node[30].content_store 	p_hit[30] 	0.30429010620458
scalar tree_4_3_u08_r20_network.node[30].content_store 	hits[30] 	4355
scalar tree_4_3_u08_r20_network.node[30].content_store 	misses[30] 	9957
scalar tree_4_3_u08_r20_network.node[30].content_store 	decision_yes[30] 	9956
scalar tree_4_3_u08_r20_network.node[30].content_store 	decision_no[30] 	0
scalar tree_4_3_u08_r20_network.node[30].content_store 	decision_ratio[30] 	1
scalar tree_4_3_u08_r20_network.node[31].core_layer 	interests[31] 	14462
scalar tree_4_3_u08_r20_network.node[31].core_layer 	data[31] 	10015
scalar tree_4_3_u08_r20_network.node[31].content_store 	p_hit[31] 	0.30742635873323
scalar tree_4_3_u08_r20_network.node[31].content_store 	hits[31] 	4446
scalar tree_4_3_u08_r20_network.node[31].content_store 	misses[31] 	10016
scalar tree_4_3_u08_r20_network.node[31].content_store 	decision_yes[31] 	10015
scalar tree_4_3_u08_r20_network.node[31].content_store 	decision_no[31] 	0
scalar tree_4_3_u08_r20_network.node[31].content_store 	decision_ratio[31] 	1
scalar tree_4_3_u08_r20_network.node[32].core_layer 	interests[32] 	15380
scalar tree_4_3_u08_r20_network.node[32].core_layer 	data[32] 	10021
scalar tree_4_3_u08_r20_network.node[32].content_store 	p_hit[32] 	0.34837451235371
scalar tree_4_3_u08_r20_network.node[32].content_store 	hits[32] 	5358
scalar tree_4_3_u08_r20_network.node[32].content_store 	misses[32] 	10022
scalar tree_4_3_u08_r20_network.node[32].content_store 	decision_yes[32] 	10021
scalar tree_4_3_u08_r20_network.node[32].content_store 	decision_no[32] 	0
scalar tree_4_3_u08_r20_network.node[32].content_store 	decision_ratio[32] 	1
scalar tree_4_3_u08_r20_network.node[33].core_layer 	interests[33] 	15744
scalar tree_4_3_u08_r20_network.node[33].core_layer 	data[33] 	10169
scalar tree_4_3_u08_r20_network.node[33].content_store 	p_hit[33] 	0.3541031504065
scalar tree_4_3_u08_r20_network.node[33].content_store 	hits[33] 	5575
scalar tree_4_3_u08_r20_network.node[33].content_store 	misses[33] 	10169
scalar tree_4_3_u08_r20_network.node[33].content_store 	decision_yes[33] 	10169
scalar tree_4_3_u08_r20_network.node[33].content_store 	decision_no[33] 	0
scalar tree_4_3_u08_r20_network.node[33].content_store 	decision_ratio[33] 	1
scalar tree_4_3_u08_r20_network.node[34].core_layer 	interests[34] 	15403
scalar tree_4_3_u08_r20_network.node[34].core_layer 	data[34] 	10159
scalar tree_4_3_u08_r20_network.node[34].content_store 	p_hit[34] 	0.3403233136402
scalar tree_4_3_u08_r20_network.node[34].content_store 	hits[34] 	5242
scalar tree_4_3_u08_r20_network.node[34].content_store 	misses[34] 	10161
scalar tree_4_3_u08_r20_network.node[34].content_store 	decision_yes[34] 	10159
scalar tree_4_3_u08_r20_network.node[34].content_store 	decision_no[34] 	0
scalar tree_4_3_u08_r20_network.node[34].content_store 	decision_ratio[34] 	1
scalar tree_4_3_u08_r20_network.node[35].core_layer 	interests[35] 	14367
scalar tree_4_3_u08_r20_network.node[35].core_layer 	data[35] 	10189
scalar tree_4_3_u08_r20_network.node[35].content_store 	p_hit[35] 	0.29045729797452
scalar tree_4_3_u08_r20_network.node[35].content_store 	hits[35] 	4173
scalar tree_4_3_u08_r20_network.node[35].content_store 	misses[35] 	10194
scalar tree_4_3_u08_r20_network.node[35].content_store 	decision_yes[35] 	10189
scalar tree_4_3_u08_r20_network.node[35].content_store 	decision_no[35] 	0
scalar tree_4_3_u08_r20_network.node[35].content_store 	decision_ratio[35] 	1
scalar tree_4_3_u08_r20_network.node[36].core_layer 	interests[36] 	15337
scalar tree_4_3_u08_r20_network.node[36].core_layer 	data[36] 	9940
scalar tree_4_3_u08_r20_network.node[36].content_store 	p_hit[36] 	0.3518941122775
scalar tree_4_3_u08_r20_network.node[36].content_store 	hits[36] 	5397
scalar tree_4_3_u08_r20_network.node[36].content_store 	misses[36] 	9940
scalar tree_4_3_u08_r20_network.node[36].content_store 	decision_yes[36] 	9940
scalar tree_4_3_u08_r20_network.node[36].content_store 	decision_no[36] 	0
scalar tree_4_3_u08_r20_network.node[36].content_store 	decision_ratio[36] 	1
scalar tree_4_3_u08_r20_network.node[37].core_layer 	interests[37] 	13793
scalar tree_4_3_u08_r20_network.node[37].core_layer 	data[37] 	10172
scalar tree_4_3_u08_r20_network.node[37].content_store 	p_hit[37] 	0.26237946784601
scalar tree_4_3_u08_r20_network.node[37].content_store 	hits[37] 	3619
scalar tree_4_3_u08_r20_network.node[37].content_store 	misses[37] 	10174
scalar tree_4_3_u08_r20_network.node[37].content_store 	decision_yes[37] 	10172
scalar tree_4_3_u08_r20_network.node[37].content_store 	decision_no[37] 	0
scalar tree_4_3_u08_r20_network.node[37].content_store 	decision_ratio[37] 	1
scalar tree_4_3_u08_r20_network.node[38].core_layer 	interests[38] 	13848
scalar tree_4_3_u08_r20_network.node[38].core_layer 	data[38] 	10130
scalar tree_4_3_u08_r20_network.node[38].content_store 	p_hit[38] 	0.26848642403235
scalar tree_4_3_u08_r20_network.node[38].content_store 	hits[38] 	3718
scalar tree_4_3_u08_r20_network.node[38].content_store 	misses[38] 	10130
scalar tree_4_3_u08_r20_network.node[38].content_store 	decision_yes[38] 	10130
scalar tree_4_3_u08_r20_network.node[38].content_store 	decision_no[38] 	0
scalar tree_4_3_u08_r20_network.node[38].content_store 	decision_ratio[38] 	1
scalar tree_4_3_u08_r20_network.node[39].core_layer 	interests[39] 	13563
scalar tree_4_3_u08_r20_network.node[39].core_layer 	data[39] 	9997
scalar tree_4_3_u08_r20_network.node[39].content_store 	p_hit[39] 	0.26284745262847
scalar tree_4_3_u08_r20_network.node[39].content_store 	hits[39] 	3565
scalar tree_4_3_u08_r20_network.node[39].content_store 	misses[39] 	9998
scalar tree_4_3_u08_r20_network.node[39].content_store 	decision_yes[39] 	9997
scalar tree_4_3_u08_r20_network.node[39].content_store 	decision_no[39] 	0
scalar tree_4_3_u08_r20_network.node[39].content_store 	decision_ratio[39] 	1
scalar tree_4_3_u08_r20_network.client[13] 	hdistance[13] 	3.1149271234712
scalar tree_4_3_u08_r20_network.client[13] 	downloads[13] 	11938
scalar tree_4_3_u08_r20_network.client[13] 	avg_time[13] 	0.004972255535
scalar tree_4_3_u08_r20_network.client[14] 	hdistance[14] 	3.0622581187952
scalar tree_4_3_u08_r20_network.client[14] 	downloads[14] 	11886
scalar tree_4_3_u08_r20_network.client[14] 	avg_time[14] 	0.004906234627
scalar tree_4_3_u08_r20_network.client[15] 	hdistance[15] 	3.0730654267685
scalar tree_4_3_u08_r20_network.client[15] 	downloads[15] 	12044
scalar tree_4_3_u08_r20_network.client[15] 	avg_time[15] 	0.004877932999
scalar tree_4_3_u08_r20_network.client[16] 	hdistance[16] 	3.0465812676759
scalar tree_4_3_u08_r20_network.client[16] 	downloads[16] 	12022
scalar tree_4_3_u08_r20_network.client[16] 	avg_time[16] 	0.004883710197
scalar tree_4_3_u08_r20_network.client[17] 	hdistance[17] 	3.1041446136308
scalar tree_4_3_u08_r20_network.client[17] 	downloads[17] 	12281
scalar tree_4_3_u08_r20_network.client[17] 	avg_time[17] 	0.005010663774
scalar tree_4_3_u08_r20_network.client[18] 	hdistance[18] 	3.0446941323346
scalar tree_4_3_u08_r20_network.client[18] 	downloads[18] 	12015
scalar tree_4_3_u08_r20_network.client[18] 	avg_time[18] 	0.004885084644
scalar tree_4_3_u08_r20_network.client[19] 	hdistance[19] 	3.0314044049912
scalar tree_4_3_u08_r20_network.client[19] 	downloads[19] 	11941
scalar tree_4_3_u08_r20_network.client[19] 	avg_time[19] 	0.0048014374
scalar tree_4_3_u08_r20_network.client[20] 	hdistance[20] 	3.0268562401264
scalar tree_4_3_u08_r20_network.client[20] 	downloads[20] 	12027
scalar tree_4_3_u08_r20_network.client[20] 	avg_time[20] 	0.00484966946
scalar tree_4_3_u08_r20_network.client[21] 	hdistance[21] 	3.1420416386837
scalar tree_4_3_u08_r20_network.client[21] 	downloads[21] 	11912
scalar tree_4_3_u08_r20_network.client[21] 	avg_time[21] 	0.005017495475
scalar tree_4_3_u08_r20_network.client[22] 	hdistance[22] 	3.1874689209349
scalar tree_4_3_u08_r20_network.client[22] 	downloads[22] 	12066
scalar tree_4_3_u08_r20_network.client[22] 	avg_time[22] 	0.005149984382
scalar tree_4_3_u08_r20_network.client[23] 	hdistance[23] 	3.0427135678392
scalar tree_4_3_u08_r20_network.client[23] 	downloads[23] 	11940
scalar tree_4_3_u08_r20_network.client[23] 	avg_time[23] 	0.004887915663
scalar tree_4_3_u08_r20_network.client[24] 	hdistance[24] 	3.0511292082948
scalar tree_4_3_u08_r20_network.client[24] 	downloads[24] 	11911
scalar tree_4_3_u08_r20_network.client[24] 	avg_time[24] 	0.004918272631
scalar tree_4_3_u08_r20_network.client[25] 	hdistance[25] 	3.1092845760295
scalar tree_4_3_u08_r20_network.client[25] 	downloads[25] 	11923
scalar tree_4_3_u08_r20_network.client[25] 	avg_time[25] 	0.004975947613
scalar tree_4_3_u08_r20_network.client[26] 	hdistance[26] 	3.1253359394087
scalar tree_4_3_u08_r20_network.client[26] 	downloads[26] 	12279
scalar tree_4_3_u08_r20_network.client[26] 	avg_time[26] 	0.004999229683
scalar tree_4_3_u08_r20_network.client[27] 	hdistance[27] 	3.0649329136989
scalar tree_4_3_u08_r20_network.client[27] 	downloads[27] 	12074
scalar tree_4_3_u08_r20_network.client[27] 	avg_time[27] 	0.0049087265
scalar tree_4_3_u08_r20_network.client[28] 	hdistance[28] 	3.080827539995
scalar tree_4_3_u08_r20_network.client[28] 	downloads[28] 	11939
scalar tree_4_3_u08_r20_network.client[28] 	avg_time[28] 	0.00497147847
scalar tree_4_3_u08_r20_network.client[29] 	hdistance[29] 	3.0445700981207
scalar tree_4_3_u08_r20_network.client[29] 	downloads[29] 	12026
scalar tree_4_3_u08_r20_network.client[29] 	avg_time[29] 	0.004869472284
scalar tree_4_3_u08_r20_network.client[30] 	hdistance[30] 	3.1253678634491
scalar tree_4_3_u08_r20_network.client[30] 	downloads[30] 	11893
scalar tree_4_3_u08_r20_network.client[30] 	avg_time[30] 	0.005025978717
scalar tree_4_3_u08_r20_network.client[31] 	hdistance[31] 	3.1284312094493
scalar tree_4_3_u08_r20_network.client[31] 	downloads[31] 	12022
scalar tree_4_3_u08_r20_network.client[31] 	avg_time[31] 	0.005070274539
scalar tree_4_3_u08_r20_network.client[32] 	hdistance[32] 	3.0937839872835
scalar tree_4_3_u08_r20_network.client[32] 	downloads[32] 	11953
scalar tree_4_3_u08_r20_network.client[32] 	avg_time[32] 	0.005000726852
scalar tree_4_3_u08_r20_network.client[33] 	hdistance[33] 	3.0566285855182
scalar tree_4_3_u08_r20_network.client[33] 	downloads[33] 	12167
scalar tree_4_3_u08_r20_network.client[33] 	avg_time[33] 	0.004905567816
scalar tree_4_3_u08_r20_network.client[34] 	hdistance[34] 	3.1163986071962
scalar tree_4_3_u08_r20_network.client[34] 	downloads[34] 	12062
scalar tree_4_3_u08_r20_network.client[34] 	avg_time[34] 	0.005047400176
scalar tree_4_3_u08_r20_network.client[35] 	hdistance[35] 	3.1588692345842
scalar tree_4_3_u08_r20_network.client[35] 	downloads[35] 	12098
scalar tree_4_3_u08_r20_network.client[35] 	avg_time[35] 	0.005096230546
scalar tree_4_3_u08_r20_network.client[36] 	hdistance[36] 	3.057920917292
scalar tree_4_3_u08_r20_network.client[36] 	downloads[36] 	11861
scalar tree_4_3_u08_r20_network.client[36] 	avg_time[36] 	0.004899570335
scalar tree_4_3_u08_r20_network.client[37] 	hdistance[37] 	3.1401142100472
scalar tree_4_3_u08_r20_network.client[37] 	downloads[37] 	12083
scalar tree_4_3_u08_r20_network.client[37] 	avg_time[37] 	0.004984978599
scalar tree_4_3_u08_r20_network.client[38] 	hdistance[38] 	3.1311109272893
scalar tree_4_3_u08_r20_network.client[38] 	downloads[38] 	12089
scalar tree_4_3_u08_r20_network.client[38] 	avg_time[38] 	0.004974396257
scalar tree_4_3_u08_r20_network.client[39] 	hdistance[39] 	3.1422308405699
scalar tree_4_3_u08_r20_network.client[39] 	downloads[39] 	11861
scalar tree_4_3_u08_r20_network.client[39] 	avg_time[39] 	0.004987037217
