version 2
run General-154-20160819-09:24:26-13837
attr a 0.9
attr cd fix0.1
attr configname General
attr cr lru
attr datetime 20160819-09:24:26
attr experiment General
attr fsize 1
attr inifile hw5115/scenario_A/NRR-FIX0.1.ini
attr iterationvars "$name=tree_4_3, $un=07, $rep=15, $cd=fix0.1, $cr=lru, $fsize=1, $a=0.9, $sl=nrr, $ttl=1000, $variance=0.05"
attr iterationvars2 "$name=tree_4_3, $un=07, $rep=15, $cd=fix0.1, $cr=lru, $fsize=1, $a=0.9, $sl=nrr, $ttl=1000, $variance=0.05, $repetition=0"
attr measurement "$name=tree_4_3, $un=07, $rep=15, $cd=fix0.1, $cr=lru, $fsize=1, $a=0.9, $sl=nrr, $ttl=1000, $variance=0.05"
attr name tree_4_3
attr network networks.${name}_u${un}_r${rep}_network
attr processid 13837
attr rep 15
attr repetition 0
attr replication #0
attr resultdir results
attr runnumber 154
attr seedset 15
attr sl nrr
attr ttl 1000
attr un 07
attr variance 0.05

scalar . 	a 	0.9
scalar . 	fsize 	1
scalar . 	rep 	15
scalar . 	ttl 	1000
scalar . 	un 	07
scalar . 	variance 	0.05
scalar tree_4_3_u07_r15_network.content_distribution 	repo-0 	0
scalar tree_4_3_u07_r15_network.content_distribution 	client-0 	13
scalar tree_4_3_u07_r15_network.content_distribution 	client-1 	14
scalar tree_4_3_u07_r15_network.content_distribution 	client-2 	15
scalar tree_4_3_u07_r15_network.content_distribution 	client-3 	16
scalar tree_4_3_u07_r15_network.content_distribution 	client-4 	17
scalar tree_4_3_u07_r15_network.content_distribution 	client-5 	18
scalar tree_4_3_u07_r15_network.content_distribution 	client-6 	19
scalar tree_4_3_u07_r15_network.content_distribution 	client-7 	20
scalar tree_4_3_u07_r15_network.content_distribution 	client-8 	21
scalar tree_4_3_u07_r15_network.content_distribution 	client-9 	22
scalar tree_4_3_u07_r15_network.content_distribution 	client-10 	23
scalar tree_4_3_u07_r15_network.content_distribution 	client-11 	24
scalar tree_4_3_u07_r15_network.content_distribution 	client-12 	25
scalar tree_4_3_u07_r15_network.content_distribution 	client-13 	26
scalar tree_4_3_u07_r15_network.content_distribution 	client-14 	27
scalar tree_4_3_u07_r15_network.content_distribution 	client-15 	28
scalar tree_4_3_u07_r15_network.content_distribution 	client-16 	29
scalar tree_4_3_u07_r15_network.content_distribution 	client-17 	30
scalar tree_4_3_u07_r15_network.content_distribution 	client-18 	31
scalar tree_4_3_u07_r15_network.content_distribution 	client-19 	32
scalar tree_4_3_u07_r15_network.content_distribution 	client-20 	33
scalar tree_4_3_u07_r15_network.content_distribution 	client-21 	34
scalar tree_4_3_u07_r15_network.content_distribution 	client-22 	35
scalar tree_4_3_u07_r15_network.content_distribution 	client-23 	36
scalar tree_4_3_u07_r15_network.content_distribution 	client-24 	37
scalar tree_4_3_u07_r15_network.content_distribution 	client-25 	38
scalar tree_4_3_u07_r15_network.content_distribution 	client-26 	39
scalar tree_4_3_u07_r15_network.content_distribution 	repo-0_card 	100000
scalar tree_4_3_u07_r15_network.content_distribution 	repo-0_price 	0
scalar tree_4_3_u07_r15_network.statistics 	stabilization_time 	649.9
scalar tree_4_3_u07_r15_network.statistics 	p_hit 	0.22495800962647
scalar tree_4_3_u07_r15_network.statistics 	interests 	26374.525
scalar tree_4_3_u07_r15_network.statistics 	data 	18267.85
scalar tree_4_3_u07_r15_network.statistics 	hdistance 	2.8196312599781
scalar tree_4_3_u07_r15_network.statistics 	avg_time 	0.004506697632
scalar tree_4_3_u07_r15_network.statistics 	downloads 	324269
scalar tree_4_3_u07_r15_network.statistics 	total_cost 	0
scalar tree_4_3_u07_r15_network.statistics 	total_replicas 	100000
scalar tree_4_3_u07_r15_network.statistics 	inner_hit 	0.43375715840861
scalar tree_4_3_u07_r15_network.node[0].core_layer 	interests[0] 	184576
scalar tree_4_3_u07_r15_network.node[0].core_layer 	repo_load[0] 	183615
scalar tree_4_3_u07_r15_network.node[0].core_layer 	data[0] 	0
scalar tree_4_3_u07_r15_network.node[0].core_layer 	repo_int[0] 	183615
scalar tree_4_3_u07_r15_network.node[0].content_store 	p_hit[0] 	0.0052065273925104
scalar tree_4_3_u07_r15_network.node[0].content_store 	hits[0] 	961
scalar tree_4_3_u07_r15_network.node[0].content_store 	misses[0] 	183615
scalar tree_4_3_u07_r15_network.node[0].content_store 	decision_yes[0] 	18452
scalar tree_4_3_u07_r15_network.node[0].content_store 	decision_no[0] 	165163
scalar tree_4_3_u07_r15_network.node[0].content_store 	decision_ratio[0] 	0.10049287912208
scalar tree_4_3_u07_r15_network.node[1].core_layer 	interests[1] 	63973
scalar tree_4_3_u07_r15_network.node[1].core_layer 	data[1] 	63536
scalar tree_4_3_u07_r15_network.node[1].content_store 	p_hit[1] 	0.0068466384255858
scalar tree_4_3_u07_r15_network.node[1].content_store 	hits[1] 	438
scalar tree_4_3_u07_r15_network.node[1].content_store 	misses[1] 	63535
scalar tree_4_3_u07_r15_network.node[1].content_store 	decision_yes[1] 	6241
scalar tree_4_3_u07_r15_network.node[1].content_store 	decision_no[1] 	57295
scalar tree_4_3_u07_r15_network.node[1].content_store 	decision_ratio[1] 	0.098227776378746
scalar tree_4_3_u07_r15_network.node[2].core_layer 	interests[2] 	105246
scalar tree_4_3_u07_r15_network.node[2].core_layer 	data[2] 	103748
scalar tree_4_3_u07_r15_network.node[2].content_store 	p_hit[2] 	0.014185812287403
scalar tree_4_3_u07_r15_network.node[2].content_store 	hits[2] 	1493
scalar tree_4_3_u07_r15_network.node[2].content_store 	misses[2] 	103753
scalar tree_4_3_u07_r15_network.node[2].content_store 	decision_yes[2] 	10296
scalar tree_4_3_u07_r15_network.node[2].content_store 	decision_no[2] 	93451
scalar tree_4_3_u07_r15_network.node[2].content_store 	decision_ratio[2] 	0.0992414238484
scalar tree_4_3_u07_r15_network.node[3].core_layer 	interests[3] 	48382
scalar tree_4_3_u07_r15_network.node[3].core_layer 	data[3] 	46095
scalar tree_4_3_u07_r15_network.node[3].content_store 	p_hit[3] 	0.047269645736018
scalar tree_4_3_u07_r15_network.node[3].content_store 	hits[3] 	2287
scalar tree_4_3_u07_r15_network.node[3].content_store 	misses[3] 	46095
scalar tree_4_3_u07_r15_network.node[3].content_store 	decision_yes[3] 	4583
scalar tree_4_3_u07_r15_network.node[3].content_store 	decision_no[3] 	41511
scalar tree_4_3_u07_r15_network.node[3].content_store 	decision_ratio[3] 	0.099427257343689
scalar tree_4_3_u07_r15_network.node[4].core_layer 	interests[4] 	41403
scalar tree_4_3_u07_r15_network.node[4].core_layer 	data[4] 	40155
scalar tree_4_3_u07_r15_network.node[4].content_store 	p_hit[4] 	0.030142743279473
scalar tree_4_3_u07_r15_network.node[4].content_store 	hits[4] 	1248
scalar tree_4_3_u07_r15_network.node[4].content_store 	misses[4] 	40155
scalar tree_4_3_u07_r15_network.node[4].content_store 	decision_yes[4] 	3974
scalar tree_4_3_u07_r15_network.node[4].content_store 	decision_no[4] 	36181
scalar tree_4_3_u07_r15_network.node[4].content_store 	decision_ratio[4] 	0.098966504793924
scalar tree_4_3_u07_r15_network.node[5].core_layer 	interests[5] 	35252
scalar tree_4_3_u07_r15_network.node[5].core_layer 	data[5] 	31609
scalar tree_4_3_u07_r15_network.node[5].content_store 	p_hit[5] 	0.10331328718938
scalar tree_4_3_u07_r15_network.node[5].content_store 	hits[5] 	3642
scalar tree_4_3_u07_r15_network.node[5].content_store 	misses[5] 	31610
scalar tree_4_3_u07_r15_network.node[5].content_store 	decision_yes[5] 	3244
scalar tree_4_3_u07_r15_network.node[5].content_store 	decision_no[5] 	28365
scalar tree_4_3_u07_r15_network.node[5].content_store 	decision_ratio[5] 	0.10262899807017
scalar tree_4_3_u07_r15_network.node[6].core_layer 	interests[6] 	18469
scalar tree_4_3_u07_r15_network.node[6].core_layer 	data[6] 	14154
scalar tree_4_3_u07_r15_network.node[6].content_store 	p_hit[6] 	0.23358059450972
scalar tree_4_3_u07_r15_network.node[6].content_store 	hits[6] 	4314
scalar tree_4_3_u07_r15_network.node[6].content_store 	misses[6] 	14155
scalar tree_4_3_u07_r15_network.node[6].content_store 	decision_yes[6] 	1421
scalar tree_4_3_u07_r15_network.node[6].content_store 	decision_no[6] 	12733
scalar tree_4_3_u07_r15_network.node[6].content_store 	decision_ratio[6] 	0.10039564787339
scalar tree_4_3_u07_r15_network.node[7].core_layer 	interests[7] 	30201
scalar tree_4_3_u07_r15_network.node[7].core_layer 	data[7] 	28142
scalar tree_4_3_u07_r15_network.node[7].content_store 	p_hit[7] 	0.068176550445349
scalar tree_4_3_u07_r15_network.node[7].content_store 	hits[7] 	2059
scalar tree_4_3_u07_r15_network.node[7].content_store 	misses[7] 	28142
scalar tree_4_3_u07_r15_network.node[7].content_store 	decision_yes[7] 	2833
scalar tree_4_3_u07_r15_network.node[7].content_store 	decision_no[7] 	25309
scalar tree_4_3_u07_r15_network.node[7].content_store 	decision_ratio[7] 	0.10066804065098
scalar tree_4_3_u07_r15_network.node[8].core_layer 	interests[8] 	39213
scalar tree_4_3_u07_r15_network.node[8].core_layer 	data[8] 	36611
scalar tree_4_3_u07_r15_network.node[8].content_store 	p_hit[8] 	0.066381047101726
scalar tree_4_3_u07_r15_network.node[8].content_store 	hits[8] 	2603
scalar tree_4_3_u07_r15_network.node[8].content_store 	misses[8] 	36610
scalar tree_4_3_u07_r15_network.node[8].content_store 	decision_yes[8] 	3566
scalar tree_4_3_u07_r15_network.node[8].content_store 	decision_no[8] 	33045
scalar tree_4_3_u07_r15_network.node[8].content_store 	decision_ratio[8] 	0.097402420037694
scalar tree_4_3_u07_r15_network.node[9].core_layer 	interests[9] 	26954
scalar tree_4_3_u07_r15_network.node[9].core_layer 	data[9] 	22576
scalar tree_4_3_u07_r15_network.node[9].content_store 	p_hit[9] 	0.16242487200416
scalar tree_4_3_u07_r15_network.node[9].content_store 	hits[9] 	4378
scalar tree_4_3_u07_r15_network.node[9].content_store 	misses[9] 	22576
scalar tree_4_3_u07_r15_network.node[9].content_store 	decision_yes[9] 	2242
scalar tree_4_3_u07_r15_network.node[9].content_store 	decision_no[9] 	20334
scalar tree_4_3_u07_r15_network.node[9].content_store 	decision_ratio[9] 	0.099309000708717
scalar tree_4_3_u07_r15_network.node[10].core_layer 	interests[10] 	33014
scalar tree_4_3_u07_r15_network.node[10].core_layer 	data[10] 	30313
scalar tree_4_3_u07_r15_network.node[10].content_store 	p_hit[10] 	0.081783485793906
scalar tree_4_3_u07_r15_network.node[10].content_store 	hits[10] 	2700
scalar tree_4_3_u07_r15_network.node[10].content_store 	misses[10] 	30314
scalar tree_4_3_u07_r15_network.node[10].content_store 	decision_yes[10] 	3082
scalar tree_4_3_u07_r15_network.node[10].content_store 	decision_no[10] 	27231
scalar tree_4_3_u07_r15_network.node[10].content_store 	decision_ratio[10] 	0.10167254973114
scalar tree_4_3_u07_r15_network.node[11].core_layer 	interests[11] 	38876
scalar tree_4_3_u07_r15_network.node[11].core_layer 	data[11] 	36064
scalar tree_4_3_u07_r15_network.node[11].content_store 	p_hit[11] 	0.072332544500463
scalar tree_4_3_u07_r15_network.node[11].content_store 	hits[11] 	2812
scalar tree_4_3_u07_r15_network.node[11].content_store 	misses[11] 	36064
scalar tree_4_3_u07_r15_network.node[11].content_store 	decision_yes[11] 	3559
scalar tree_4_3_u07_r15_network.node[11].content_store 	decision_no[11] 	32505
scalar tree_4_3_u07_r15_network.node[11].content_store 	decision_ratio[11] 	0.098685669920142
scalar tree_4_3_u07_r15_network.node[12].core_layer 	interests[12] 	23288
scalar tree_4_3_u07_r15_network.node[12].core_layer 	data[12] 	19841
scalar tree_4_3_u07_r15_network.node[12].content_store 	p_hit[12] 	0.14797320508416
scalar tree_4_3_u07_r15_network.node[12].content_store 	hits[12] 	3446
scalar tree_4_3_u07_r15_network.node[12].content_store 	misses[12] 	19842
scalar tree_4_3_u07_r15_network.node[12].content_store 	decision_yes[12] 	1978
scalar tree_4_3_u07_r15_network.node[12].content_store 	decision_no[12] 	17863
scalar tree_4_3_u07_r15_network.node[12].content_store 	decision_ratio[12] 	0.099692555818759
scalar tree_4_3_u07_r15_network.node[13].core_layer 	interests[13] 	12918
scalar tree_4_3_u07_r15_network.node[13].core_layer 	data[13] 	9541
scalar tree_4_3_u07_r15_network.node[13].content_store 	p_hit[13] 	0.26141817618826
scalar tree_4_3_u07_r15_network.node[13].content_store 	hits[13] 	3377
scalar tree_4_3_u07_r15_network.node[13].content_store 	misses[13] 	9541
scalar tree_4_3_u07_r15_network.node[13].content_store 	decision_yes[13] 	986
scalar tree_4_3_u07_r15_network.node[13].content_store 	decision_no[13] 	8555
scalar tree_4_3_u07_r15_network.node[13].content_store 	decision_ratio[13] 	0.10334346504559
scalar tree_4_3_u07_r15_network.node[14].core_layer 	interests[14] 	14070
scalar tree_4_3_u07_r15_network.node[14].core_layer 	data[14] 	9469
scalar tree_4_3_u07_r15_network.node[14].content_store 	p_hit[14] 	0.32700781805259
scalar tree_4_3_u07_r15_network.node[14].content_store 	hits[14] 	4601
scalar tree_4_3_u07_r15_network.node[14].content_store 	misses[14] 	9469
scalar tree_4_3_u07_r15_network.node[14].content_store 	decision_yes[14] 	934
scalar tree_4_3_u07_r15_network.node[14].content_store 	decision_no[14] 	8535
scalar tree_4_3_u07_r15_network.node[14].content_store 	decision_ratio[14] 	0.098637659731756
scalar tree_4_3_u07_r15_network.node[15].core_layer 	interests[15] 	13870
scalar tree_4_3_u07_r15_network.node[15].core_layer 	data[15] 	9531
scalar tree_4_3_u07_r15_network.node[15].content_store 	p_hit[15] 	0.31283345349676
scalar tree_4_3_u07_r15_network.node[15].content_store 	hits[15] 	4339
scalar tree_4_3_u07_r15_network.node[15].content_store 	misses[15] 	9531
scalar tree_4_3_u07_r15_network.node[15].content_store 	decision_yes[15] 	909
scalar tree_4_3_u07_r15_network.node[15].content_store 	decision_no[15] 	8622
scalar tree_4_3_u07_r15_network.node[15].content_store 	decision_ratio[15] 	0.095372993389991
scalar tree_4_3_u07_r15_network.node[16].core_layer 	interests[16] 	13714
scalar tree_4_3_u07_r15_network.node[16].core_layer 	data[16] 	9470
scalar tree_4_3_u07_r15_network.node[16].content_store 	p_hit[16] 	0.30946478051626
scalar tree_4_3_u07_r15_network.node[16].content_store 	hits[16] 	4244
scalar tree_4_3_u07_r15_network.node[16].content_store 	misses[16] 	9470
scalar tree_4_3_u07_r15_network.node[16].content_store 	decision_yes[16] 	951
scalar tree_4_3_u07_r15_network.node[16].content_store 	decision_no[16] 	8519
scalar tree_4_3_u07_r15_network.node[16].content_store 	decision_ratio[16] 	0.10042238648363
scalar tree_4_3_u07_r15_network.node[17].core_layer 	interests[17] 	13302
scalar tree_4_3_u07_r15_network.node[17].core_layer 	data[17] 	9352
scalar tree_4_3_u07_r15_network.node[17].content_store 	p_hit[17] 	0.29687265072921
scalar tree_4_3_u07_r15_network.node[17].content_store 	hits[17] 	3949
scalar tree_4_3_u07_r15_network.node[17].content_store 	misses[17] 	9353
scalar tree_4_3_u07_r15_network.node[17].content_store 	decision_yes[17] 	901
scalar tree_4_3_u07_r15_network.node[17].content_store 	decision_no[17] 	8451
scalar tree_4_3_u07_r15_network.node[17].content_store 	decision_ratio[17] 	0.096343028229256
scalar tree_4_3_u07_r15_network.node[18].core_layer 	interests[18] 	13275
scalar tree_4_3_u07_r15_network.node[18].core_layer 	data[18] 	9449
scalar tree_4_3_u07_r15_network.node[18].content_store 	p_hit[18] 	0.28821092278719
scalar tree_4_3_u07_r15_network.node[18].content_store 	hits[18] 	3826
scalar tree_4_3_u07_r15_network.node[18].content_store 	misses[18] 	9449
scalar tree_4_3_u07_r15_network.node[18].content_store 	decision_yes[18] 	870
scalar tree_4_3_u07_r15_network.node[18].content_store 	decision_no[18] 	8579
scalar tree_4_3_u07_r15_network.node[18].content_store 	decision_ratio[18] 	0.092073235262991
scalar tree_4_3_u07_r15_network.node[19].core_layer 	interests[19] 	13615
scalar tree_4_3_u07_r15_network.node[19].core_layer 	data[19] 	9502
scalar tree_4_3_u07_r15_network.node[19].content_store 	p_hit[19] 	0.30201983106867
scalar tree_4_3_u07_r15_network.node[19].content_store 	hits[19] 	4112
scalar tree_4_3_u07_r15_network.node[19].content_store 	misses[19] 	9503
scalar tree_4_3_u07_r15_network.node[19].content_store 	decision_yes[19] 	961
scalar tree_4_3_u07_r15_network.node[19].content_store 	decision_no[19] 	8541
scalar tree_4_3_u07_r15_network.node[19].content_store 	decision_ratio[19] 	0.10113660282046
scalar tree_4_3_u07_r15_network.node[20].core_layer 	interests[20] 	14454
scalar tree_4_3_u07_r15_network.node[20].core_layer 	data[20] 	9499
scalar tree_4_3_u07_r15_network.node[20].content_store 	p_hit[20] 	0.34281167842812
scalar tree_4_3_u07_r15_network.node[20].content_store 	hits[20] 	4955
scalar tree_4_3_u07_r15_network.node[20].content_store 	misses[20] 	9499
scalar tree_4_3_u07_r15_network.node[20].content_store 	decision_yes[20] 	961
scalar tree_4_3_u07_r15_network.node[20].content_store 	decision_no[20] 	8538
scalar tree_4_3_u07_r15_network.node[20].content_store 	decision_ratio[20] 	0.10116854405727
scalar tree_4_3_u07_r15_network.node[21].core_layer 	interests[21] 	13084
scalar tree_4_3_u07_r15_network.node[21].core_layer 	data[21] 	9586
scalar tree_4_3_u07_r15_network.node[21].content_store 	p_hit[21] 	0.26734943442372
scalar tree_4_3_u07_r15_network.node[21].content_store 	hits[21] 	3498
scalar tree_4_3_u07_r15_network.node[21].content_store 	misses[21] 	9586
scalar tree_4_3_u07_r15_network.node[21].content_store 	decision_yes[21] 	984
scalar tree_4_3_u07_r15_network.node[21].content_store 	decision_no[21] 	8602
scalar tree_4_3_u07_r15_network.node[21].content_store 	decision_ratio[21] 	0.10264969747549
scalar tree_4_3_u07_r15_network.node[22].core_layer 	interests[22] 	12983
scalar tree_4_3_u07_r15_network.node[22].core_layer 	data[22] 	9744
scalar tree_4_3_u07_r15_network.node[22].content_store 	p_hit[22] 	0.24948008934761
scalar tree_4_3_u07_r15_network.node[22].content_store 	hits[22] 	3239
scalar tree_4_3_u07_r15_network.node[22].content_store 	misses[22] 	9744
scalar tree_4_3_u07_r15_network.node[22].content_store 	decision_yes[22] 	979
scalar tree_4_3_u07_r15_network.node[22].content_store 	decision_no[22] 	8765
scalar tree_4_3_u07_r15_network.node[22].content_store 	decision_ratio[22] 	0.10047208538588
scalar tree_4_3_u07_r15_network.node[23].core_layer 	interests[23] 	14051
scalar tree_4_3_u07_r15_network.node[23].core_layer 	data[23] 	9390
scalar tree_4_3_u07_r15_network.node[23].content_store 	p_hit[23] 	0.33172016226603
scalar tree_4_3_u07_r15_network.node[23].content_store 	hits[23] 	4661
scalar tree_4_3_u07_r15_network.node[23].content_store 	misses[23] 	9390
scalar tree_4_3_u07_r15_network.node[23].content_store 	decision_yes[23] 	931
scalar tree_4_3_u07_r15_network.node[23].content_store 	decision_no[23] 	8459
scalar tree_4_3_u07_r15_network.node[23].content_store 	decision_ratio[23] 	0.099148029818956
scalar tree_4_3_u07_r15_network.node[24].core_layer 	interests[24] 	13100
scalar tree_4_3_u07_r15_network.node[24].core_layer 	data[24] 	9658
scalar tree_4_3_u07_r15_network.node[24].content_store 	p_hit[24] 	0.26267175572519
scalar tree_4_3_u07_r15_network.node[24].content_store 	hits[24] 	3441
scalar tree_4_3_u07_r15_network.node[24].content_store 	misses[24] 	9659
scalar tree_4_3_u07_r15_network.node[24].content_store 	decision_yes[24] 	986
scalar tree_4_3_u07_r15_network.node[24].content_store 	decision_no[24] 	8672
scalar tree_4_3_u07_r15_network.node[24].content_store 	decision_ratio[24] 	0.10209153033754
scalar tree_4_3_u07_r15_network.node[25].core_layer 	interests[25] 	12931
scalar tree_4_3_u07_r15_network.node[25].core_layer 	data[25] 	9376
scalar tree_4_3_u07_r15_network.node[25].content_store 	p_hit[25] 	0.27499806666151
scalar tree_4_3_u07_r15_network.node[25].content_store 	hits[25] 	3556
scalar tree_4_3_u07_r15_network.node[25].content_store 	misses[25] 	9375
scalar tree_4_3_u07_r15_network.node[25].content_store 	decision_yes[25] 	928
scalar tree_4_3_u07_r15_network.node[25].content_store 	decision_no[25] 	8448
scalar tree_4_3_u07_r15_network.node[25].content_store 	decision_ratio[25] 	0.098976109215017
scalar tree_4_3_u07_r15_network.node[26].core_layer 	interests[26] 	13165
scalar tree_4_3_u07_r15_network.node[26].core_layer 	data[26] 	9626
scalar tree_4_3_u07_r15_network.node[26].content_store 	p_hit[26] 	0.26881883782757
scalar tree_4_3_u07_r15_network.node[26].content_store 	hits[26] 	3539
scalar tree_4_3_u07_r15_network.node[26].content_store 	misses[26] 	9626
scalar tree_4_3_u07_r15_network.node[26].content_store 	decision_yes[26] 	961
scalar tree_4_3_u07_r15_network.node[26].content_store 	decision_no[26] 	8665
scalar tree_4_3_u07_r15_network.node[26].content_store 	decision_ratio[26] 	0.099833783503013
scalar tree_4_3_u07_r15_network.node[27].core_layer 	interests[27] 	14245
scalar tree_4_3_u07_r15_network.node[27].core_layer 	data[27] 	9526
scalar tree_4_3_u07_r15_network.node[27].content_store 	p_hit[27] 	0.33127413127413
scalar tree_4_3_u07_r15_network.node[27].content_store 	hits[27] 	4719
scalar tree_4_3_u07_r15_network.node[27].content_store 	misses[27] 	9526
scalar tree_4_3_u07_r15_network.node[27].content_store 	decision_yes[27] 	937
scalar tree_4_3_u07_r15_network.node[27].content_store 	decision_no[27] 	8589
scalar tree_4_3_u07_r15_network.node[27].content_store 	decision_ratio[27] 	0.09836237665337
scalar tree_4_3_u07_r15_network.node[28].core_layer 	interests[28] 	13474
scalar tree_4_3_u07_r15_network.node[28].core_layer 	data[28] 	9592
scalar tree_4_3_u07_r15_network.node[28].content_store 	p_hit[28] 	0.28811043491168
scalar tree_4_3_u07_r15_network.node[28].content_store 	hits[28] 	3882
scalar tree_4_3_u07_r15_network.node[28].content_store 	misses[28] 	9592
scalar tree_4_3_u07_r15_network.node[28].content_store 	decision_yes[28] 	968
scalar tree_4_3_u07_r15_network.node[28].content_store 	decision_no[28] 	8624
scalar tree_4_3_u07_r15_network.node[28].content_store 	decision_ratio[28] 	0.10091743119266
scalar tree_4_3_u07_r15_network.node[29].core_layer 	interests[29] 	14453
scalar tree_4_3_u07_r15_network.node[29].core_layer 	data[29] 	9647
scalar tree_4_3_u07_r15_network.node[29].content_store 	p_hit[29] 	0.33245692935723
scalar tree_4_3_u07_r15_network.node[29].content_store 	hits[29] 	4805
scalar tree_4_3_u07_r15_network.node[29].content_store 	misses[29] 	9648
scalar tree_4_3_u07_r15_network.node[29].content_store 	decision_yes[29] 	995
scalar tree_4_3_u07_r15_network.node[29].content_store 	decision_no[29] 	8652
scalar tree_4_3_u07_r15_network.node[29].content_store 	decision_ratio[29] 	0.1031408728102
scalar tree_4_3_u07_r15_network.node[30].core_layer 	interests[30] 	13410
scalar tree_4_3_u07_r15_network.node[30].core_layer 	data[30] 	9604
scalar tree_4_3_u07_r15_network.node[30].content_store 	p_hit[30] 	0.28381804623415
scalar tree_4_3_u07_r15_network.node[30].content_store 	hits[30] 	3806
scalar tree_4_3_u07_r15_network.node[30].content_store 	misses[30] 	9604
scalar tree_4_3_u07_r15_network.node[30].content_store 	decision_yes[30] 	953
scalar tree_4_3_u07_r15_network.node[30].content_store 	decision_no[30] 	8651
scalar tree_4_3_u07_r15_network.node[30].content_store 	decision_ratio[30] 	0.099229487713453
scalar tree_4_3_u07_r15_network.node[31].core_layer 	interests[31] 	13140
scalar tree_4_3_u07_r15_network.node[31].core_layer 	data[31] 	9673
scalar tree_4_3_u07_r15_network.node[31].content_store 	p_hit[31] 	0.26385083713851
scalar tree_4_3_u07_r15_network.node[31].content_store 	hits[31] 	3467
scalar tree_4_3_u07_r15_network.node[31].content_store 	misses[31] 	9673
scalar tree_4_3_u07_r15_network.node[31].content_store 	decision_yes[31] 	921
scalar tree_4_3_u07_r15_network.node[31].content_store 	decision_no[31] 	8752
scalar tree_4_3_u07_r15_network.node[31].content_store 	decision_ratio[31] 	0.095213480822909
scalar tree_4_3_u07_r15_network.node[32].core_layer 	interests[32] 	14150
scalar tree_4_3_u07_r15_network.node[32].core_layer 	data[32] 	9654
scalar tree_4_3_u07_r15_network.node[32].content_store 	p_hit[32] 	0.31773851590106
scalar tree_4_3_u07_r15_network.node[32].content_store 	hits[32] 	4496
scalar tree_4_3_u07_r15_network.node[32].content_store 	misses[32] 	9654
scalar tree_4_3_u07_r15_network.node[32].content_store 	decision_yes[32] 	998
scalar tree_4_3_u07_r15_network.node[32].content_store 	decision_no[32] 	8656
scalar tree_4_3_u07_r15_network.node[32].content_store 	decision_ratio[32] 	0.10337683861612
scalar tree_4_3_u07_r15_network.node[33].core_layer 	interests[33] 	13595
scalar tree_4_3_u07_r15_network.node[33].core_layer 	data[33] 	9479
scalar tree_4_3_u07_r15_network.node[33].content_store 	p_hit[33] 	0.30275836704671
scalar tree_4_3_u07_r15_network.node[33].content_store 	hits[33] 	4116
scalar tree_4_3_u07_r15_network.node[33].content_store 	misses[33] 	9479
scalar tree_4_3_u07_r15_network.node[33].content_store 	decision_yes[33] 	957
scalar tree_4_3_u07_r15_network.node[33].content_store 	decision_no[33] 	8522
scalar tree_4_3_u07_r15_network.node[33].content_store 	decision_ratio[33] 	0.10096001687942
scalar tree_4_3_u07_r15_network.node[34].core_layer 	interests[34] 	14034
scalar tree_4_3_u07_r15_network.node[34].core_layer 	data[34] 	9688
scalar tree_4_3_u07_r15_network.node[34].content_store 	p_hit[34] 	0.30967649992874
scalar tree_4_3_u07_r15_network.node[34].content_store 	hits[34] 	4346
scalar tree_4_3_u07_r15_network.node[34].content_store 	misses[34] 	9688
scalar tree_4_3_u07_r15_network.node[34].content_store 	decision_yes[34] 	971
scalar tree_4_3_u07_r15_network.node[34].content_store 	decision_no[34] 	8717
scalar tree_4_3_u07_r15_network.node[34].content_store 	decision_ratio[34] 	0.10022708505367
scalar tree_4_3_u07_r15_network.node[35].core_layer 	interests[35] 	13366
scalar tree_4_3_u07_r15_network.node[35].core_layer 	data[35] 	9645
scalar tree_4_3_u07_r15_network.node[35].content_store 	p_hit[35] 	0.27839293730361
scalar tree_4_3_u07_r15_network.node[35].content_store 	hits[35] 	3721
scalar tree_4_3_u07_r15_network.node[35].content_store 	misses[35] 	9645
scalar tree_4_3_u07_r15_network.node[35].content_store 	decision_yes[35] 	917
scalar tree_4_3_u07_r15_network.node[35].content_store 	decision_no[35] 	8728
scalar tree_4_3_u07_r15_network.node[35].content_store 	decision_ratio[35] 	0.095075168481078
scalar tree_4_3_u07_r15_network.node[36].core_layer 	interests[36] 	14335
scalar tree_4_3_u07_r15_network.node[36].core_layer 	data[36] 	9817
scalar tree_4_3_u07_r15_network.node[36].content_store 	p_hit[36] 	0.31517265434252
scalar tree_4_3_u07_r15_network.node[36].content_store 	hits[36] 	4518
scalar tree_4_3_u07_r15_network.node[36].content_store 	misses[36] 	9817
scalar tree_4_3_u07_r15_network.node[36].content_store 	decision_yes[36] 	1033
scalar tree_4_3_u07_r15_network.node[36].content_store 	decision_no[36] 	8784
scalar tree_4_3_u07_r15_network.node[36].content_store 	decision_ratio[36] 	0.1052256290109
scalar tree_4_3_u07_r15_network.node[37].core_layer 	interests[37] 	13705
scalar tree_4_3_u07_r15_network.node[37].core_layer 	data[37] 	9574
scalar tree_4_3_u07_r15_network.node[37].content_store 	p_hit[37] 	0.30142283838015
scalar tree_4_3_u07_r15_network.node[37].content_store 	hits[37] 	4131
scalar tree_4_3_u07_r15_network.node[37].content_store 	misses[37] 	9574
scalar tree_4_3_u07_r15_network.node[37].content_store 	decision_yes[37] 	983
scalar tree_4_3_u07_r15_network.node[37].content_store 	decision_no[37] 	8591
scalar tree_4_3_u07_r15_network.node[37].content_store 	decision_ratio[37] 	0.10267390850219
scalar tree_4_3_u07_r15_network.node[38].core_layer 	interests[38] 	12770
scalar tree_4_3_u07_r15_network.node[38].core_layer 	data[38] 	9374
scalar tree_4_3_u07_r15_network.node[38].content_store 	p_hit[38] 	0.26593578700078
scalar tree_4_3_u07_r15_network.node[38].content_store 	hits[38] 	3396
scalar tree_4_3_u07_r15_network.node[38].content_store 	misses[38] 	9374
scalar tree_4_3_u07_r15_network.node[38].content_store 	decision_yes[38] 	959
scalar tree_4_3_u07_r15_network.node[38].content_store 	decision_no[38] 	8415
scalar tree_4_3_u07_r15_network.node[38].content_store 	decision_ratio[38] 	0.10230424578622
scalar tree_4_3_u07_r15_network.node[39].core_layer 	interests[39] 	12925
scalar tree_4_3_u07_r15_network.node[39].core_layer 	data[39] 	9404
scalar tree_4_3_u07_r15_network.node[39].content_store 	p_hit[39] 	0.27241779497099
scalar tree_4_3_u07_r15_network.node[39].content_store 	hits[39] 	3521
scalar tree_4_3_u07_r15_network.node[39].content_store 	misses[39] 	9404
scalar tree_4_3_u07_r15_network.node[39].content_store 	decision_yes[39] 	942
scalar tree_4_3_u07_r15_network.node[39].content_store 	decision_no[39] 	8462
scalar tree_4_3_u07_r15_network.node[39].content_store 	decision_ratio[39] 	0.1001701403658
scalar tree_4_3_u07_r15_network.client[13] 	hdistance[13] 	2.8846408474015
scalar tree_4_3_u07_r15_network.client[13] 	downloads[13] 	12084
scalar tree_4_3_u07_r15_network.client[13] 	avg_time[13] 	0.004527305809
scalar tree_4_3_u07_r15_network.client[14] 	hdistance[14] 	2.7928999072435
scalar tree_4_3_u07_r15_network.client[14] 	downloads[14] 	11859
scalar tree_4_3_u07_r15_network.client[14] 	avg_time[14] 	0.004459512312
scalar tree_4_3_u07_r15_network.client[15] 	hdistance[15] 	2.7688467299051
scalar tree_4_3_u07_r15_network.client[15] 	downloads[15] 	12018
scalar tree_4_3_u07_r15_network.client[15] 	avg_time[15] 	0.004421364951
scalar tree_4_3_u07_r15_network.client[16] 	hdistance[16] 	2.7818961169944
scalar tree_4_3_u07_r15_network.client[16] 	downloads[16] 	11898
scalar tree_4_3_u07_r15_network.client[16] 	avg_time[16] 	0.00444595433
scalar tree_4_3_u07_r15_network.client[17] 	hdistance[17] 	2.8047671186726
scalar tree_4_3_u07_r15_network.client[17] 	downloads[17] 	11873
scalar tree_4_3_u07_r15_network.client[17] 	avg_time[17] 	0.004509689471
scalar tree_4_3_u07_r15_network.client[18] 	hdistance[18] 	2.8239740820734
scalar tree_4_3_u07_r15_network.client[18] 	downloads[18] 	12038
scalar tree_4_3_u07_r15_network.client[18] 	avg_time[18] 	0.004519174874
scalar tree_4_3_u07_r15_network.client[19] 	hdistance[19] 	2.7746549560853
scalar tree_4_3_u07_r15_network.client[19] 	downloads[19] 	11955
scalar tree_4_3_u07_r15_network.client[19] 	avg_time[19] 	0.004423923897
scalar tree_4_3_u07_r15_network.client[20] 	hdistance[20] 	2.7331823519544
scalar tree_4_3_u07_r15_network.client[20] 	downloads[20] 	11922
scalar tree_4_3_u07_r15_network.client[20] 	avg_time[20] 	0.004386006078
scalar tree_4_3_u07_r15_network.client[21] 	hdistance[21] 	2.8227096561392
scalar tree_4_3_u07_r15_network.client[21] 	downloads[21] 	12127
scalar tree_4_3_u07_r15_network.client[21] 	avg_time[21] 	0.004535001499
scalar tree_4_3_u07_r15_network.client[22] 	hdistance[22] 	2.9427272727273
scalar tree_4_3_u07_r15_network.client[22] 	downloads[22] 	12100
scalar tree_4_3_u07_r15_network.client[22] 	avg_time[22] 	0.004717344035
scalar tree_4_3_u07_r15_network.client[23] 	hdistance[23] 	2.7982074049254
scalar tree_4_3_u07_r15_network.client[23] 	downloads[23] 	11938
scalar tree_4_3_u07_r15_network.client[23] 	avg_time[23] 	0.004432062693
scalar tree_4_3_u07_r15_network.client[24] 	hdistance[24] 	2.9233305853256
scalar tree_4_3_u07_r15_network.client[24] 	downloads[24] 	12130
scalar tree_4_3_u07_r15_network.client[24] 	avg_time[24] 	0.004691094284
scalar tree_4_3_u07_r15_network.client[25] 	hdistance[25] 	2.8779247202442
scalar tree_4_3_u07_r15_network.client[25] 	downloads[25] 	11796
scalar tree_4_3_u07_r15_network.client[25] 	avg_time[25] 	0.004593575344
scalar tree_4_3_u07_r15_network.client[26] 	hdistance[26] 	2.8733178268815
scalar tree_4_3_u07_r15_network.client[26] 	downloads[26] 	12038
scalar tree_4_3_u07_r15_network.client[26] 	avg_time[26] 	0.00458921395
scalar tree_4_3_u07_r15_network.client[27] 	hdistance[27] 	2.7602734016838
scalar tree_4_3_u07_r15_network.client[27] 	downloads[27] 	11997
scalar tree_4_3_u07_r15_network.client[27] 	avg_time[27] 	0.004422769349
scalar tree_4_3_u07_r15_network.client[28] 	hdistance[28] 	2.8260653702938
scalar tree_4_3_u07_r15_network.client[28] 	downloads[28] 	12085
scalar tree_4_3_u07_r15_network.client[28] 	avg_time[28] 	0.004560526533
scalar tree_4_3_u07_r15_network.client[29] 	hdistance[29] 	2.7668974612595
scalar tree_4_3_u07_r15_network.client[29] 	downloads[29] 	12132
scalar tree_4_3_u07_r15_network.client[29] 	avg_time[29] 	0.004437187851
scalar tree_4_3_u07_r15_network.client[30] 	hdistance[30] 	2.8257199602781
scalar tree_4_3_u07_r15_network.client[30] 	downloads[30] 	12084
scalar tree_4_3_u07_r15_network.client[30] 	avg_time[30] 	0.00455676628
scalar tree_4_3_u07_r15_network.client[31] 	hdistance[31] 	2.8646971201589
scalar tree_4_3_u07_r15_network.client[31] 	downloads[31] 	12084
scalar tree_4_3_u07_r15_network.client[31] 	avg_time[31] 	0.004562797197
scalar tree_4_3_u07_r15_network.client[32] 	hdistance[32] 	2.7768792804687
scalar tree_4_3_u07_r15_network.client[32] 	downloads[32] 	12119
scalar tree_4_3_u07_r15_network.client[32] 	avg_time[32] 	0.004465876987
scalar tree_4_3_u07_r15_network.client[33] 	hdistance[33] 	2.7862589023879
scalar tree_4_3_u07_r15_network.client[33] 	downloads[33] 	11935
scalar tree_4_3_u07_r15_network.client[33] 	avg_time[33] 	0.004396310358
scalar tree_4_3_u07_r15_network.client[34] 	hdistance[34] 	2.803
scalar tree_4_3_u07_r15_network.client[34] 	downloads[34] 	12000
scalar tree_4_3_u07_r15_network.client[34] 	avg_time[34] 	0.004499946007
scalar tree_4_3_u07_r15_network.client[35] 	hdistance[35] 	2.8934529298348
scalar tree_4_3_u07_r15_network.client[35] 	downloads[35] 	11929
scalar tree_4_3_u07_r15_network.client[35] 	avg_time[35] 	0.004684714938
scalar tree_4_3_u07_r15_network.client[36] 	hdistance[36] 	2.7942232375979
scalar tree_4_3_u07_r15_network.client[36] 	downloads[36] 	12256
scalar tree_4_3_u07_r15_network.client[36] 	avg_time[36] 	0.004466058572
scalar tree_4_3_u07_r15_network.client[37] 	hdistance[37] 	2.785482664006
scalar tree_4_3_u07_r15_network.client[37] 	downloads[37] 	12027
scalar tree_4_3_u07_r15_network.client[37] 	avg_time[37] 	0.004401593174
scalar tree_4_3_u07_r15_network.client[38] 	hdistance[38] 	2.8295148247978
scalar tree_4_3_u07_r15_network.client[38] 	downloads[38] 	11872
scalar tree_4_3_u07_r15_network.client[38] 	avg_time[38] 	0.004498161918
scalar tree_4_3_u07_r15_network.client[39] 	hdistance[39] 	2.8144992900693
scalar tree_4_3_u07_r15_network.client[39] 	downloads[39] 	11973
scalar tree_4_3_u07_r15_network.client[39] 	avg_time[39] 	0.004476903384
