version 2
run General-179-20160819-09:50:40-13837
attr a 0.9
attr cd fix0.1
attr configname General
attr cr lru
attr datetime 20160819-09:50:40
attr experiment General
attr fsize 1
attr inifile hw5115/scenario_A/NRR-FIX0.1.ini
attr iterationvars "$name=tree_4_3, $un=08, $rep=20, $cd=fix0.1, $cr=lru, $fsize=1, $a=0.9, $sl=nrr, $ttl=1000, $variance=0.05"
attr iterationvars2 "$name=tree_4_3, $un=08, $rep=20, $cd=fix0.1, $cr=lru, $fsize=1, $a=0.9, $sl=nrr, $ttl=1000, $variance=0.05, $repetition=0"
attr measurement "$name=tree_4_3, $un=08, $rep=20, $cd=fix0.1, $cr=lru, $fsize=1, $a=0.9, $sl=nrr, $ttl=1000, $variance=0.05"
attr name tree_4_3
attr network networks.${name}_u${un}_r${rep}_network
attr processid 13837
attr rep 20
attr repetition 0
attr replication #0
attr resultdir results
attr runnumber 179
attr seedset 20
attr sl nrr
attr ttl 1000
attr un 08
attr variance 0.05

scalar . 	a 	0.9
scalar . 	fsize 	1
scalar . 	rep 	20
scalar . 	ttl 	1000
scalar . 	un 	08
scalar . 	variance 	0.05
scalar tree_4_3_u08_r20_network.content_distribution 	repo-0 	0
scalar tree_4_3_u08_r20_network.content_distribution 	client-0 	13
scalar tree_4_3_u08_r20_network.content_distribution 	client-1 	14
scalar tree_4_3_u08_r20_network.content_distribution 	client-2 	15
scalar tree_4_3_u08_r20_network.content_distribution 	client-3 	16
scalar tree_4_3_u08_r20_network.content_distribution 	client-4 	17
scalar tree_4_3_u08_r20_network.content_distribution 	client-5 	18
scalar tree_4_3_u08_r20_network.content_distribution 	client-6 	19
scalar tree_4_3_u08_r20_network.content_distribution 	client-7 	20
scalar tree_4_3_u08_r20_network.content_distribution 	client-8 	21
scalar tree_4_3_u08_r20_network.content_distribution 	client-9 	22
scalar tree_4_3_u08_r20_network.content_distribution 	client-10 	23
scalar tree_4_3_u08_r20_network.content_distribution 	client-11 	24
scalar tree_4_3_u08_r20_network.content_distribution 	client-12 	25
scalar tree_4_3_u08_r20_network.content_distribution 	client-13 	26
scalar tree_4_3_u08_r20_network.content_distribution 	client-14 	27
scalar tree_4_3_u08_r20_network.content_distribution 	client-15 	28
scalar tree_4_3_u08_r20_network.content_distribution 	client-16 	29
scalar tree_4_3_u08_r20_network.content_distribution 	client-17 	30
scalar tree_4_3_u08_r20_network.content_distribution 	client-18 	31
scalar tree_4_3_u08_r20_network.content_distribution 	client-19 	32
scalar tree_4_3_u08_r20_network.content_distribution 	client-20 	33
scalar tree_4_3_u08_r20_network.content_distribution 	client-21 	34
scalar tree_4_3_u08_r20_network.content_distribution 	client-22 	35
scalar tree_4_3_u08_r20_network.content_distribution 	client-23 	36
scalar tree_4_3_u08_r20_network.content_distribution 	client-24 	37
scalar tree_4_3_u08_r20_network.content_distribution 	client-25 	38
scalar tree_4_3_u08_r20_network.content_distribution 	client-26 	39
scalar tree_4_3_u08_r20_network.content_distribution 	repo-0_card 	100000
scalar tree_4_3_u08_r20_network.content_distribution 	repo-0_price 	0
scalar tree_4_3_u08_r20_network.statistics 	stabilization_time 	664.1
scalar tree_4_3_u08_r20_network.statistics 	p_hit 	0.22896328467579
scalar tree_4_3_u08_r20_network.statistics 	interests 	26367.7
scalar tree_4_3_u08_r20_network.statistics 	data 	18236.075
scalar tree_4_3_u08_r20_network.statistics 	hdistance 	2.8052336460846
scalar tree_4_3_u08_r20_network.statistics 	avg_time 	0.00448536697
scalar tree_4_3_u08_r20_network.statistics 	downloads 	325255
scalar tree_4_3_u08_r20_network.statistics 	total_cost 	0
scalar tree_4_3_u08_r20_network.statistics 	total_replicas 	100000
scalar tree_4_3_u08_r20_network.statistics 	inner_hit 	0.43750288235385
scalar tree_4_3_u08_r20_network.node[0].core_layer 	interests[0] 	183894
scalar tree_4_3_u08_r20_network.node[0].core_layer 	repo_load[0] 	182955
scalar tree_4_3_u08_r20_network.node[0].core_layer 	data[0] 	0
scalar tree_4_3_u08_r20_network.node[0].core_layer 	repo_int[0] 	182955
scalar tree_4_3_u08_r20_network.node[0].content_store 	p_hit[0] 	0.0051062024862149
scalar tree_4_3_u08_r20_network.node[0].content_store 	hits[0] 	939
scalar tree_4_3_u08_r20_network.node[0].content_store 	misses[0] 	182955
scalar tree_4_3_u08_r20_network.node[0].content_store 	decision_yes[0] 	18226
scalar tree_4_3_u08_r20_network.node[0].content_store 	decision_no[0] 	164729
scalar tree_4_3_u08_r20_network.node[0].content_store 	decision_ratio[0] 	0.099620125167391
scalar tree_4_3_u08_r20_network.node[1].core_layer 	interests[1] 	127720
scalar tree_4_3_u08_r20_network.node[1].core_layer 	data[1] 	126720
scalar tree_4_3_u08_r20_network.node[1].content_store 	p_hit[1] 	0.0077983088005011
scalar tree_4_3_u08_r20_network.node[1].content_store 	hits[1] 	996
scalar tree_4_3_u08_r20_network.node[1].content_store 	misses[1] 	126724
scalar tree_4_3_u08_r20_network.node[1].content_store 	decision_yes[1] 	12822
scalar tree_4_3_u08_r20_network.node[1].content_store 	decision_no[1] 	113897
scalar tree_4_3_u08_r20_network.node[1].content_store 	decision_ratio[1] 	0.10118451061009
scalar tree_4_3_u08_r20_network.node[2].core_layer 	interests[2] 	59509
scalar tree_4_3_u08_r20_network.node[2].core_layer 	data[2] 	57802
scalar tree_4_3_u08_r20_network.node[2].content_store 	p_hit[2] 	0.028684736762507
scalar tree_4_3_u08_r20_network.node[2].content_store 	hits[2] 	1707
scalar tree_4_3_u08_r20_network.node[2].content_store 	misses[2] 	57802
scalar tree_4_3_u08_r20_network.node[2].content_store 	decision_yes[2] 	5747
scalar tree_4_3_u08_r20_network.node[2].content_store 	decision_no[2] 	52054
scalar tree_4_3_u08_r20_network.node[2].content_store 	decision_ratio[2] 	0.099427345547655
scalar tree_4_3_u08_r20_network.node[3].core_layer 	interests[3] 	29266
scalar tree_4_3_u08_r20_network.node[3].core_layer 	data[3] 	27324
scalar tree_4_3_u08_r20_network.node[3].content_store 	p_hit[3] 	0.066356864621062
scalar tree_4_3_u08_r20_network.node[3].content_store 	hits[3] 	1942
scalar tree_4_3_u08_r20_network.node[3].content_store 	misses[3] 	27324
scalar tree_4_3_u08_r20_network.node[3].content_store 	decision_yes[3] 	2831
scalar tree_4_3_u08_r20_network.node[3].content_store 	decision_no[3] 	24493
scalar tree_4_3_u08_r20_network.node[3].content_store 	decision_ratio[3] 	0.10360854926072
scalar tree_4_3_u08_r20_network.node[4].core_layer 	interests[4] 	45438
scalar tree_4_3_u08_r20_network.node[4].core_layer 	data[4] 	43511
scalar tree_4_3_u08_r20_network.node[4].content_store 	p_hit[4] 	0.042343413002333
scalar tree_4_3_u08_r20_network.node[4].content_store 	hits[4] 	1924
scalar tree_4_3_u08_r20_network.node[4].content_store 	misses[4] 	43514
scalar tree_4_3_u08_r20_network.node[4].content_store 	decision_yes[4] 	4339
scalar tree_4_3_u08_r20_network.node[4].content_store 	decision_no[4] 	39172
scalar tree_4_3_u08_r20_network.node[4].content_store 	decision_ratio[4] 	0.09972190940222
scalar tree_4_3_u08_r20_network.node[5].core_layer 	interests[5] 	33801
scalar tree_4_3_u08_r20_network.node[5].core_layer 	data[5] 	30423
scalar tree_4_3_u08_r20_network.node[5].content_store 	p_hit[5] 	0.099878701813556
scalar tree_4_3_u08_r20_network.node[5].content_store 	hits[5] 	3376
scalar tree_4_3_u08_r20_network.node[5].content_store 	misses[5] 	30425
scalar tree_4_3_u08_r20_network.node[5].content_store 	decision_yes[5] 	2980
scalar tree_4_3_u08_r20_network.node[5].content_store 	decision_no[5] 	27443
scalar tree_4_3_u08_r20_network.node[5].content_store 	decision_ratio[5] 	0.097952207211649
scalar tree_4_3_u08_r20_network.node[6].core_layer 	interests[6] 	15328
scalar tree_4_3_u08_r20_network.node[6].core_layer 	data[6] 	10906
scalar tree_4_3_u08_r20_network.node[6].content_store 	p_hit[6] 	0.2884264091858
scalar tree_4_3_u08_r20_network.node[6].content_store 	hits[6] 	4421
scalar tree_4_3_u08_r20_network.node[6].content_store 	misses[6] 	10907
scalar tree_4_3_u08_r20_network.node[6].content_store 	decision_yes[6] 	1105
scalar tree_4_3_u08_r20_network.node[6].content_store 	decision_no[6] 	9801
scalar tree_4_3_u08_r20_network.node[6].content_store 	decision_ratio[6] 	0.101320374106
scalar tree_4_3_u08_r20_network.node[7].core_layer 	interests[7] 	39407
scalar tree_4_3_u08_r20_network.node[7].core_layer 	data[7] 	36906
scalar tree_4_3_u08_r20_network.node[7].content_store 	p_hit[7] 	0.06341512929175
scalar tree_4_3_u08_r20_network.node[7].content_store 	hits[7] 	2499
scalar tree_4_3_u08_r20_network.node[7].content_store 	misses[7] 	36908
scalar tree_4_3_u08_r20_network.node[7].content_store 	decision_yes[7] 	3663
scalar tree_4_3_u08_r20_network.node[7].content_store 	decision_no[7] 	33243
scalar tree_4_3_u08_r20_network.node[7].content_store 	decision_ratio[7] 	0.099252154121281
scalar tree_4_3_u08_r20_network.node[8].core_layer 	interests[8] 	38699
scalar tree_4_3_u08_r20_network.node[8].core_layer 	data[8] 	36240
scalar tree_4_3_u08_r20_network.node[8].content_store 	p_hit[8] 	0.06351585312282
scalar tree_4_3_u08_r20_network.node[8].content_store 	hits[8] 	2458
scalar tree_4_3_u08_r20_network.node[8].content_store 	misses[8] 	36241
scalar tree_4_3_u08_r20_network.node[8].content_store 	decision_yes[8] 	3556
scalar tree_4_3_u08_r20_network.node[8].content_store 	decision_no[8] 	32684
scalar tree_4_3_u08_r20_network.node[8].content_store 	decision_ratio[8] 	0.098123620309051
scalar tree_4_3_u08_r20_network.node[9].core_layer 	interests[9] 	18854
scalar tree_4_3_u08_r20_network.node[9].core_layer 	data[9] 	13712
scalar tree_4_3_u08_r20_network.node[9].content_store 	p_hit[9] 	0.27267423358439
scalar tree_4_3_u08_r20_network.node[9].content_store 	hits[9] 	5141
scalar tree_4_3_u08_r20_network.node[9].content_store 	misses[9] 	13713
scalar tree_4_3_u08_r20_network.node[9].content_store 	decision_yes[9] 	1336
scalar tree_4_3_u08_r20_network.node[9].content_store 	decision_no[9] 	12376
scalar tree_4_3_u08_r20_network.node[9].content_store 	decision_ratio[9] 	0.097432905484247
scalar tree_4_3_u08_r20_network.node[10].core_layer 	interests[10] 	39745
scalar tree_4_3_u08_r20_network.node[10].core_layer 	data[10] 	36866
scalar tree_4_3_u08_r20_network.node[10].content_store 	p_hit[10] 	0.072436784501195
scalar tree_4_3_u08_r20_network.node[10].content_store 	hits[10] 	2879
scalar tree_4_3_u08_r20_network.node[10].content_store 	misses[10] 	36866
scalar tree_4_3_u08_r20_network.node[10].content_store 	decision_yes[10] 	3698
scalar tree_4_3_u08_r20_network.node[10].content_store 	decision_no[10] 	33167
scalar tree_4_3_u08_r20_network.node[10].content_store 	decision_ratio[10] 	0.10031194900312
scalar tree_4_3_u08_r20_network.node[11].core_layer 	interests[11] 	23834
scalar tree_4_3_u08_r20_network.node[11].core_layer 	data[11] 	20380
scalar tree_4_3_u08_r20_network.node[11].content_store 	p_hit[11] 	0.14491902324411
scalar tree_4_3_u08_r20_network.node[11].content_store 	hits[11] 	3454
scalar tree_4_3_u08_r20_network.node[11].content_store 	misses[11] 	20380
scalar tree_4_3_u08_r20_network.node[11].content_store 	decision_yes[11] 	1980
scalar tree_4_3_u08_r20_network.node[11].content_store 	decision_no[11] 	18400
scalar tree_4_3_u08_r20_network.node[11].content_store 	decision_ratio[11] 	0.097154072620216
scalar tree_4_3_u08_r20_network.node[12].core_layer 	interests[12] 	31950
scalar tree_4_3_u08_r20_network.node[12].core_layer 	data[12] 	29551
scalar tree_4_3_u08_r20_network.node[12].content_store 	p_hit[12] 	0.07508607198748
scalar tree_4_3_u08_r20_network.node[12].content_store 	hits[12] 	2399
scalar tree_4_3_u08_r20_network.node[12].content_store 	misses[12] 	29551
scalar tree_4_3_u08_r20_network.node[12].content_store 	decision_yes[12] 	2946
scalar tree_4_3_u08_r20_network.node[12].content_store 	decision_no[12] 	26605
scalar tree_4_3_u08_r20_network.node[12].content_store 	decision_ratio[12] 	0.099692057798382
scalar tree_4_3_u08_r20_network.node[13].core_layer 	interests[13] 	12935
scalar tree_4_3_u08_r20_network.node[13].core_layer 	data[13] 	9676
scalar tree_4_3_u08_r20_network.node[13].content_store 	p_hit[13] 	0.25187475840742
scalar tree_4_3_u08_r20_network.node[13].content_store 	hits[13] 	3258
scalar tree_4_3_u08_r20_network.node[13].content_store 	misses[13] 	9677
scalar tree_4_3_u08_r20_network.node[13].content_store 	decision_yes[13] 	1009
scalar tree_4_3_u08_r20_network.node[13].content_store 	decision_no[13] 	8667
scalar tree_4_3_u08_r20_network.node[13].content_store 	decision_ratio[13] 	0.10427862753204
scalar tree_4_3_u08_r20_network.node[14].core_layer 	interests[14] 	13757
scalar tree_4_3_u08_r20_network.node[14].core_layer 	data[14] 	9562
scalar tree_4_3_u08_r20_network.node[14].content_store 	p_hit[14] 	0.30493566911391
scalar tree_4_3_u08_r20_network.node[14].content_store 	hits[14] 	4195
scalar tree_4_3_u08_r20_network.node[14].content_store 	misses[14] 	9562
scalar tree_4_3_u08_r20_network.node[14].content_store 	decision_yes[14] 	984
scalar tree_4_3_u08_r20_network.node[14].content_store 	decision_no[14] 	8578
scalar tree_4_3_u08_r20_network.node[14].content_store 	decision_ratio[14] 	0.10290734156034
scalar tree_4_3_u08_r20_network.node[15].core_layer 	interests[15] 	13724
scalar tree_4_3_u08_r20_network.node[15].core_layer 	data[15] 	9755
scalar tree_4_3_u08_r20_network.node[15].content_store 	p_hit[15] 	0.28920139900904
scalar tree_4_3_u08_r20_network.node[15].content_store 	hits[15] 	3969
scalar tree_4_3_u08_r20_network.node[15].content_store 	misses[15] 	9755
scalar tree_4_3_u08_r20_network.node[15].content_store 	decision_yes[15] 	953
scalar tree_4_3_u08_r20_network.node[15].content_store 	decision_no[15] 	8802
scalar tree_4_3_u08_r20_network.node[15].content_store 	decision_ratio[15] 	0.097693490517683
scalar tree_4_3_u08_r20_network.node[16].core_layer 	interests[16] 	13940
scalar tree_4_3_u08_r20_network.node[16].core_layer 	data[16] 	9430
scalar tree_4_3_u08_r20_network.node[16].content_store 	p_hit[16] 	0.32352941176471
scalar tree_4_3_u08_r20_network.node[16].content_store 	hits[16] 	4510
scalar tree_4_3_u08_r20_network.node[16].content_store 	misses[16] 	9430
scalar tree_4_3_u08_r20_network.node[16].content_store 	decision_yes[16] 	941
scalar tree_4_3_u08_r20_network.node[16].content_store 	decision_no[16] 	8489
scalar tree_4_3_u08_r20_network.node[16].content_store 	decision_ratio[16] 	0.099787910922587
scalar tree_4_3_u08_r20_network.node[17].core_layer 	interests[17] 	13391
scalar tree_4_3_u08_r20_network.node[17].core_layer 	data[17] 	9721
scalar tree_4_3_u08_r20_network.node[17].content_store 	p_hit[17] 	0.27406467030095
scalar tree_4_3_u08_r20_network.node[17].content_store 	hits[17] 	3670
scalar tree_4_3_u08_r20_network.node[17].content_store 	misses[17] 	9721
scalar tree_4_3_u08_r20_network.node[17].content_store 	decision_yes[17] 	954
scalar tree_4_3_u08_r20_network.node[17].content_store 	decision_no[17] 	8767
scalar tree_4_3_u08_r20_network.node[17].content_store 	decision_ratio[17] 	0.098138051640778
scalar tree_4_3_u08_r20_network.node[18].core_layer 	interests[18] 	13779
scalar tree_4_3_u08_r20_network.node[18].core_layer 	data[18] 	9618
scalar tree_4_3_u08_r20_network.node[18].content_store 	p_hit[18] 	0.30190870164743
scalar tree_4_3_u08_r20_network.node[18].content_store 	hits[18] 	4160
scalar tree_4_3_u08_r20_network.node[18].content_store 	misses[18] 	9619
scalar tree_4_3_u08_r20_network.node[18].content_store 	decision_yes[18] 	911
scalar tree_4_3_u08_r20_network.node[18].content_store 	decision_no[18] 	8707
scalar tree_4_3_u08_r20_network.node[18].content_store 	decision_ratio[18] 	0.094718236639634
scalar tree_4_3_u08_r20_network.node[19].core_layer 	interests[19] 	13675
scalar tree_4_3_u08_r20_network.node[19].core_layer 	data[19] 	9542
scalar tree_4_3_u08_r20_network.node[19].content_store 	p_hit[19] 	0.30223034734918
scalar tree_4_3_u08_r20_network.node[19].content_store 	hits[19] 	4133
scalar tree_4_3_u08_r20_network.node[19].content_store 	misses[19] 	9542
scalar tree_4_3_u08_r20_network.node[19].content_store 	decision_yes[19] 	928
scalar tree_4_3_u08_r20_network.node[19].content_store 	decision_no[19] 	8614
scalar tree_4_3_u08_r20_network.node[19].content_store 	decision_ratio[19] 	0.097254244393209
scalar tree_4_3_u08_r20_network.node[20].core_layer 	interests[20] 	13858
scalar tree_4_3_u08_r20_network.node[20].core_layer 	data[20] 	9635
scalar tree_4_3_u08_r20_network.node[20].content_store 	p_hit[20] 	0.30473372781065
scalar tree_4_3_u08_r20_network.node[20].content_store 	hits[20] 	4223
scalar tree_4_3_u08_r20_network.node[20].content_store 	misses[20] 	9635
scalar tree_4_3_u08_r20_network.node[20].content_store 	decision_yes[20] 	954
scalar tree_4_3_u08_r20_network.node[20].content_store 	decision_no[20] 	8681
scalar tree_4_3_u08_r20_network.node[20].content_store 	decision_ratio[20] 	0.09901401141671
scalar tree_4_3_u08_r20_network.node[21].core_layer 	interests[21] 	12781
scalar tree_4_3_u08_r20_network.node[21].core_layer 	data[21] 	9520
scalar tree_4_3_u08_r20_network.node[21].content_store 	p_hit[21] 	0.25506611376262
scalar tree_4_3_u08_r20_network.node[21].content_store 	hits[21] 	3260
scalar tree_4_3_u08_r20_network.node[21].content_store 	misses[21] 	9521
scalar tree_4_3_u08_r20_network.node[21].content_store 	decision_yes[21] 	944
scalar tree_4_3_u08_r20_network.node[21].content_store 	decision_no[21] 	8576
scalar tree_4_3_u08_r20_network.node[21].content_store 	decision_ratio[21] 	0.099159663865546
scalar tree_4_3_u08_r20_network.node[22].core_layer 	interests[22] 	13368
scalar tree_4_3_u08_r20_network.node[22].core_layer 	data[22] 	9752
scalar tree_4_3_u08_r20_network.node[22].content_store 	p_hit[22] 	0.27034709754638
scalar tree_4_3_u08_r20_network.node[22].content_store 	hits[22] 	3614
scalar tree_4_3_u08_r20_network.node[22].content_store 	misses[22] 	9754
scalar tree_4_3_u08_r20_network.node[22].content_store 	decision_yes[22] 	971
scalar tree_4_3_u08_r20_network.node[22].content_store 	decision_no[22] 	8781
scalar tree_4_3_u08_r20_network.node[22].content_store 	decision_ratio[22] 	0.099569319114028
scalar tree_4_3_u08_r20_network.node[23].core_layer 	interests[23] 	14029
scalar tree_4_3_u08_r20_network.node[23].core_layer 	data[23] 	9648
scalar tree_4_3_u08_r20_network.node[23].content_store 	p_hit[23] 	0.31213914035213
scalar tree_4_3_u08_r20_network.node[23].content_store 	hits[23] 	4379
scalar tree_4_3_u08_r20_network.node[23].content_store 	misses[23] 	9650
scalar tree_4_3_u08_r20_network.node[23].content_store 	decision_yes[23] 	981
scalar tree_4_3_u08_r20_network.node[23].content_store 	decision_no[23] 	8667
scalar tree_4_3_u08_r20_network.node[23].content_store 	decision_ratio[23] 	0.10167910447761
scalar tree_4_3_u08_r20_network.node[24].core_layer 	interests[24] 	14124
scalar tree_4_3_u08_r20_network.node[24].core_layer 	data[24] 	9721
scalar tree_4_3_u08_r20_network.node[24].content_store 	p_hit[24] 	0.31173888416879
scalar tree_4_3_u08_r20_network.node[24].content_store 	hits[24] 	4403
scalar tree_4_3_u08_r20_network.node[24].content_store 	misses[24] 	9721
scalar tree_4_3_u08_r20_network.node[24].content_store 	decision_yes[24] 	967
scalar tree_4_3_u08_r20_network.node[24].content_store 	decision_no[24] 	8754
scalar tree_4_3_u08_r20_network.node[24].content_store 	decision_ratio[24] 	0.099475362617015
scalar tree_4_3_u08_r20_network.node[25].core_layer 	interests[25] 	12999
scalar tree_4_3_u08_r20_network.node[25].core_layer 	data[25] 	9576
scalar tree_4_3_u08_r20_network.node[25].content_store 	p_hit[25] 	0.26332794830372
scalar tree_4_3_u08_r20_network.node[25].content_store 	hits[25] 	3423
scalar tree_4_3_u08_r20_network.node[25].content_store 	misses[25] 	9576
scalar tree_4_3_u08_r20_network.node[25].content_store 	decision_yes[25] 	978
scalar tree_4_3_u08_r20_network.node[25].content_store 	decision_no[25] 	8598
scalar tree_4_3_u08_r20_network.node[25].content_store 	decision_ratio[25] 	0.10213032581454
scalar tree_4_3_u08_r20_network.node[26].core_layer 	interests[26] 	13086
scalar tree_4_3_u08_r20_network.node[26].core_layer 	data[26] 	9481
scalar tree_4_3_u08_r20_network.node[26].content_store 	p_hit[26] 	0.27540883386826
scalar tree_4_3_u08_r20_network.node[26].content_store 	hits[26] 	3604
scalar tree_4_3_u08_r20_network.node[26].content_store 	misses[26] 	9482
scalar tree_4_3_u08_r20_network.node[26].content_store 	decision_yes[26] 	982
scalar tree_4_3_u08_r20_network.node[26].content_store 	decision_no[26] 	8499
scalar tree_4_3_u08_r20_network.node[26].content_store 	decision_ratio[26] 	0.10357557219703
scalar tree_4_3_u08_r20_network.node[27].core_layer 	interests[27] 	14026
scalar tree_4_3_u08_r20_network.node[27].core_layer 	data[27] 	9574
scalar tree_4_3_u08_r20_network.node[27].content_store 	p_hit[27] 	0.31741052331385
scalar tree_4_3_u08_r20_network.node[27].content_store 	hits[27] 	4452
scalar tree_4_3_u08_r20_network.node[27].content_store 	misses[27] 	9574
scalar tree_4_3_u08_r20_network.node[27].content_store 	decision_yes[27] 	961
scalar tree_4_3_u08_r20_network.node[27].content_store 	decision_no[27] 	8613
scalar tree_4_3_u08_r20_network.node[27].content_store 	decision_ratio[27] 	0.10037601838312
scalar tree_4_3_u08_r20_network.node[28].core_layer 	interests[28] 	14227
scalar tree_4_3_u08_r20_network.node[28].core_layer 	data[28] 	9593
scalar tree_4_3_u08_r20_network.node[28].content_store 	p_hit[28] 	0.32571870387292
scalar tree_4_3_u08_r20_network.node[28].content_store 	hits[28] 	4634
scalar tree_4_3_u08_r20_network.node[28].content_store 	misses[28] 	9593
scalar tree_4_3_u08_r20_network.node[28].content_store 	decision_yes[28] 	934
scalar tree_4_3_u08_r20_network.node[28].content_store 	decision_no[28] 	8659
scalar tree_4_3_u08_r20_network.node[28].content_store 	decision_ratio[28] 	0.097362660273116
scalar tree_4_3_u08_r20_network.node[29].core_layer 	interests[29] 	14059
scalar tree_4_3_u08_r20_network.node[29].core_layer 	data[29] 	9547
scalar tree_4_3_u08_r20_network.node[29].content_store 	p_hit[29] 	0.32093321004339
scalar tree_4_3_u08_r20_network.node[29].content_store 	hits[29] 	4512
scalar tree_4_3_u08_r20_network.node[29].content_store 	misses[29] 	9547
scalar tree_4_3_u08_r20_network.node[29].content_store 	decision_yes[29] 	934
scalar tree_4_3_u08_r20_network.node[29].content_store 	decision_no[29] 	8613
scalar tree_4_3_u08_r20_network.node[29].content_store 	decision_ratio[29] 	0.097831779616634
scalar tree_4_3_u08_r20_network.node[30].core_layer 	interests[30] 	13264
scalar tree_4_3_u08_r20_network.node[30].core_layer 	data[30] 	9700
scalar tree_4_3_u08_r20_network.node[30].content_store 	p_hit[30] 	0.26869722557298
scalar tree_4_3_u08_r20_network.node[30].content_store 	hits[30] 	3564
scalar tree_4_3_u08_r20_network.node[30].content_store 	misses[30] 	9700
scalar tree_4_3_u08_r20_network.node[30].content_store 	decision_yes[30] 	1013
scalar tree_4_3_u08_r20_network.node[30].content_store 	decision_no[30] 	8687
scalar tree_4_3_u08_r20_network.node[30].content_store 	decision_ratio[30] 	0.10443298969072
scalar tree_4_3_u08_r20_network.node[31].core_layer 	interests[31] 	13487
scalar tree_4_3_u08_r20_network.node[31].core_layer 	data[31] 	9538
scalar tree_4_3_u08_r20_network.node[31].content_store 	p_hit[31] 	0.29287462000445
scalar tree_4_3_u08_r20_network.node[31].content_store 	hits[31] 	3950
scalar tree_4_3_u08_r20_network.node[31].content_store 	misses[31] 	9537
scalar tree_4_3_u08_r20_network.node[31].content_store 	decision_yes[31] 	928
scalar tree_4_3_u08_r20_network.node[31].content_store 	decision_no[31] 	8610
scalar tree_4_3_u08_r20_network.node[31].content_store 	decision_ratio[31] 	0.097295030404697
scalar tree_4_3_u08_r20_network.node[32].core_layer 	interests[32] 	14032
scalar tree_4_3_u08_r20_network.node[32].core_layer 	data[32] 	9597
scalar tree_4_3_u08_r20_network.node[32].content_store 	p_hit[32] 	0.31606328392246
scalar tree_4_3_u08_r20_network.node[32].content_store 	hits[32] 	4435
scalar tree_4_3_u08_r20_network.node[32].content_store 	misses[32] 	9597
scalar tree_4_3_u08_r20_network.node[32].content_store 	decision_yes[32] 	959
scalar tree_4_3_u08_r20_network.node[32].content_store 	decision_no[32] 	8638
scalar tree_4_3_u08_r20_network.node[32].content_store 	decision_ratio[32] 	0.099927060539752
scalar tree_4_3_u08_r20_network.node[33].core_layer 	interests[33] 	14304
scalar tree_4_3_u08_r20_network.node[33].core_layer 	data[33] 	9434
scalar tree_4_3_u08_r20_network.node[33].content_store 	p_hit[33] 	0.34039429530201
scalar tree_4_3_u08_r20_network.node[33].content_store 	hits[33] 	4869
scalar tree_4_3_u08_r20_network.node[33].content_store 	misses[33] 	9435
scalar tree_4_3_u08_r20_network.node[33].content_store 	decision_yes[33] 	904
scalar tree_4_3_u08_r20_network.node[33].content_store 	decision_no[33] 	8530
scalar tree_4_3_u08_r20_network.node[33].content_store 	decision_ratio[33] 	0.095823616705533
scalar tree_4_3_u08_r20_network.node[34].core_layer 	interests[34] 	14029
scalar tree_4_3_u08_r20_network.node[34].core_layer 	data[34] 	9590
scalar tree_4_3_u08_r20_network.node[34].content_store 	p_hit[34] 	0.31648727635612
scalar tree_4_3_u08_r20_network.node[34].content_store 	hits[34] 	4440
scalar tree_4_3_u08_r20_network.node[34].content_store 	misses[34] 	9589
scalar tree_4_3_u08_r20_network.node[34].content_store 	decision_yes[34] 	984
scalar tree_4_3_u08_r20_network.node[34].content_store 	decision_no[34] 	8606
scalar tree_4_3_u08_r20_network.node[34].content_store 	decision_ratio[34] 	0.10260688216893
scalar tree_4_3_u08_r20_network.node[35].core_layer 	interests[35] 	13158
scalar tree_4_3_u08_r20_network.node[35].core_layer 	data[35] 	9580
scalar tree_4_3_u08_r20_network.node[35].content_store 	p_hit[35] 	0.2719258245934
scalar tree_4_3_u08_r20_network.node[35].content_store 	hits[35] 	3578
scalar tree_4_3_u08_r20_network.node[35].content_store 	misses[35] 	9580
scalar tree_4_3_u08_r20_network.node[35].content_store 	decision_yes[35] 	930
scalar tree_4_3_u08_r20_network.node[35].content_store 	decision_no[35] 	8650
scalar tree_4_3_u08_r20_network.node[35].content_store 	decision_ratio[35] 	0.097077244258873
scalar tree_4_3_u08_r20_network.node[36].core_layer 	interests[36] 	14245
scalar tree_4_3_u08_r20_network.node[36].core_layer 	data[36] 	9635
scalar tree_4_3_u08_r20_network.node[36].content_store 	p_hit[36] 	0.32362232362232
scalar tree_4_3_u08_r20_network.node[36].content_store 	hits[36] 	4610
scalar tree_4_3_u08_r20_network.node[36].content_store 	misses[36] 	9635
scalar tree_4_3_u08_r20_network.node[36].content_store 	decision_yes[36] 	980
scalar tree_4_3_u08_r20_network.node[36].content_store 	decision_no[36] 	8655
scalar tree_4_3_u08_r20_network.node[36].content_store 	decision_ratio[36] 	0.10171250648677
scalar tree_4_3_u08_r20_network.node[37].core_layer 	interests[37] 	13035
scalar tree_4_3_u08_r20_network.node[37].core_layer 	data[37] 	9501
scalar tree_4_3_u08_r20_network.node[37].content_store 	p_hit[37] 	0.27111622554661
scalar tree_4_3_u08_r20_network.node[37].content_store 	hits[37] 	3534
scalar tree_4_3_u08_r20_network.node[37].content_store 	misses[37] 	9501
scalar tree_4_3_u08_r20_network.node[37].content_store 	decision_yes[37] 	907
scalar tree_4_3_u08_r20_network.node[37].content_store 	decision_no[37] 	8594
scalar tree_4_3_u08_r20_network.node[37].content_store 	decision_ratio[37] 	0.095463635406799
scalar tree_4_3_u08_r20_network.node[38].core_layer 	interests[38] 	12981
scalar tree_4_3_u08_r20_network.node[38].core_layer 	data[38] 	9616
scalar tree_4_3_u08_r20_network.node[38].content_store 	p_hit[38] 	0.25922502118481
scalar tree_4_3_u08_r20_network.node[38].content_store 	hits[38] 	3365
scalar tree_4_3_u08_r20_network.node[38].content_store 	misses[38] 	9616
scalar tree_4_3_u08_r20_network.node[38].content_store 	decision_yes[38] 	944
scalar tree_4_3_u08_r20_network.node[38].content_store 	decision_no[38] 	8672
scalar tree_4_3_u08_r20_network.node[38].content_store 	decision_ratio[38] 	0.098169717138103
scalar tree_4_3_u08_r20_network.node[39].core_layer 	interests[39] 	12970
scalar tree_4_3_u08_r20_network.node[39].core_layer 	data[39] 	9560
scalar tree_4_3_u08_r20_network.node[39].content_store 	p_hit[39] 	0.26291441788743
scalar tree_4_3_u08_r20_network.node[39].content_store 	hits[39] 	3410
scalar tree_4_3_u08_r20_network.node[39].content_store 	misses[39] 	9560
scalar tree_4_3_u08_r20_network.node[39].content_store 	decision_yes[39] 	925
scalar tree_4_3_u08_r20_network.node[39].content_store 	decision_no[39] 	8635
scalar tree_4_3_u08_r20_network.node[39].content_store 	decision_ratio[39] 	0.096757322175732
scalar tree_4_3_u08_r20_network.client[13] 	hdistance[13] 	2.9077215923198
scalar tree_4_3_u08_r20_network.client[13] 	downloads[13] 	12083
scalar tree_4_3_u08_r20_network.client[13] 	avg_time[13] 	0.004634408035
scalar tree_4_3_u08_r20_network.client[14] 	hdistance[14] 	2.7796140939597
scalar tree_4_3_u08_r20_network.client[14] 	downloads[14] 	11920
scalar tree_4_3_u08_r20_network.client[14] 	avg_time[14] 	0.004463419846
scalar tree_4_3_u08_r20_network.client[15] 	hdistance[15] 	2.7907433150707
scalar tree_4_3_u08_r20_network.client[15] 	downloads[15] 	12229
scalar tree_4_3_u08_r20_network.client[15] 	avg_time[15] 	0.004408370475
scalar tree_4_3_u08_r20_network.client[16] 	hdistance[16] 	2.753762541806
scalar tree_4_3_u08_r20_network.client[16] 	downloads[16] 	11960
scalar tree_4_3_u08_r20_network.client[16] 	avg_time[16] 	0.004408358207
scalar tree_4_3_u08_r20_network.client[17] 	hdistance[17] 	2.8594599044953
scalar tree_4_3_u08_r20_network.client[17] 	downloads[17] 	12146
scalar tree_4_3_u08_r20_network.client[17] 	avg_time[17] 	0.00460628709
scalar tree_4_3_u08_r20_network.client[18] 	hdistance[18] 	2.7432387312187
scalar tree_4_3_u08_r20_network.client[18] 	downloads[18] 	11980
scalar tree_4_3_u08_r20_network.client[18] 	avg_time[18] 	0.004387128864
scalar tree_4_3_u08_r20_network.client[19] 	hdistance[19] 	2.7818046110466
scalar tree_4_3_u08_r20_network.client[19] 	downloads[19] 	12058
scalar tree_4_3_u08_r20_network.client[19] 	avg_time[19] 	0.004389202766
scalar tree_4_3_u08_r20_network.client[20] 	hdistance[20] 	2.7369559790297
scalar tree_4_3_u08_r20_network.client[20] 	downloads[20] 	12017
scalar tree_4_3_u08_r20_network.client[20] 	avg_time[20] 	0.004372469343
scalar tree_4_3_u08_r20_network.client[21] 	hdistance[21] 	2.8522917363667
scalar tree_4_3_u08_r20_network.client[21] 	downloads[21] 	11956
scalar tree_4_3_u08_r20_network.client[21] 	avg_time[21] 	0.004533620307
scalar tree_4_3_u08_r20_network.client[22] 	hdistance[22] 	2.8869874338624
scalar tree_4_3_u08_r20_network.client[22] 	downloads[22] 	12096
scalar tree_4_3_u08_r20_network.client[22] 	avg_time[22] 	0.004672666953
scalar tree_4_3_u08_r20_network.client[23] 	hdistance[23] 	2.792042042042
scalar tree_4_3_u08_r20_network.client[23] 	downloads[23] 	11988
scalar tree_4_3_u08_r20_network.client[23] 	avg_time[23] 	0.004478164479
scalar tree_4_3_u08_r20_network.client[24] 	hdistance[24] 	2.762002969807
scalar tree_4_3_u08_r20_network.client[24] 	downloads[24] 	12122
scalar tree_4_3_u08_r20_network.client[24] 	avg_time[24] 	0.004439858369
scalar tree_4_3_u08_r20_network.client[25] 	hdistance[25] 	2.8734272143988
scalar tree_4_3_u08_r20_network.client[25] 	downloads[25] 	12001
scalar tree_4_3_u08_r20_network.client[25] 	avg_time[25] 	0.004593614188
scalar tree_4_3_u08_r20_network.client[26] 	hdistance[26] 	2.8297942658845
scalar tree_4_3_u08_r20_network.client[26] 	downloads[26] 	12103
scalar tree_4_3_u08_r20_network.client[26] 	avg_time[26] 	0.004520278888
scalar tree_4_3_u08_r20_network.client[27] 	hdistance[27] 	2.7460014916715
scalar tree_4_3_u08_r20_network.client[27] 	downloads[27] 	12067
scalar tree_4_3_u08_r20_network.client[27] 	avg_time[27] 	0.004372914845
scalar tree_4_3_u08_r20_network.client[28] 	hdistance[28] 	2.7337458745874
scalar tree_4_3_u08_r20_network.client[28] 	downloads[28] 	12120
scalar tree_4_3_u08_r20_network.client[28] 	avg_time[28] 	0.004389160186
scalar tree_4_3_u08_r20_network.client[29] 	hdistance[29] 	2.7307946472824
scalar tree_4_3_u08_r20_network.client[29] 	downloads[29] 	12106
scalar tree_4_3_u08_r20_network.client[29] 	avg_time[29] 	0.004354242954
scalar tree_4_3_u08_r20_network.client[30] 	hdistance[30] 	2.8259005852774
scalar tree_4_3_u08_r20_network.client[30] 	downloads[30] 	12131
scalar tree_4_3_u08_r20_network.client[30] 	avg_time[30] 	0.004533176419
scalar tree_4_3_u08_r20_network.client[31] 	hdistance[31] 	2.8409788469515
scalar tree_4_3_u08_r20_network.client[31] 	downloads[31] 	12055
scalar tree_4_3_u08_r20_network.client[31] 	avg_time[31] 	0.004581664336
scalar tree_4_3_u08_r20_network.client[32] 	hdistance[32] 	2.781406615436
scalar tree_4_3_u08_r20_network.client[32] 	downloads[32] 	11972
scalar tree_4_3_u08_r20_network.client[32] 	avg_time[32] 	0.004477804823
scalar tree_4_3_u08_r20_network.client[33] 	hdistance[33] 	2.7537432036805
scalar tree_4_3_u08_r20_network.client[33] 	downloads[33] 	11955
scalar tree_4_3_u08_r20_network.client[33] 	avg_time[33] 	0.004413369724
scalar tree_4_3_u08_r20_network.client[34] 	hdistance[34] 	2.7567410603169
scalar tree_4_3_u08_r20_network.client[34] 	downloads[34] 	12053
scalar tree_4_3_u08_r20_network.client[34] 	avg_time[34] 	0.004436177687
scalar tree_4_3_u08_r20_network.client[35] 	hdistance[35] 	2.8391159299416
scalar tree_4_3_u08_r20_network.client[35] 	downloads[35] 	11990
scalar tree_4_3_u08_r20_network.client[35] 	avg_time[35] 	0.004585484922
scalar tree_4_3_u08_r20_network.client[36] 	hdistance[36] 	2.7553938993139
scalar tree_4_3_u08_r20_network.client[36] 	downloads[36] 	12097
scalar tree_4_3_u08_r20_network.client[36] 	avg_time[36] 	0.004399269525
scalar tree_4_3_u08_r20_network.client[37] 	hdistance[37] 	2.8731163100491
scalar tree_4_3_u08_r20_network.client[37] 	downloads[37] 	12011
scalar tree_4_3_u08_r20_network.client[37] 	avg_time[37] 	0.004538336816
scalar tree_4_3_u08_r20_network.client[38] 	hdistance[38] 	2.8901902151341
scalar tree_4_3_u08_r20_network.client[38] 	downloads[38] 	12039
scalar tree_4_3_u08_r20_network.client[38] 	avg_time[38] 	0.004575127813
scalar tree_4_3_u08_r20_network.client[39] 	hdistance[39] 	2.8643333333333
scalar tree_4_3_u08_r20_network.client[39] 	downloads[39] 	12000
scalar tree_4_3_u08_r20_network.client[39] 	avg_time[39] 	0.004540330338
