version 2
run General-169-20160819-09:40:17-13837
attr a 0.9
attr cd fix0.1
attr configname General
attr cr lru
attr datetime 20160819-09:40:17
attr experiment General
attr fsize 1
attr inifile hw5115/scenario_A/NRR-FIX0.1.ini
attr iterationvars "$name=tree_4_3, $un=08, $rep=10, $cd=fix0.1, $cr=lru, $fsize=1, $a=0.9, $sl=nrr, $ttl=1000, $variance=0.05"
attr iterationvars2 "$name=tree_4_3, $un=08, $rep=10, $cd=fix0.1, $cr=lru, $fsize=1, $a=0.9, $sl=nrr, $ttl=1000, $variance=0.05, $repetition=0"
attr measurement "$name=tree_4_3, $un=08, $rep=10, $cd=fix0.1, $cr=lru, $fsize=1, $a=0.9, $sl=nrr, $ttl=1000, $variance=0.05"
attr name tree_4_3
attr network networks.${name}_u${un}_r${rep}_network
attr processid 13837
attr rep 10
attr repetition 0
attr replication #0
attr resultdir results
attr runnumber 169
attr seedset 10
attr sl nrr
attr ttl 1000
attr un 08
attr variance 0.05

scalar . 	a 	0.9
scalar . 	fsize 	1
scalar . 	rep 	10
scalar . 	ttl 	1000
scalar . 	un 	08
scalar . 	variance 	0.05
scalar tree_4_3_u08_r10_network.content_distribution 	repo-0 	0
scalar tree_4_3_u08_r10_network.content_distribution 	client-0 	13
scalar tree_4_3_u08_r10_network.content_distribution 	client-1 	14
scalar tree_4_3_u08_r10_network.content_distribution 	client-2 	15
scalar tree_4_3_u08_r10_network.content_distribution 	client-3 	16
scalar tree_4_3_u08_r10_network.content_distribution 	client-4 	17
scalar tree_4_3_u08_r10_network.content_distribution 	client-5 	18
scalar tree_4_3_u08_r10_network.content_distribution 	client-6 	19
scalar tree_4_3_u08_r10_network.content_distribution 	client-7 	20
scalar tree_4_3_u08_r10_network.content_distribution 	client-8 	21
scalar tree_4_3_u08_r10_network.content_distribution 	client-9 	22
scalar tree_4_3_u08_r10_network.content_distribution 	client-10 	23
scalar tree_4_3_u08_r10_network.content_distribution 	client-11 	24
scalar tree_4_3_u08_r10_network.content_distribution 	client-12 	25
scalar tree_4_3_u08_r10_network.content_distribution 	client-13 	26
scalar tree_4_3_u08_r10_network.content_distribution 	client-14 	27
scalar tree_4_3_u08_r10_network.content_distribution 	client-15 	28
scalar tree_4_3_u08_r10_network.content_distribution 	client-16 	29
scalar tree_4_3_u08_r10_network.content_distribution 	client-17 	30
scalar tree_4_3_u08_r10_network.content_distribution 	client-18 	31
scalar tree_4_3_u08_r10_network.content_distribution 	client-19 	32
scalar tree_4_3_u08_r10_network.content_distribution 	client-20 	33
scalar tree_4_3_u08_r10_network.content_distribution 	client-21 	34
scalar tree_4_3_u08_r10_network.content_distribution 	client-22 	35
scalar tree_4_3_u08_r10_network.content_distribution 	client-23 	36
scalar tree_4_3_u08_r10_network.content_distribution 	client-24 	37
scalar tree_4_3_u08_r10_network.content_distribution 	client-25 	38
scalar tree_4_3_u08_r10_network.content_distribution 	client-26 	39
scalar tree_4_3_u08_r10_network.content_distribution 	repo-0_card 	100000
scalar tree_4_3_u08_r10_network.content_distribution 	repo-0_price 	0
scalar tree_4_3_u08_r10_network.statistics 	stabilization_time 	650.2
scalar tree_4_3_u08_r10_network.statistics 	p_hit 	0.23352134643174
scalar tree_4_3_u08_r10_network.statistics 	interests 	26304.475
scalar tree_4_3_u08_r10_network.statistics 	data 	18179.975
scalar tree_4_3_u08_r10_network.statistics 	hdistance 	2.795585499581
scalar tree_4_3_u08_r10_network.statistics 	avg_time 	0.004475207844
scalar tree_4_3_u08_r10_network.statistics 	downloads 	324976
scalar tree_4_3_u08_r10_network.statistics 	total_cost 	0
scalar tree_4_3_u08_r10_network.statistics 	total_replicas 	100000
scalar tree_4_3_u08_r10_network.statistics 	inner_hit 	0.44204802816208
scalar tree_4_3_u08_r10_network.node[0].core_layer 	interests[0] 	182308
scalar tree_4_3_u08_r10_network.node[0].core_layer 	repo_load[0] 	181321
scalar tree_4_3_u08_r10_network.node[0].core_layer 	data[0] 	0
scalar tree_4_3_u08_r10_network.node[0].core_layer 	repo_int[0] 	181321
scalar tree_4_3_u08_r10_network.node[0].content_store 	p_hit[0] 	0.0054139149132238
scalar tree_4_3_u08_r10_network.node[0].content_store 	hits[0] 	987
scalar tree_4_3_u08_r10_network.node[0].content_store 	misses[0] 	181321
scalar tree_4_3_u08_r10_network.node[0].content_store 	decision_yes[0] 	17959
scalar tree_4_3_u08_r10_network.node[0].content_store 	decision_no[0] 	163362
scalar tree_4_3_u08_r10_network.node[0].content_store 	decision_ratio[0] 	0.09904533948081
scalar tree_4_3_u08_r10_network.node[1].core_layer 	interests[1] 	102950
scalar tree_4_3_u08_r10_network.node[1].core_layer 	data[1] 	102108
scalar tree_4_3_u08_r10_network.node[1].content_store 	p_hit[1] 	0.0081787275376396
scalar tree_4_3_u08_r10_network.node[1].content_store 	hits[1] 	842
scalar tree_4_3_u08_r10_network.node[1].content_store 	misses[1] 	102108
scalar tree_4_3_u08_r10_network.node[1].content_store 	decision_yes[1] 	10095
scalar tree_4_3_u08_r10_network.node[1].content_store 	decision_no[1] 	92013
scalar tree_4_3_u08_r10_network.node[1].content_store 	decision_ratio[1] 	0.098865906687037
scalar tree_4_3_u08_r10_network.node[2].core_layer 	interests[2] 	95620
scalar tree_4_3_u08_r10_network.node[2].core_layer 	data[2] 	94248
scalar tree_4_3_u08_r10_network.node[2].content_store 	p_hit[2] 	0.014348462664714
scalar tree_4_3_u08_r10_network.node[2].content_store 	hits[2] 	1372
scalar tree_4_3_u08_r10_network.node[2].content_store 	misses[2] 	94248
scalar tree_4_3_u08_r10_network.node[2].content_store 	decision_yes[2] 	9618
scalar tree_4_3_u08_r10_network.node[2].content_store 	decision_no[2] 	84627
scalar tree_4_3_u08_r10_network.node[2].content_store 	decision_ratio[2] 	0.1020531593188
scalar tree_4_3_u08_r10_network.node[3].core_layer 	interests[3] 	17684
scalar tree_4_3_u08_r10_network.node[3].core_layer 	data[3] 	13832
scalar tree_4_3_u08_r10_network.node[3].content_store 	p_hit[3] 	0.21782402171454
scalar tree_4_3_u08_r10_network.node[3].content_store 	hits[3] 	3852
scalar tree_4_3_u08_r10_network.node[3].content_store 	misses[3] 	13832
scalar tree_4_3_u08_r10_network.node[3].content_store 	decision_yes[3] 	1408
scalar tree_4_3_u08_r10_network.node[3].content_store 	decision_no[3] 	12424
scalar tree_4_3_u08_r10_network.node[3].content_store 	decision_ratio[3] 	0.10179294389821
scalar tree_4_3_u08_r10_network.node[4].core_layer 	interests[4] 	44988
scalar tree_4_3_u08_r10_network.node[4].core_layer 	data[4] 	43210
scalar tree_4_3_u08_r10_network.node[4].content_store 	p_hit[4] 	0.039521650217836
scalar tree_4_3_u08_r10_network.node[4].content_store 	hits[4] 	1778
scalar tree_4_3_u08_r10_network.node[4].content_store 	misses[4] 	43210
scalar tree_4_3_u08_r10_network.node[4].content_store 	decision_yes[4] 	4404
scalar tree_4_3_u08_r10_network.node[4].content_store 	decision_no[4] 	38806
scalar tree_4_3_u08_r10_network.node[4].content_store 	decision_ratio[4] 	0.10192085165471
scalar tree_4_3_u08_r10_network.node[5].core_layer 	interests[5] 	36563
scalar tree_4_3_u08_r10_network.node[5].core_layer 	data[5] 	32716
scalar tree_4_3_u08_r10_network.node[5].content_store 	p_hit[5] 	0.10516095506386
scalar tree_4_3_u08_r10_network.node[5].content_store 	hits[5] 	3845
scalar tree_4_3_u08_r10_network.node[5].content_store 	misses[5] 	32718
scalar tree_4_3_u08_r10_network.node[5].content_store 	decision_yes[5] 	3159
scalar tree_4_3_u08_r10_network.node[5].content_store 	decision_no[5] 	29557
scalar tree_4_3_u08_r10_network.node[5].content_store 	decision_ratio[5] 	0.096558258955863
scalar tree_4_3_u08_r10_network.node[6].core_layer 	interests[6] 	15197
scalar tree_4_3_u08_r10_network.node[6].core_layer 	data[6] 	11508
scalar tree_4_3_u08_r10_network.node[6].content_store 	p_hit[6] 	0.24267947621241
scalar tree_4_3_u08_r10_network.node[6].content_store 	hits[6] 	3688
scalar tree_4_3_u08_r10_network.node[6].content_store 	misses[6] 	11509
scalar tree_4_3_u08_r10_network.node[6].content_store 	decision_yes[6] 	1120
scalar tree_4_3_u08_r10_network.node[6].content_store 	decision_no[6] 	10388
scalar tree_4_3_u08_r10_network.node[6].content_store 	decision_ratio[6] 	0.097323600973236
scalar tree_4_3_u08_r10_network.node[7].core_layer 	interests[7] 	45756
scalar tree_4_3_u08_r10_network.node[7].core_layer 	data[7] 	43796
scalar tree_4_3_u08_r10_network.node[7].content_store 	p_hit[7] 	0.04281405717283
scalar tree_4_3_u08_r10_network.node[7].content_store 	hits[7] 	1959
scalar tree_4_3_u08_r10_network.node[7].content_store 	misses[7] 	43797
scalar tree_4_3_u08_r10_network.node[7].content_store 	decision_yes[7] 	4513
scalar tree_4_3_u08_r10_network.node[7].content_store 	decision_no[7] 	39282
scalar tree_4_3_u08_r10_network.node[7].content_store 	decision_ratio[7] 	0.10304829318415
scalar tree_4_3_u08_r10_network.node[8].core_layer 	interests[8] 	20777
scalar tree_4_3_u08_r10_network.node[8].core_layer 	data[8] 	18109
scalar tree_4_3_u08_r10_network.node[8].content_store 	p_hit[8] 	0.12841122394956
scalar tree_4_3_u08_r10_network.node[8].content_store 	hits[8] 	2668
scalar tree_4_3_u08_r10_network.node[8].content_store 	misses[8] 	18109
scalar tree_4_3_u08_r10_network.node[8].content_store 	decision_yes[8] 	1801
scalar tree_4_3_u08_r10_network.node[8].content_store 	decision_no[8] 	16307
scalar tree_4_3_u08_r10_network.node[8].content_store 	decision_ratio[8] 	0.099458802739121
scalar tree_4_3_u08_r10_network.node[9].core_layer 	interests[9] 	28140
scalar tree_4_3_u08_r10_network.node[9].core_layer 	data[9] 	23685
scalar tree_4_3_u08_r10_network.node[9].content_store 	p_hit[9] 	0.15831556503198
scalar tree_4_3_u08_r10_network.node[9].content_store 	hits[9] 	4455
scalar tree_4_3_u08_r10_network.node[9].content_store 	misses[9] 	23685
scalar tree_4_3_u08_r10_network.node[9].content_store 	decision_yes[9] 	2347
scalar tree_4_3_u08_r10_network.node[9].content_store 	decision_no[9] 	21338
scalar tree_4_3_u08_r10_network.node[9].content_store 	decision_ratio[9] 	0.099092252480473
scalar tree_4_3_u08_r10_network.node[10].core_layer 	interests[10] 	47120
scalar tree_4_3_u08_r10_network.node[10].core_layer 	data[10] 	44740
scalar tree_4_3_u08_r10_network.node[10].content_store 	p_hit[10] 	0.050445670628183
scalar tree_4_3_u08_r10_network.node[10].content_store 	hits[10] 	2377
scalar tree_4_3_u08_r10_network.node[10].content_store 	misses[10] 	44743
scalar tree_4_3_u08_r10_network.node[10].content_store 	decision_yes[10] 	4422
scalar tree_4_3_u08_r10_network.node[10].content_store 	decision_no[10] 	40318
scalar tree_4_3_u08_r10_network.node[10].content_store 	decision_ratio[10] 	0.098837729101475
scalar tree_4_3_u08_r10_network.node[11].core_layer 	interests[11] 	32985
scalar tree_4_3_u08_r10_network.node[11].core_layer 	data[11] 	29776
scalar tree_4_3_u08_r10_network.node[11].content_store 	p_hit[11] 	0.097256328634228
scalar tree_4_3_u08_r10_network.node[11].content_store 	hits[11] 	3208
scalar tree_4_3_u08_r10_network.node[11].content_store 	misses[11] 	29777
scalar tree_4_3_u08_r10_network.node[11].content_store 	decision_yes[11] 	2926
scalar tree_4_3_u08_r10_network.node[11].content_store 	decision_no[11] 	26848
scalar tree_4_3_u08_r10_network.node[11].content_store 	decision_ratio[11] 	0.098273661583932
scalar tree_4_3_u08_r10_network.node[12].core_layer 	interests[12] 	15090
scalar tree_4_3_u08_r10_network.node[12].core_layer 	data[12] 	10734
scalar tree_4_3_u08_r10_network.node[12].content_store 	p_hit[12] 	0.28866799204771
scalar tree_4_3_u08_r10_network.node[12].content_store 	hits[12] 	4356
scalar tree_4_3_u08_r10_network.node[12].content_store 	misses[12] 	10734
scalar tree_4_3_u08_r10_network.node[12].content_store 	decision_yes[12] 	1040
scalar tree_4_3_u08_r10_network.node[12].content_store 	decision_no[12] 	9694
scalar tree_4_3_u08_r10_network.node[12].content_store 	decision_ratio[12] 	0.09688839202534
scalar tree_4_3_u08_r10_network.node[13].core_layer 	interests[13] 	13119
scalar tree_4_3_u08_r10_network.node[13].core_layer 	data[13] 	9567
scalar tree_4_3_u08_r10_network.node[13].content_store 	p_hit[13] 	0.27075234392865
scalar tree_4_3_u08_r10_network.node[13].content_store 	hits[13] 	3552
scalar tree_4_3_u08_r10_network.node[13].content_store 	misses[13] 	9567
scalar tree_4_3_u08_r10_network.node[13].content_store 	decision_yes[13] 	948
scalar tree_4_3_u08_r10_network.node[13].content_store 	decision_no[13] 	8619
scalar tree_4_3_u08_r10_network.node[13].content_store 	decision_ratio[13] 	0.099090624020069
scalar tree_4_3_u08_r10_network.node[14].core_layer 	interests[14] 	14370
scalar tree_4_3_u08_r10_network.node[14].core_layer 	data[14] 	9557
scalar tree_4_3_u08_r10_network.node[14].content_store 	p_hit[14] 	0.3348643006263
scalar tree_4_3_u08_r10_network.node[14].content_store 	hits[14] 	4812
scalar tree_4_3_u08_r10_network.node[14].content_store 	misses[14] 	9558
scalar tree_4_3_u08_r10_network.node[14].content_store 	decision_yes[14] 	938
scalar tree_4_3_u08_r10_network.node[14].content_store 	decision_no[14] 	8619
scalar tree_4_3_u08_r10_network.node[14].content_store 	decision_ratio[14] 	0.098147954378989
scalar tree_4_3_u08_r10_network.node[15].core_layer 	interests[15] 	13094
scalar tree_4_3_u08_r10_network.node[15].core_layer 	data[15] 	9667
scalar tree_4_3_u08_r10_network.node[15].content_store 	p_hit[15] 	0.26172292653124
scalar tree_4_3_u08_r10_network.node[15].content_store 	hits[15] 	3427
scalar tree_4_3_u08_r10_network.node[15].content_store 	misses[15] 	9667
scalar tree_4_3_u08_r10_network.node[15].content_store 	decision_yes[15] 	914
scalar tree_4_3_u08_r10_network.node[15].content_store 	decision_no[15] 	8753
scalar tree_4_3_u08_r10_network.node[15].content_store 	decision_ratio[15] 	0.094548463846074
scalar tree_4_3_u08_r10_network.node[16].core_layer 	interests[16] 	14352
scalar tree_4_3_u08_r10_network.node[16].core_layer 	data[16] 	9550
scalar tree_4_3_u08_r10_network.node[16].content_store 	p_hit[16] 	0.33458751393534
scalar tree_4_3_u08_r10_network.node[16].content_store 	hits[16] 	4802
scalar tree_4_3_u08_r10_network.node[16].content_store 	misses[16] 	9550
scalar tree_4_3_u08_r10_network.node[16].content_store 	decision_yes[16] 	969
scalar tree_4_3_u08_r10_network.node[16].content_store 	decision_no[16] 	8581
scalar tree_4_3_u08_r10_network.node[16].content_store 	decision_ratio[16] 	0.10146596858639
scalar tree_4_3_u08_r10_network.node[17].core_layer 	interests[17] 	13725
scalar tree_4_3_u08_r10_network.node[17].core_layer 	data[17] 	9804
scalar tree_4_3_u08_r10_network.node[17].content_store 	p_hit[17] 	0.2856102003643
scalar tree_4_3_u08_r10_network.node[17].content_store 	hits[17] 	3920
scalar tree_4_3_u08_r10_network.node[17].content_store 	misses[17] 	9805
scalar tree_4_3_u08_r10_network.node[17].content_store 	decision_yes[17] 	1024
scalar tree_4_3_u08_r10_network.node[17].content_store 	decision_no[17] 	8780
scalar tree_4_3_u08_r10_network.node[17].content_store 	decision_ratio[17] 	0.10444716442268
scalar tree_4_3_u08_r10_network.node[18].core_layer 	interests[18] 	13523
scalar tree_4_3_u08_r10_network.node[18].core_layer 	data[18] 	9679
scalar tree_4_3_u08_r10_network.node[18].content_store 	p_hit[18] 	0.28425645197072
scalar tree_4_3_u08_r10_network.node[18].content_store 	hits[18] 	3844
scalar tree_4_3_u08_r10_network.node[18].content_store 	misses[18] 	9679
scalar tree_4_3_u08_r10_network.node[18].content_store 	decision_yes[18] 	928
scalar tree_4_3_u08_r10_network.node[18].content_store 	decision_no[18] 	8751
scalar tree_4_3_u08_r10_network.node[18].content_store 	decision_ratio[18] 	0.095877673313359
scalar tree_4_3_u08_r10_network.node[19].core_layer 	interests[19] 	13916
scalar tree_4_3_u08_r10_network.node[19].core_layer 	data[19] 	9455
scalar tree_4_3_u08_r10_network.node[19].content_store 	p_hit[19] 	0.32056625467088
scalar tree_4_3_u08_r10_network.node[19].content_store 	hits[19] 	4461
scalar tree_4_3_u08_r10_network.node[19].content_store 	misses[19] 	9455
scalar tree_4_3_u08_r10_network.node[19].content_store 	decision_yes[19] 	973
scalar tree_4_3_u08_r10_network.node[19].content_store 	decision_no[19] 	8482
scalar tree_4_3_u08_r10_network.node[19].content_store 	decision_ratio[19] 	0.10290851401375
scalar tree_4_3_u08_r10_network.node[20].core_layer 	interests[20] 	14293
scalar tree_4_3_u08_r10_network.node[20].core_layer 	data[20] 	9793
scalar tree_4_3_u08_r10_network.node[20].content_store 	p_hit[20] 	0.31476946757154
scalar tree_4_3_u08_r10_network.node[20].content_store 	hits[20] 	4499
scalar tree_4_3_u08_r10_network.node[20].content_store 	misses[20] 	9794
scalar tree_4_3_u08_r10_network.node[20].content_store 	decision_yes[20] 	971
scalar tree_4_3_u08_r10_network.node[20].content_store 	decision_no[20] 	8822
scalar tree_4_3_u08_r10_network.node[20].content_store 	decision_ratio[20] 	0.099152455835801
scalar tree_4_3_u08_r10_network.node[21].core_layer 	interests[21] 	12847
scalar tree_4_3_u08_r10_network.node[21].core_layer 	data[21] 	9567
scalar tree_4_3_u08_r10_network.node[21].content_store 	p_hit[21] 	0.25531252432475
scalar tree_4_3_u08_r10_network.node[21].content_store 	hits[21] 	3280
scalar tree_4_3_u08_r10_network.node[21].content_store 	misses[21] 	9567
scalar tree_4_3_u08_r10_network.node[21].content_store 	decision_yes[21] 	921
scalar tree_4_3_u08_r10_network.node[21].content_store 	decision_no[21] 	8646
scalar tree_4_3_u08_r10_network.node[21].content_store 	decision_ratio[21] 	0.096268422703042
scalar tree_4_3_u08_r10_network.node[22].core_layer 	interests[22] 	12994
scalar tree_4_3_u08_r10_network.node[22].core_layer 	data[22] 	9589
scalar tree_4_3_u08_r10_network.node[22].content_store 	p_hit[22] 	0.26204402031707
scalar tree_4_3_u08_r10_network.node[22].content_store 	hits[22] 	3405
scalar tree_4_3_u08_r10_network.node[22].content_store 	misses[22] 	9589
scalar tree_4_3_u08_r10_network.node[22].content_store 	decision_yes[22] 	965
scalar tree_4_3_u08_r10_network.node[22].content_store 	decision_no[22] 	8624
scalar tree_4_3_u08_r10_network.node[22].content_store 	decision_ratio[22] 	0.10063614558348
scalar tree_4_3_u08_r10_network.node[23].core_layer 	interests[23] 	13611
scalar tree_4_3_u08_r10_network.node[23].core_layer 	data[23] 	9399
scalar tree_4_3_u08_r10_network.node[23].content_store 	p_hit[23] 	0.30945558739255
scalar tree_4_3_u08_r10_network.node[23].content_store 	hits[23] 	4212
scalar tree_4_3_u08_r10_network.node[23].content_store 	misses[23] 	9399
scalar tree_4_3_u08_r10_network.node[23].content_store 	decision_yes[23] 	884
scalar tree_4_3_u08_r10_network.node[23].content_store 	decision_no[23] 	8515
scalar tree_4_3_u08_r10_network.node[23].content_store 	decision_ratio[23] 	0.094052558782849
scalar tree_4_3_u08_r10_network.node[24].core_layer 	interests[24] 	14182
scalar tree_4_3_u08_r10_network.node[24].core_layer 	data[24] 	9565
scalar tree_4_3_u08_r10_network.node[24].content_store 	p_hit[24] 	0.32555351854463
scalar tree_4_3_u08_r10_network.node[24].content_store 	hits[24] 	4617
scalar tree_4_3_u08_r10_network.node[24].content_store 	misses[24] 	9565
scalar tree_4_3_u08_r10_network.node[24].content_store 	decision_yes[24] 	917
scalar tree_4_3_u08_r10_network.node[24].content_store 	decision_no[24] 	8648
scalar tree_4_3_u08_r10_network.node[24].content_store 	decision_ratio[24] 	0.095870360690016
scalar tree_4_3_u08_r10_network.node[25].core_layer 	interests[25] 	13366
scalar tree_4_3_u08_r10_network.node[25].core_layer 	data[25] 	9498
scalar tree_4_3_u08_r10_network.node[25].content_store 	p_hit[25] 	0.28939099206943
scalar tree_4_3_u08_r10_network.node[25].content_store 	hits[25] 	3868
scalar tree_4_3_u08_r10_network.node[25].content_store 	misses[25] 	9498
scalar tree_4_3_u08_r10_network.node[25].content_store 	decision_yes[25] 	994
scalar tree_4_3_u08_r10_network.node[25].content_store 	decision_no[25] 	8504
scalar tree_4_3_u08_r10_network.node[25].content_store 	decision_ratio[25] 	0.10465361128659
scalar tree_4_3_u08_r10_network.node[26].core_layer 	interests[26] 	12863
scalar tree_4_3_u08_r10_network.node[26].core_layer 	data[26] 	9632
scalar tree_4_3_u08_r10_network.node[26].content_store 	p_hit[26] 	0.25118557101765
scalar tree_4_3_u08_r10_network.node[26].content_store 	hits[26] 	3231
scalar tree_4_3_u08_r10_network.node[26].content_store 	misses[26] 	9632
scalar tree_4_3_u08_r10_network.node[26].content_store 	decision_yes[26] 	956
scalar tree_4_3_u08_r10_network.node[26].content_store 	decision_no[26] 	8676
scalar tree_4_3_u08_r10_network.node[26].content_store 	decision_ratio[26] 	0.099252491694352
scalar tree_4_3_u08_r10_network.node[27].core_layer 	interests[27] 	14138
scalar tree_4_3_u08_r10_network.node[27].core_layer 	data[27] 	9611
scalar tree_4_3_u08_r10_network.node[27].content_store 	p_hit[27] 	0.32020087706889
scalar tree_4_3_u08_r10_network.node[27].content_store 	hits[27] 	4527
scalar tree_4_3_u08_r10_network.node[27].content_store 	misses[27] 	9611
scalar tree_4_3_u08_r10_network.node[27].content_store 	decision_yes[27] 	1008
scalar tree_4_3_u08_r10_network.node[27].content_store 	decision_no[27] 	8603
scalar tree_4_3_u08_r10_network.node[27].content_store 	decision_ratio[27] 	0.10487982520029
scalar tree_4_3_u08_r10_network.node[28].core_layer 	interests[28] 	14075
scalar tree_4_3_u08_r10_network.node[28].core_layer 	data[28] 	9596
scalar tree_4_3_u08_r10_network.node[28].content_store 	p_hit[28] 	0.31822380106572
scalar tree_4_3_u08_r10_network.node[28].content_store 	hits[28] 	4479
scalar tree_4_3_u08_r10_network.node[28].content_store 	misses[28] 	9596
scalar tree_4_3_u08_r10_network.node[28].content_store 	decision_yes[28] 	1002
scalar tree_4_3_u08_r10_network.node[28].content_store 	decision_no[28] 	8594
scalar tree_4_3_u08_r10_network.node[28].content_store 	decision_ratio[28] 	0.10441850771155
scalar tree_4_3_u08_r10_network.node[29].core_layer 	interests[29] 	13446
scalar tree_4_3_u08_r10_network.node[29].core_layer 	data[29] 	9696
scalar tree_4_3_u08_r10_network.node[29].content_store 	p_hit[29] 	0.27896772274282
scalar tree_4_3_u08_r10_network.node[29].content_store 	hits[29] 	3751
scalar tree_4_3_u08_r10_network.node[29].content_store 	misses[29] 	9695
scalar tree_4_3_u08_r10_network.node[29].content_store 	decision_yes[29] 	902
scalar tree_4_3_u08_r10_network.node[29].content_store 	decision_no[29] 	8794
scalar tree_4_3_u08_r10_network.node[29].content_store 	decision_ratio[29] 	0.093028052805281
scalar tree_4_3_u08_r10_network.node[30].core_layer 	interests[30] 	13362
scalar tree_4_3_u08_r10_network.node[30].core_layer 	data[30] 	9590
scalar tree_4_3_u08_r10_network.node[30].content_store 	p_hit[30] 	0.28229306989972
scalar tree_4_3_u08_r10_network.node[30].content_store 	hits[30] 	3772
scalar tree_4_3_u08_r10_network.node[30].content_store 	misses[30] 	9590
scalar tree_4_3_u08_r10_network.node[30].content_store 	decision_yes[30] 	951
scalar tree_4_3_u08_r10_network.node[30].content_store 	decision_no[30] 	8639
scalar tree_4_3_u08_r10_network.node[30].content_store 	decision_ratio[30] 	0.099165797705944
scalar tree_4_3_u08_r10_network.node[31].core_layer 	interests[31] 	13196
scalar tree_4_3_u08_r10_network.node[31].core_layer 	data[31] 	9557
scalar tree_4_3_u08_r10_network.node[31].content_store 	p_hit[31] 	0.27568960290997
scalar tree_4_3_u08_r10_network.node[31].content_store 	hits[31] 	3638
scalar tree_4_3_u08_r10_network.node[31].content_store 	misses[31] 	9558
scalar tree_4_3_u08_r10_network.node[31].content_store 	decision_yes[31] 	1002
scalar tree_4_3_u08_r10_network.node[31].content_store 	decision_no[31] 	8555
scalar tree_4_3_u08_r10_network.node[31].content_store 	decision_ratio[31] 	0.10484461651146
scalar tree_4_3_u08_r10_network.node[32].core_layer 	interests[32] 	13812
scalar tree_4_3_u08_r10_network.node[32].core_layer 	data[32] 	9359
scalar tree_4_3_u08_r10_network.node[32].content_store 	p_hit[32] 	0.32232841007819
scalar tree_4_3_u08_r10_network.node[32].content_store 	hits[32] 	4452
scalar tree_4_3_u08_r10_network.node[32].content_store 	misses[32] 	9360
scalar tree_4_3_u08_r10_network.node[32].content_store 	decision_yes[32] 	925
scalar tree_4_3_u08_r10_network.node[32].content_store 	decision_no[32] 	8434
scalar tree_4_3_u08_r10_network.node[32].content_store 	decision_ratio[32] 	0.098835345656587
scalar tree_4_3_u08_r10_network.node[33].core_layer 	interests[33] 	13795
scalar tree_4_3_u08_r10_network.node[33].core_layer 	data[33] 	9563
scalar tree_4_3_u08_r10_network.node[33].content_store 	p_hit[33] 	0.30677781805002
scalar tree_4_3_u08_r10_network.node[33].content_store 	hits[33] 	4232
scalar tree_4_3_u08_r10_network.node[33].content_store 	misses[33] 	9563
scalar tree_4_3_u08_r10_network.node[33].content_store 	decision_yes[33] 	952
scalar tree_4_3_u08_r10_network.node[33].content_store 	decision_no[33] 	8611
scalar tree_4_3_u08_r10_network.node[33].content_store 	decision_ratio[33] 	0.099550350308481
scalar tree_4_3_u08_r10_network.node[34].core_layer 	interests[34] 	13886
scalar tree_4_3_u08_r10_network.node[34].core_layer 	data[34] 	9622
scalar tree_4_3_u08_r10_network.node[34].content_store 	p_hit[34] 	0.30707187094916
scalar tree_4_3_u08_r10_network.node[34].content_store 	hits[34] 	4264
scalar tree_4_3_u08_r10_network.node[34].content_store 	misses[34] 	9622
scalar tree_4_3_u08_r10_network.node[34].content_store 	decision_yes[34] 	1008
scalar tree_4_3_u08_r10_network.node[34].content_store 	decision_no[34] 	8614
scalar tree_4_3_u08_r10_network.node[34].content_store 	decision_ratio[34] 	0.10475992517148
scalar tree_4_3_u08_r10_network.node[35].core_layer 	interests[35] 	13183
scalar tree_4_3_u08_r10_network.node[35].core_layer 	data[35] 	9580
scalar tree_4_3_u08_r10_network.node[35].content_store 	p_hit[35] 	0.27330653113859
scalar tree_4_3_u08_r10_network.node[35].content_store 	hits[35] 	3603
scalar tree_4_3_u08_r10_network.node[35].content_store 	misses[35] 	9580
scalar tree_4_3_u08_r10_network.node[35].content_store 	decision_yes[35] 	950
scalar tree_4_3_u08_r10_network.node[35].content_store 	decision_no[35] 	8630
scalar tree_4_3_u08_r10_network.node[35].content_store 	decision_ratio[35] 	0.099164926931106
scalar tree_4_3_u08_r10_network.node[36].core_layer 	interests[36] 	13625
scalar tree_4_3_u08_r10_network.node[36].core_layer 	data[36] 	9493
scalar tree_4_3_u08_r10_network.node[36].content_store 	p_hit[36] 	0.30326605504587
scalar tree_4_3_u08_r10_network.node[36].content_store 	hits[36] 	4132
scalar tree_4_3_u08_r10_network.node[36].content_store 	misses[36] 	9493
scalar tree_4_3_u08_r10_network.node[36].content_store 	decision_yes[36] 	992
scalar tree_4_3_u08_r10_network.node[36].content_store 	decision_no[36] 	8501
scalar tree_4_3_u08_r10_network.node[36].content_store 	decision_ratio[36] 	0.10449805119562
scalar tree_4_3_u08_r10_network.node[37].core_layer 	interests[37] 	13809
scalar tree_4_3_u08_r10_network.node[37].core_layer 	data[37] 	9607
scalar tree_4_3_u08_r10_network.node[37].content_store 	p_hit[37] 	0.30422188427837
scalar tree_4_3_u08_r10_network.node[37].content_store 	hits[37] 	4201
scalar tree_4_3_u08_r10_network.node[37].content_store 	misses[37] 	9608
scalar tree_4_3_u08_r10_network.node[37].content_store 	decision_yes[37] 	977
scalar tree_4_3_u08_r10_network.node[37].content_store 	decision_no[37] 	8630
scalar tree_4_3_u08_r10_network.node[37].content_store 	decision_ratio[37] 	0.10169667950453
scalar tree_4_3_u08_r10_network.node[38].core_layer 	interests[38] 	13697
scalar tree_4_3_u08_r10_network.node[38].core_layer 	data[38] 	9643
scalar tree_4_3_u08_r10_network.node[38].content_store 	p_hit[38] 	0.29597722128933
scalar tree_4_3_u08_r10_network.node[38].content_store 	hits[38] 	4054
scalar tree_4_3_u08_r10_network.node[38].content_store 	misses[38] 	9643
scalar tree_4_3_u08_r10_network.node[38].content_store 	decision_yes[38] 	962
scalar tree_4_3_u08_r10_network.node[38].content_store 	decision_no[38] 	8681
scalar tree_4_3_u08_r10_network.node[38].content_store 	decision_ratio[38] 	0.099761485015037
scalar tree_4_3_u08_r10_network.node[39].core_layer 	interests[39] 	12722
scalar tree_4_3_u08_r10_network.node[39].core_layer 	data[39] 	9498
scalar tree_4_3_u08_r10_network.node[39].content_store 	p_hit[39] 	0.2534192736991
scalar tree_4_3_u08_r10_network.node[39].content_store 	hits[39] 	3224
scalar tree_4_3_u08_r10_network.node[39].content_store 	misses[39] 	9498
scalar tree_4_3_u08_r10_network.node[39].content_store 	decision_yes[39] 	975
scalar tree_4_3_u08_r10_network.node[39].content_store 	decision_no[39] 	8523
scalar tree_4_3_u08_r10_network.node[39].content_store 	decision_ratio[39] 	0.10265319014529
scalar tree_4_3_u08_r10_network.client[13] 	hdistance[13] 	2.8769650835678
scalar tree_4_3_u08_r10_network.client[13] 	downloads[13] 	12086
scalar tree_4_3_u08_r10_network.client[13] 	avg_time[13] 	0.004560314663
scalar tree_4_3_u08_r10_network.client[14] 	hdistance[14] 	2.7610743801653
scalar tree_4_3_u08_r10_network.client[14] 	downloads[14] 	12100
scalar tree_4_3_u08_r10_network.client[14] 	avg_time[14] 	0.00442520207
scalar tree_4_3_u08_r10_network.client[15] 	hdistance[15] 	2.8904098293065
scalar tree_4_3_u08_r10_network.client[15] 	downloads[15] 	12127
scalar tree_4_3_u08_r10_network.client[15] 	avg_time[15] 	0.004589590431
scalar tree_4_3_u08_r10_network.client[16] 	hdistance[16] 	2.7628514390284
scalar tree_4_3_u08_r10_network.client[16] 	downloads[16] 	12022
scalar tree_4_3_u08_r10_network.client[16] 	avg_time[16] 	0.004425750217
scalar tree_4_3_u08_r10_network.client[17] 	hdistance[17] 	2.860065735415
scalar tree_4_3_u08_r10_network.client[17] 	downloads[17] 	12170
scalar tree_4_3_u08_r10_network.client[17] 	avg_time[17] 	0.004617432997
scalar tree_4_3_u08_r10_network.client[18] 	hdistance[18] 	2.8595510306267
scalar tree_4_3_u08_r10_network.client[18] 	downloads[18] 	11983
scalar tree_4_3_u08_r10_network.client[18] 	avg_time[18] 	0.004614200445
scalar tree_4_3_u08_r10_network.client[19] 	hdistance[19] 	2.7362993762994
scalar tree_4_3_u08_r10_network.client[19] 	downloads[19] 	12025
scalar tree_4_3_u08_r10_network.client[19] 	avg_time[19] 	0.004373541528
scalar tree_4_3_u08_r10_network.client[20] 	hdistance[20] 	2.7498366013072
scalar tree_4_3_u08_r10_network.client[20] 	downloads[20] 	12240
scalar tree_4_3_u08_r10_network.client[20] 	avg_time[20] 	0.004407280196
scalar tree_4_3_u08_r10_network.client[21] 	hdistance[21] 	2.8434695912263
scalar tree_4_3_u08_r10_network.client[21] 	downloads[21] 	12036
scalar tree_4_3_u08_r10_network.client[21] 	avg_time[21] 	0.004569953793
scalar tree_4_3_u08_r10_network.client[22] 	hdistance[22] 	2.893318875636
scalar tree_4_3_u08_r10_network.client[22] 	downloads[22] 	11989
scalar tree_4_3_u08_r10_network.client[22] 	avg_time[22] 	0.00462123314
scalar tree_4_3_u08_r10_network.client[23] 	hdistance[23] 	2.7984437751004
scalar tree_4_3_u08_r10_network.client[23] 	downloads[23] 	11952
scalar tree_4_3_u08_r10_network.client[23] 	avg_time[23] 	0.004440760055
scalar tree_4_3_u08_r10_network.client[24] 	hdistance[24] 	2.7417564208782
scalar tree_4_3_u08_r10_network.client[24] 	downloads[24] 	12070
scalar tree_4_3_u08_r10_network.client[24] 	avg_time[24] 	0.004389060776
scalar tree_4_3_u08_r10_network.client[25] 	hdistance[25] 	2.8157828600151
scalar tree_4_3_u08_r10_network.client[25] 	downloads[25] 	11937
scalar tree_4_3_u08_r10_network.client[25] 	avg_time[25] 	0.004470650829
scalar tree_4_3_u08_r10_network.client[26] 	hdistance[26] 	2.8698664027709
scalar tree_4_3_u08_r10_network.client[26] 	downloads[26] 	12126
scalar tree_4_3_u08_r10_network.client[26] 	avg_time[26] 	0.004593267611
scalar tree_4_3_u08_r10_network.client[27] 	hdistance[27] 	2.7334104619453
scalar tree_4_3_u08_r10_network.client[27] 	downloads[27] 	12101
scalar tree_4_3_u08_r10_network.client[27] 	avg_time[27] 	0.004369718496
scalar tree_4_3_u08_r10_network.client[28] 	hdistance[28] 	2.7470549195288
scalar tree_4_3_u08_r10_network.client[28] 	downloads[28] 	12054
scalar tree_4_3_u08_r10_network.client[28] 	avg_time[28] 	0.004398702802
scalar tree_4_3_u08_r10_network.client[29] 	hdistance[29] 	2.7982198268823
scalar tree_4_3_u08_r10_network.client[29] 	downloads[29] 	12246
scalar tree_4_3_u08_r10_network.client[29] 	avg_time[29] 	0.00450350827
scalar tree_4_3_u08_r10_network.client[30] 	hdistance[30] 	2.7906110283159
scalar tree_4_3_u08_r10_network.client[30] 	downloads[30] 	12078
scalar tree_4_3_u08_r10_network.client[30] 	avg_time[30] 	0.004494596595
scalar tree_4_3_u08_r10_network.client[31] 	hdistance[31] 	2.8300958732805
scalar tree_4_3_u08_r10_network.client[31] 	downloads[31] 	11995
scalar tree_4_3_u08_r10_network.client[31] 	avg_time[31] 	0.004560730651
scalar tree_4_3_u08_r10_network.client[32] 	hdistance[32] 	2.7523995583114
scalar tree_4_3_u08_r10_network.client[32] 	downloads[32] 	11773
scalar tree_4_3_u08_r10_network.client[32] 	avg_time[32] 	0.004421976364
scalar tree_4_3_u08_r10_network.client[33] 	hdistance[33] 	2.7513585820584
scalar tree_4_3_u08_r10_network.client[33] 	downloads[33] 	11961
scalar tree_4_3_u08_r10_network.client[33] 	avg_time[33] 	0.004390432565
scalar tree_4_3_u08_r10_network.client[34] 	hdistance[34] 	2.7670008354219
scalar tree_4_3_u08_r10_network.client[34] 	downloads[34] 	11970
scalar tree_4_3_u08_r10_network.client[34] 	avg_time[34] 	0.00445534508
scalar tree_4_3_u08_r10_network.client[35] 	hdistance[35] 	2.8173466854258
scalar tree_4_3_u08_r10_network.client[35] 	downloads[35] 	12083
scalar tree_4_3_u08_r10_network.client[35] 	avg_time[35] 	0.004535128995
scalar tree_4_3_u08_r10_network.client[36] 	hdistance[36] 	2.7396694214876
scalar tree_4_3_u08_r10_network.client[36] 	downloads[36] 	11858
scalar tree_4_3_u08_r10_network.client[36] 	avg_time[36] 	0.004385390834
scalar tree_4_3_u08_r10_network.client[37] 	hdistance[37] 	2.7399073461284
scalar tree_4_3_u08_r10_network.client[37] 	downloads[37] 	12088
scalar tree_4_3_u08_r10_network.client[37] 	avg_time[37] 	0.00436614521
scalar tree_4_3_u08_r10_network.client[38] 	hdistance[38] 	2.7508777796355
scalar tree_4_3_u08_r10_network.client[38] 	downloads[38] 	11962
scalar tree_4_3_u08_r10_network.client[38] 	avg_time[38] 	0.00440009735
scalar tree_4_3_u08_r10_network.client[39] 	hdistance[39] 	2.8031647689216
scalar tree_4_3_u08_r10_network.client[39] 	downloads[39] 	11944
scalar tree_4_3_u08_r10_network.client[39] 	avg_time[39] 	0.004450599843
