version 2
run General-65-20160818-19:04:07-19481
attr a 0.9
attr cd lce
attr configname General
attr cr lru
attr datetime 20160818-19:04:07
attr experiment General
attr fsize 1
attr inifile hw5115/scenario_A/EdgeCoop.ini
attr iterationvars "$name=tree_4_3, $un=03, $rep=6, $scenario=Edge, $cd=lce, $cr=lru, $fsize=1, $a=0.9, $sl=nrr, $ttl=1000, $variance=0.05"
attr iterationvars2 "$name=tree_4_3, $un=03, $rep=6, $scenario=Edge, $cd=lce, $cr=lru, $fsize=1, $a=0.9, $sl=nrr, $ttl=1000, $variance=0.05, $repetition=0"
attr measurement "$name=tree_4_3, $un=03, $rep=6, $scenario=Edge, $cd=lce, $cr=lru, $fsize=1, $a=0.9, $sl=nrr, $ttl=1000, $variance=0.05"
attr name tree_4_3
attr network networks.${name}_u${un}_r${rep}_network
attr processid 19481
attr rep 6
attr repetition 0
attr replication #0
attr resultdir results
attr runnumber 65
attr scenario Edge
attr seedset 6
attr sl nrr
attr ttl 1000
attr un 03
attr variance 0.05

scalar . 	a 	0.9
scalar . 	fsize 	1
scalar . 	rep 	6
scalar . 	ttl 	1000
scalar . 	un 	03
scalar . 	variance 	0.05
scalar tree_4_3_u03_r6_network.content_distribution 	repo-0 	0
scalar tree_4_3_u03_r6_network.content_distribution 	client-0 	13
scalar tree_4_3_u03_r6_network.content_distribution 	client-1 	14
scalar tree_4_3_u03_r6_network.content_distribution 	client-2 	15
scalar tree_4_3_u03_r6_network.content_distribution 	client-3 	16
scalar tree_4_3_u03_r6_network.content_distribution 	client-4 	17
scalar tree_4_3_u03_r6_network.content_distribution 	client-5 	18
scalar tree_4_3_u03_r6_network.content_distribution 	client-6 	19
scalar tree_4_3_u03_r6_network.content_distribution 	client-7 	20
scalar tree_4_3_u03_r6_network.content_distribution 	client-8 	21
scalar tree_4_3_u03_r6_network.content_distribution 	client-9 	22
scalar tree_4_3_u03_r6_network.content_distribution 	client-10 	23
scalar tree_4_3_u03_r6_network.content_distribution 	client-11 	24
scalar tree_4_3_u03_r6_network.content_distribution 	client-12 	25
scalar tree_4_3_u03_r6_network.content_distribution 	client-13 	26
scalar tree_4_3_u03_r6_network.content_distribution 	client-14 	27
scalar tree_4_3_u03_r6_network.content_distribution 	client-15 	28
scalar tree_4_3_u03_r6_network.content_distribution 	client-16 	29
scalar tree_4_3_u03_r6_network.content_distribution 	client-17 	30
scalar tree_4_3_u03_r6_network.content_distribution 	client-18 	31
scalar tree_4_3_u03_r6_network.content_distribution 	client-19 	32
scalar tree_4_3_u03_r6_network.content_distribution 	client-20 	33
scalar tree_4_3_u03_r6_network.content_distribution 	client-21 	34
scalar tree_4_3_u03_r6_network.content_distribution 	client-22 	35
scalar tree_4_3_u03_r6_network.content_distribution 	client-23 	36
scalar tree_4_3_u03_r6_network.content_distribution 	client-24 	37
scalar tree_4_3_u03_r6_network.content_distribution 	client-25 	38
scalar tree_4_3_u03_r6_network.content_distribution 	client-26 	39
scalar tree_4_3_u03_r6_network.content_distribution 	repo-0_card 	100000
scalar tree_4_3_u03_r6_network.content_distribution 	repo-0_price 	0
scalar tree_4_3_u03_r6_network.statistics 	stabilization_time 	334.9
scalar tree_4_3_u03_r6_network.statistics 	p_hit 	0.19172976121921
scalar tree_4_3_u03_r6_network.statistics 	interests 	28173.175
scalar tree_4_3_u03_r6_network.statistics 	data 	20070.1
scalar tree_4_3_u03_r6_network.statistics 	hdistance 	3.1432244130795
scalar tree_4_3_u03_r6_network.statistics 	avg_time 	0.004953967712
scalar tree_4_3_u03_r6_network.statistics 	downloads 	324102
scalar tree_4_3_u03_r6_network.statistics 	total_cost 	0
scalar tree_4_3_u03_r6_network.statistics 	total_replicas 	100000
scalar tree_4_3_u03_r6_network.statistics 	inner_hit 	0.33375603976526
scalar tree_4_3_u03_r6_network.node[0].core_layer 	interests[0] 	215931
scalar tree_4_3_u03_r6_network.node[0].core_layer 	repo_load[0] 	215931
scalar tree_4_3_u03_r6_network.node[0].core_layer 	data[0] 	0
scalar tree_4_3_u03_r6_network.node[0].core_layer 	repo_int[0] 	215931
scalar tree_4_3_u03_r6_network.node[0].content_store 	p_hit[0] 	0
scalar tree_4_3_u03_r6_network.node[0].content_store 	hits[0] 	0
scalar tree_4_3_u03_r6_network.node[0].content_store 	misses[0] 	215931
scalar tree_4_3_u03_r6_network.node[0].content_store 	decision_yes[0] 	0
scalar tree_4_3_u03_r6_network.node[0].content_store 	decision_no[0] 	215931
scalar tree_4_3_u03_r6_network.node[0].content_store 	decision_ratio[0] 	0
scalar tree_4_3_u03_r6_network.node[1].core_layer 	interests[1] 	76451
scalar tree_4_3_u03_r6_network.node[1].core_layer 	data[1] 	76448
scalar tree_4_3_u03_r6_network.node[1].content_store 	p_hit[1] 	0
scalar tree_4_3_u03_r6_network.node[1].content_store 	hits[1] 	0
scalar tree_4_3_u03_r6_network.node[1].content_store 	misses[1] 	76451
scalar tree_4_3_u03_r6_network.node[1].content_store 	decision_yes[1] 	0
scalar tree_4_3_u03_r6_network.node[1].content_store 	decision_no[1] 	76446
scalar tree_4_3_u03_r6_network.node[1].content_store 	decision_ratio[1] 	0
scalar tree_4_3_u03_r6_network.node[2].core_layer 	interests[2] 	79172
scalar tree_4_3_u03_r6_network.node[2].core_layer 	data[2] 	79170
scalar tree_4_3_u03_r6_network.node[2].content_store 	p_hit[2] 	0
scalar tree_4_3_u03_r6_network.node[2].content_store 	hits[2] 	0
scalar tree_4_3_u03_r6_network.node[2].content_store 	misses[2] 	79172
scalar tree_4_3_u03_r6_network.node[2].content_store 	decision_yes[2] 	0
scalar tree_4_3_u03_r6_network.node[2].content_store 	decision_no[2] 	79169
scalar tree_4_3_u03_r6_network.node[2].content_store 	decision_ratio[2] 	0
scalar tree_4_3_u03_r6_network.node[3].core_layer 	interests[3] 	82810
scalar tree_4_3_u03_r6_network.node[3].core_layer 	data[3] 	82808
scalar tree_4_3_u03_r6_network.node[3].content_store 	p_hit[3] 	0
scalar tree_4_3_u03_r6_network.node[3].content_store 	hits[3] 	0
scalar tree_4_3_u03_r6_network.node[3].content_store 	misses[3] 	82810
scalar tree_4_3_u03_r6_network.node[3].content_store 	decision_yes[3] 	0
scalar tree_4_3_u03_r6_network.node[3].content_store 	decision_no[3] 	82800
scalar tree_4_3_u03_r6_network.node[3].content_store 	decision_ratio[3] 	0
scalar tree_4_3_u03_r6_network.node[4].core_layer 	interests[4] 	39906
scalar tree_4_3_u03_r6_network.node[4].core_layer 	data[4] 	39903
scalar tree_4_3_u03_r6_network.node[4].content_store 	p_hit[4] 	0
scalar tree_4_3_u03_r6_network.node[4].content_store 	hits[4] 	0
scalar tree_4_3_u03_r6_network.node[4].content_store 	misses[4] 	39906
scalar tree_4_3_u03_r6_network.node[4].content_store 	decision_yes[4] 	0
scalar tree_4_3_u03_r6_network.node[4].content_store 	decision_no[4] 	39902
scalar tree_4_3_u03_r6_network.node[4].content_store 	decision_ratio[4] 	0
scalar tree_4_3_u03_r6_network.node[5].core_layer 	interests[5] 	22048
scalar tree_4_3_u03_r6_network.node[5].core_layer 	data[5] 	22046
scalar tree_4_3_u03_r6_network.node[5].content_store 	p_hit[5] 	0
scalar tree_4_3_u03_r6_network.node[5].content_store 	hits[5] 	0
scalar tree_4_3_u03_r6_network.node[5].content_store 	misses[5] 	22048
scalar tree_4_3_u03_r6_network.node[5].content_store 	decision_yes[5] 	0
scalar tree_4_3_u03_r6_network.node[5].content_store 	decision_no[5] 	22045
scalar tree_4_3_u03_r6_network.node[5].content_store 	decision_ratio[5] 	0
scalar tree_4_3_u03_r6_network.node[6].core_layer 	interests[6] 	38045
scalar tree_4_3_u03_r6_network.node[6].core_layer 	data[6] 	38035
scalar tree_4_3_u03_r6_network.node[6].content_store 	p_hit[6] 	0
scalar tree_4_3_u03_r6_network.node[6].content_store 	hits[6] 	0
scalar tree_4_3_u03_r6_network.node[6].content_store 	misses[6] 	38045
scalar tree_4_3_u03_r6_network.node[6].content_store 	decision_yes[6] 	0
scalar tree_4_3_u03_r6_network.node[6].content_store 	decision_no[6] 	38030
scalar tree_4_3_u03_r6_network.node[6].content_store 	decision_ratio[6] 	0
scalar tree_4_3_u03_r6_network.node[7].core_layer 	interests[7] 	41744
scalar tree_4_3_u03_r6_network.node[7].core_layer 	data[7] 	41743
scalar tree_4_3_u03_r6_network.node[7].content_store 	p_hit[7] 	0
scalar tree_4_3_u03_r6_network.node[7].content_store 	hits[7] 	0
scalar tree_4_3_u03_r6_network.node[7].content_store 	misses[7] 	41744
scalar tree_4_3_u03_r6_network.node[7].content_store 	decision_yes[7] 	0
scalar tree_4_3_u03_r6_network.node[7].content_store 	decision_no[7] 	41742
scalar tree_4_3_u03_r6_network.node[7].content_store 	decision_ratio[7] 	0
scalar tree_4_3_u03_r6_network.node[8].core_layer 	interests[8] 	31211
scalar tree_4_3_u03_r6_network.node[8].core_layer 	data[8] 	31208
scalar tree_4_3_u03_r6_network.node[8].content_store 	p_hit[8] 	0
scalar tree_4_3_u03_r6_network.node[8].content_store 	hits[8] 	0
scalar tree_4_3_u03_r6_network.node[8].content_store 	misses[8] 	31211
scalar tree_4_3_u03_r6_network.node[8].content_store 	decision_yes[8] 	0
scalar tree_4_3_u03_r6_network.node[8].content_store 	decision_no[8] 	31206
scalar tree_4_3_u03_r6_network.node[8].content_store 	decision_ratio[8] 	0
scalar tree_4_3_u03_r6_network.node[9].core_layer 	interests[9] 	22349
scalar tree_4_3_u03_r6_network.node[9].core_layer 	data[9] 	22348
scalar tree_4_3_u03_r6_network.node[9].content_store 	p_hit[9] 	0
scalar tree_4_3_u03_r6_network.node[9].content_store 	hits[9] 	0
scalar tree_4_3_u03_r6_network.node[9].content_store 	misses[9] 	22349
scalar tree_4_3_u03_r6_network.node[9].content_store 	decision_yes[9] 	0
scalar tree_4_3_u03_r6_network.node[9].content_store 	decision_no[9] 	22347
scalar tree_4_3_u03_r6_network.node[9].content_store 	decision_ratio[9] 	0
scalar tree_4_3_u03_r6_network.node[10].core_layer 	interests[10] 	43030
scalar tree_4_3_u03_r6_network.node[10].core_layer 	data[10] 	43027
scalar tree_4_3_u03_r6_network.node[10].content_store 	p_hit[10] 	0
scalar tree_4_3_u03_r6_network.node[10].content_store 	hits[10] 	0
scalar tree_4_3_u03_r6_network.node[10].content_store 	misses[10] 	43030
scalar tree_4_3_u03_r6_network.node[10].content_store 	decision_yes[10] 	0
scalar tree_4_3_u03_r6_network.node[10].content_store 	decision_no[10] 	43023
scalar tree_4_3_u03_r6_network.node[10].content_store 	decision_ratio[10] 	0
scalar tree_4_3_u03_r6_network.node[11].core_layer 	interests[11] 	21576
scalar tree_4_3_u03_r6_network.node[11].core_layer 	data[11] 	21575
scalar tree_4_3_u03_r6_network.node[11].content_store 	p_hit[11] 	0
scalar tree_4_3_u03_r6_network.node[11].content_store 	hits[11] 	0
scalar tree_4_3_u03_r6_network.node[11].content_store 	misses[11] 	21576
scalar tree_4_3_u03_r6_network.node[11].content_store 	decision_yes[11] 	0
scalar tree_4_3_u03_r6_network.node[11].content_store 	decision_no[11] 	21574
scalar tree_4_3_u03_r6_network.node[11].content_store 	decision_ratio[11] 	0
scalar tree_4_3_u03_r6_network.node[12].core_layer 	interests[12] 	33540
scalar tree_4_3_u03_r6_network.node[12].core_layer 	data[12] 	33539
scalar tree_4_3_u03_r6_network.node[12].content_store 	p_hit[12] 	0
scalar tree_4_3_u03_r6_network.node[12].content_store 	hits[12] 	0
scalar tree_4_3_u03_r6_network.node[12].content_store 	misses[12] 	33540
scalar tree_4_3_u03_r6_network.node[12].content_store 	decision_yes[12] 	0
scalar tree_4_3_u03_r6_network.node[12].content_store 	decision_no[12] 	33535
scalar tree_4_3_u03_r6_network.node[12].content_store 	decision_ratio[12] 	0
scalar tree_4_3_u03_r6_network.node[13].core_layer 	interests[13] 	13548
scalar tree_4_3_u03_r6_network.node[13].core_layer 	data[13] 	10170
scalar tree_4_3_u03_r6_network.node[13].content_store 	p_hit[13] 	0.24918807204015
scalar tree_4_3_u03_r6_network.node[13].content_store 	hits[13] 	3376
scalar tree_4_3_u03_r6_network.node[13].content_store 	misses[13] 	10172
scalar tree_4_3_u03_r6_network.node[13].content_store 	decision_yes[13] 	10170
scalar tree_4_3_u03_r6_network.node[13].content_store 	decision_no[13] 	0
scalar tree_4_3_u03_r6_network.node[13].content_store 	decision_ratio[13] 	1
scalar tree_4_3_u03_r6_network.node[14].core_layer 	interests[14] 	13363
scalar tree_4_3_u03_r6_network.node[14].core_layer 	data[14] 	10027
scalar tree_4_3_u03_r6_network.node[14].content_store 	p_hit[14] 	0.24956970740103
scalar tree_4_3_u03_r6_network.node[14].content_store 	hits[14] 	3335
scalar tree_4_3_u03_r6_network.node[14].content_store 	misses[14] 	10028
scalar tree_4_3_u03_r6_network.node[14].content_store 	decision_yes[14] 	10027
scalar tree_4_3_u03_r6_network.node[14].content_store 	decision_no[14] 	0
scalar tree_4_3_u03_r6_network.node[14].content_store 	decision_ratio[14] 	1
scalar tree_4_3_u03_r6_network.node[15].core_layer 	interests[15] 	15629
scalar tree_4_3_u03_r6_network.node[15].core_layer 	data[15] 	9852
scalar tree_4_3_u03_r6_network.node[15].content_store 	p_hit[15] 	0.36963337385629
scalar tree_4_3_u03_r6_network.node[15].content_store 	hits[15] 	5777
scalar tree_4_3_u03_r6_network.node[15].content_store 	misses[15] 	9852
scalar tree_4_3_u03_r6_network.node[15].content_store 	decision_yes[15] 	9852
scalar tree_4_3_u03_r6_network.node[15].content_store 	decision_no[15] 	0
scalar tree_4_3_u03_r6_network.node[15].content_store 	decision_ratio[15] 	1
scalar tree_4_3_u03_r6_network.node[16].core_layer 	interests[16] 	14612
scalar tree_4_3_u03_r6_network.node[16].core_layer 	data[16] 	10149
scalar tree_4_3_u03_r6_network.node[16].content_store 	p_hit[16] 	0.30543388995346
scalar tree_4_3_u03_r6_network.node[16].content_store 	hits[16] 	4463
scalar tree_4_3_u03_r6_network.node[16].content_store 	misses[16] 	10149
scalar tree_4_3_u03_r6_network.node[16].content_store 	decision_yes[16] 	10149
scalar tree_4_3_u03_r6_network.node[16].content_store 	decision_no[16] 	0
scalar tree_4_3_u03_r6_network.node[16].content_store 	decision_ratio[16] 	1
scalar tree_4_3_u03_r6_network.node[17].core_layer 	interests[17] 	13484
scalar tree_4_3_u03_r6_network.node[17].core_layer 	data[17] 	10218
scalar tree_4_3_u03_r6_network.node[17].content_store 	p_hit[17] 	0.24213883120736
scalar tree_4_3_u03_r6_network.node[17].content_store 	hits[17] 	3265
scalar tree_4_3_u03_r6_network.node[17].content_store 	misses[17] 	10219
scalar tree_4_3_u03_r6_network.node[17].content_store 	decision_yes[17] 	10218
scalar tree_4_3_u03_r6_network.node[17].content_store 	decision_no[17] 	0
scalar tree_4_3_u03_r6_network.node[17].content_store 	decision_ratio[17] 	1
scalar tree_4_3_u03_r6_network.node[18].core_layer 	interests[18] 	13331
scalar tree_4_3_u03_r6_network.node[18].core_layer 	data[18] 	9982
scalar tree_4_3_u03_r6_network.node[18].content_store 	p_hit[18] 	0.25114395019128
scalar tree_4_3_u03_r6_network.node[18].content_store 	hits[18] 	3348
scalar tree_4_3_u03_r6_network.node[18].content_store 	misses[18] 	9983
scalar tree_4_3_u03_r6_network.node[18].content_store 	decision_yes[18] 	9982
scalar tree_4_3_u03_r6_network.node[18].content_store 	decision_no[18] 	0
scalar tree_4_3_u03_r6_network.node[18].content_store 	decision_ratio[18] 	1
scalar tree_4_3_u03_r6_network.node[19].core_layer 	interests[19] 	14582
scalar tree_4_3_u03_r6_network.node[19].core_layer 	data[19] 	9856
scalar tree_4_3_u03_r6_network.node[19].content_store 	p_hit[19] 	0.32396104786723
scalar tree_4_3_u03_r6_network.node[19].content_store 	hits[19] 	4724
scalar tree_4_3_u03_r6_network.node[19].content_store 	misses[19] 	9858
scalar tree_4_3_u03_r6_network.node[19].content_store 	decision_yes[19] 	9856
scalar tree_4_3_u03_r6_network.node[19].content_store 	decision_no[19] 	0
scalar tree_4_3_u03_r6_network.node[19].content_store 	decision_ratio[19] 	1
scalar tree_4_3_u03_r6_network.node[20].core_layer 	interests[20] 	14851
scalar tree_4_3_u03_r6_network.node[20].core_layer 	data[20] 	10118
scalar tree_4_3_u03_r6_network.node[20].content_store 	p_hit[20] 	0.31863174197024
scalar tree_4_3_u03_r6_network.node[20].content_store 	hits[20] 	4732
scalar tree_4_3_u03_r6_network.node[20].content_store 	misses[20] 	10119
scalar tree_4_3_u03_r6_network.node[20].content_store 	decision_yes[20] 	10118
scalar tree_4_3_u03_r6_network.node[20].content_store 	decision_no[20] 	0
scalar tree_4_3_u03_r6_network.node[20].content_store 	decision_ratio[20] 	1
scalar tree_4_3_u03_r6_network.node[21].core_layer 	interests[21] 	14883
scalar tree_4_3_u03_r6_network.node[21].core_layer 	data[21] 	10002
scalar tree_4_3_u03_r6_network.node[21].content_store 	p_hit[21] 	0.32795807296916
scalar tree_4_3_u03_r6_network.node[21].content_store 	hits[21] 	4881
scalar tree_4_3_u03_r6_network.node[21].content_store 	misses[21] 	10002
scalar tree_4_3_u03_r6_network.node[21].content_store 	decision_yes[21] 	10002
scalar tree_4_3_u03_r6_network.node[21].content_store 	decision_no[21] 	0
scalar tree_4_3_u03_r6_network.node[21].content_store 	decision_ratio[21] 	1
scalar tree_4_3_u03_r6_network.node[22].core_layer 	interests[22] 	13689
scalar tree_4_3_u03_r6_network.node[22].core_layer 	data[22] 	10072
scalar tree_4_3_u03_r6_network.node[22].content_store 	p_hit[22] 	0.26415370005114
scalar tree_4_3_u03_r6_network.node[22].content_store 	hits[22] 	3616
scalar tree_4_3_u03_r6_network.node[22].content_store 	misses[22] 	10073
scalar tree_4_3_u03_r6_network.node[22].content_store 	decision_yes[22] 	10072
scalar tree_4_3_u03_r6_network.node[22].content_store 	decision_no[22] 	0
scalar tree_4_3_u03_r6_network.node[22].content_store 	decision_ratio[22] 	1
scalar tree_4_3_u03_r6_network.node[23].core_layer 	interests[23] 	13718
scalar tree_4_3_u03_r6_network.node[23].core_layer 	data[23] 	10160
scalar tree_4_3_u03_r6_network.node[23].content_store 	p_hit[23] 	0.25936725470185
scalar tree_4_3_u03_r6_network.node[23].content_store 	hits[23] 	3558
scalar tree_4_3_u03_r6_network.node[23].content_store 	misses[23] 	10160
scalar tree_4_3_u03_r6_network.node[23].content_store 	decision_yes[23] 	10160
scalar tree_4_3_u03_r6_network.node[23].content_store 	decision_no[23] 	0
scalar tree_4_3_u03_r6_network.node[23].content_store 	decision_ratio[23] 	1
scalar tree_4_3_u03_r6_network.node[24].core_layer 	interests[24] 	13808
scalar tree_4_3_u03_r6_network.node[24].core_layer 	data[24] 	10184
scalar tree_4_3_u03_r6_network.node[24].content_store 	p_hit[24] 	0.26238412514484
scalar tree_4_3_u03_r6_network.node[24].content_store 	hits[24] 	3623
scalar tree_4_3_u03_r6_network.node[24].content_store 	misses[24] 	10185
scalar tree_4_3_u03_r6_network.node[24].content_store 	decision_yes[24] 	10184
scalar tree_4_3_u03_r6_network.node[24].content_store 	decision_no[24] 	0
scalar tree_4_3_u03_r6_network.node[24].content_store 	decision_ratio[24] 	1
scalar tree_4_3_u03_r6_network.node[25].core_layer 	interests[25] 	14484
scalar tree_4_3_u03_r6_network.node[25].core_layer 	data[25] 	9955
scalar tree_4_3_u03_r6_network.node[25].content_store 	p_hit[25] 	0.31268986467827
scalar tree_4_3_u03_r6_network.node[25].content_store 	hits[25] 	4529
scalar tree_4_3_u03_r6_network.node[25].content_store 	misses[25] 	9955
scalar tree_4_3_u03_r6_network.node[25].content_store 	decision_yes[25] 	9955
scalar tree_4_3_u03_r6_network.node[25].content_store 	decision_no[25] 	0
scalar tree_4_3_u03_r6_network.node[25].content_store 	decision_ratio[25] 	1
scalar tree_4_3_u03_r6_network.node[26].core_layer 	interests[26] 	13512
scalar tree_4_3_u03_r6_network.node[26].core_layer 	data[26] 	10116
scalar tree_4_3_u03_r6_network.node[26].content_store 	p_hit[26] 	0.25125814091178
scalar tree_4_3_u03_r6_network.node[26].content_store 	hits[26] 	3395
scalar tree_4_3_u03_r6_network.node[26].content_store 	misses[26] 	10117
scalar tree_4_3_u03_r6_network.node[26].content_store 	decision_yes[26] 	10116
scalar tree_4_3_u03_r6_network.node[26].content_store 	decision_no[26] 	0
scalar tree_4_3_u03_r6_network.node[26].content_store 	decision_ratio[26] 	1
scalar tree_4_3_u03_r6_network.node[27].core_layer 	interests[27] 	14073
scalar tree_4_3_u03_r6_network.node[27].core_layer 	data[27] 	10018
scalar tree_4_3_u03_r6_network.node[27].content_store 	p_hit[27] 	0.28806935266112
scalar tree_4_3_u03_r6_network.node[27].content_store 	hits[27] 	4054
scalar tree_4_3_u03_r6_network.node[27].content_store 	misses[27] 	10019
scalar tree_4_3_u03_r6_network.node[27].content_store 	decision_yes[27] 	10018
scalar tree_4_3_u03_r6_network.node[27].content_store 	decision_no[27] 	0
scalar tree_4_3_u03_r6_network.node[27].content_store 	decision_ratio[27] 	1
scalar tree_4_3_u03_r6_network.node[28].core_layer 	interests[28] 	13581
scalar tree_4_3_u03_r6_network.node[28].core_layer 	data[28] 	9996
scalar tree_4_3_u03_r6_network.node[28].content_store 	p_hit[28] 	0.26389809292394
scalar tree_4_3_u03_r6_network.node[28].content_store 	hits[28] 	3584
scalar tree_4_3_u03_r6_network.node[28].content_store 	misses[28] 	9997
scalar tree_4_3_u03_r6_network.node[28].content_store 	decision_yes[28] 	9996
scalar tree_4_3_u03_r6_network.node[28].content_store 	decision_no[28] 	0
scalar tree_4_3_u03_r6_network.node[28].content_store 	decision_ratio[28] 	1
scalar tree_4_3_u03_r6_network.node[29].core_layer 	interests[29] 	13978
scalar tree_4_3_u03_r6_network.node[29].core_layer 	data[29] 	9855
scalar tree_4_3_u03_r6_network.node[29].content_store 	p_hit[29] 	0.2948204321076
scalar tree_4_3_u03_r6_network.node[29].content_store 	hits[29] 	4121
scalar tree_4_3_u03_r6_network.node[29].content_store 	misses[29] 	9857
scalar tree_4_3_u03_r6_network.node[29].content_store 	decision_yes[29] 	9855
scalar tree_4_3_u03_r6_network.node[29].content_store 	decision_no[29] 	0
scalar tree_4_3_u03_r6_network.node[29].content_store 	decision_ratio[29] 	1
scalar tree_4_3_u03_r6_network.node[30].core_layer 	interests[30] 	13429
scalar tree_4_3_u03_r6_network.node[30].core_layer 	data[30] 	9962
scalar tree_4_3_u03_r6_network.node[30].content_store 	p_hit[30] 	0.25809814580386
scalar tree_4_3_u03_r6_network.node[30].content_store 	hits[30] 	3466
scalar tree_4_3_u03_r6_network.node[30].content_store 	misses[30] 	9963
scalar tree_4_3_u03_r6_network.node[30].content_store 	decision_yes[30] 	9962
scalar tree_4_3_u03_r6_network.node[30].content_store 	decision_no[30] 	0
scalar tree_4_3_u03_r6_network.node[30].content_store 	decision_ratio[30] 	1
scalar tree_4_3_u03_r6_network.node[31].core_layer 	interests[31] 	14027
scalar tree_4_3_u03_r6_network.node[31].core_layer 	data[31] 	10088
scalar tree_4_3_u03_r6_network.node[31].content_store 	p_hit[31] 	0.28067298780923
scalar tree_4_3_u03_r6_network.node[31].content_store 	hits[31] 	3937
scalar tree_4_3_u03_r6_network.node[31].content_store 	misses[31] 	10090
scalar tree_4_3_u03_r6_network.node[31].content_store 	decision_yes[31] 	10088
scalar tree_4_3_u03_r6_network.node[31].content_store 	decision_no[31] 	0
scalar tree_4_3_u03_r6_network.node[31].content_store 	decision_ratio[31] 	1
scalar tree_4_3_u03_r6_network.node[32].core_layer 	interests[32] 	13914
scalar tree_4_3_u03_r6_network.node[32].core_layer 	data[32] 	9921
scalar tree_4_3_u03_r6_network.node[32].content_store 	p_hit[32] 	0.28697714532126
scalar tree_4_3_u03_r6_network.node[32].content_store 	hits[32] 	3993
scalar tree_4_3_u03_r6_network.node[32].content_store 	misses[32] 	9921
scalar tree_4_3_u03_r6_network.node[32].content_store 	decision_yes[32] 	9921
scalar tree_4_3_u03_r6_network.node[32].content_store 	decision_no[32] 	0
scalar tree_4_3_u03_r6_network.node[32].content_store 	decision_ratio[32] 	1
scalar tree_4_3_u03_r6_network.node[33].core_layer 	interests[33] 	13955
scalar tree_4_3_u03_r6_network.node[33].core_layer 	data[33] 	9978
scalar tree_4_3_u03_r6_network.node[33].content_store 	p_hit[33] 	0.28498745969187
scalar tree_4_3_u03_r6_network.node[33].content_store 	hits[33] 	3977
scalar tree_4_3_u03_r6_network.node[33].content_store 	misses[33] 	9978
scalar tree_4_3_u03_r6_network.node[33].content_store 	decision_yes[33] 	9978
scalar tree_4_3_u03_r6_network.node[33].content_store 	decision_no[33] 	0
scalar tree_4_3_u03_r6_network.node[33].content_store 	decision_ratio[33] 	1
scalar tree_4_3_u03_r6_network.node[34].core_layer 	interests[34] 	14725
scalar tree_4_3_u03_r6_network.node[34].core_layer 	data[34] 	10098
scalar tree_4_3_u03_r6_network.node[34].content_store 	p_hit[34] 	0.31422750424448
scalar tree_4_3_u03_r6_network.node[34].content_store 	hits[34] 	4627
scalar tree_4_3_u03_r6_network.node[34].content_store 	misses[34] 	10098
scalar tree_4_3_u03_r6_network.node[34].content_store 	decision_yes[34] 	10098
scalar tree_4_3_u03_r6_network.node[34].content_store 	decision_no[34] 	0
scalar tree_4_3_u03_r6_network.node[34].content_store 	decision_ratio[34] 	1
scalar tree_4_3_u03_r6_network.node[35].core_layer 	interests[35] 	13592
scalar tree_4_3_u03_r6_network.node[35].core_layer 	data[35] 	10149
scalar tree_4_3_u03_r6_network.node[35].content_store 	p_hit[35] 	0.25316362566215
scalar tree_4_3_u03_r6_network.node[35].content_store 	hits[35] 	3441
scalar tree_4_3_u03_r6_network.node[35].content_store 	misses[35] 	10151
scalar tree_4_3_u03_r6_network.node[35].content_store 	decision_yes[35] 	10149
scalar tree_4_3_u03_r6_network.node[35].content_store 	decision_no[35] 	0
scalar tree_4_3_u03_r6_network.node[35].content_store 	decision_ratio[35] 	1
scalar tree_4_3_u03_r6_network.node[36].core_layer 	interests[36] 	14675
scalar tree_4_3_u03_r6_network.node[36].core_layer 	data[36] 	10021
scalar tree_4_3_u03_r6_network.node[36].content_store 	p_hit[36] 	0.31706984667802
scalar tree_4_3_u03_r6_network.node[36].content_store 	hits[36] 	4653
scalar tree_4_3_u03_r6_network.node[36].content_store 	misses[36] 	10022
scalar tree_4_3_u03_r6_network.node[36].content_store 	decision_yes[36] 	10021
scalar tree_4_3_u03_r6_network.node[36].content_store 	decision_no[36] 	0
scalar tree_4_3_u03_r6_network.node[36].content_store 	decision_ratio[36] 	1
scalar tree_4_3_u03_r6_network.node[37].core_layer 	interests[37] 	13788
scalar tree_4_3_u03_r6_network.node[37].core_layer 	data[37] 	9969
scalar tree_4_3_u03_r6_network.node[37].content_store 	p_hit[37] 	0.27690745575863
scalar tree_4_3_u03_r6_network.node[37].content_store 	hits[37] 	3818
scalar tree_4_3_u03_r6_network.node[37].content_store 	misses[37] 	9970
scalar tree_4_3_u03_r6_network.node[37].content_store 	decision_yes[37] 	9969
scalar tree_4_3_u03_r6_network.node[37].content_store 	decision_no[37] 	0
scalar tree_4_3_u03_r6_network.node[37].content_store 	decision_ratio[37] 	1
scalar tree_4_3_u03_r6_network.node[38].core_layer 	interests[38] 	13973
scalar tree_4_3_u03_r6_network.node[38].core_layer 	data[38] 	10062
scalar tree_4_3_u03_r6_network.node[38].content_store 	p_hit[38] 	0.27996851069921
scalar tree_4_3_u03_r6_network.node[38].content_store 	hits[38] 	3912
scalar tree_4_3_u03_r6_network.node[38].content_store 	misses[38] 	10061
scalar tree_4_3_u03_r6_network.node[38].content_store 	decision_yes[38] 	10062
scalar tree_4_3_u03_r6_network.node[38].content_store 	decision_no[38] 	0
scalar tree_4_3_u03_r6_network.node[38].content_store 	decision_ratio[38] 	1
scalar tree_4_3_u03_r6_network.node[39].core_layer 	interests[39] 	13910
scalar tree_4_3_u03_r6_network.node[39].core_layer 	data[39] 	9976
scalar tree_4_3_u03_r6_network.node[39].content_store 	p_hit[39] 	0.28281811646298
scalar tree_4_3_u03_r6_network.node[39].content_store 	hits[39] 	3934
scalar tree_4_3_u03_r6_network.node[39].content_store 	misses[39] 	9976
scalar tree_4_3_u03_r6_network.node[39].content_store 	decision_yes[39] 	9976
scalar tree_4_3_u03_r6_network.node[39].content_store 	decision_no[39] 	0
scalar tree_4_3_u03_r6_network.node[39].content_store 	decision_ratio[39] 	1
scalar tree_4_3_u03_r6_network.client[13] 	hdistance[13] 	3.1718323828416
scalar tree_4_3_u03_r6_network.client[13] 	downloads[13] 	12099
scalar tree_4_3_u03_r6_network.client[13] 	avg_time[13] 	0.004977175218
scalar tree_4_3_u03_r6_network.client[14] 	hdistance[14] 	3.169966442953
scalar tree_4_3_u03_r6_network.client[14] 	downloads[14] 	11920
scalar tree_4_3_u03_r6_network.client[14] 	avg_time[14] 	0.004966463873
scalar tree_4_3_u03_r6_network.client[15] 	hdistance[15] 	3.065800573646
scalar tree_4_3_u03_r6_network.client[15] 	downloads[15] 	11854
scalar tree_4_3_u03_r6_network.client[15] 	avg_time[15] 	0.004876663155
scalar tree_4_3_u03_r6_network.client[16] 	hdistance[16] 	3.0851585485453
scalar tree_4_3_u03_r6_network.client[16] 	downloads[16] 	12236
scalar tree_4_3_u03_r6_network.client[16] 	avg_time[16] 	0.004805573125
scalar tree_4_3_u03_r6_network.client[17] 	hdistance[17] 	3.1981619758759
scalar tree_4_3_u03_r6_network.client[17] 	downloads[17] 	12187
scalar tree_4_3_u03_r6_network.client[17] 	avg_time[17] 	0.005023000977
scalar tree_4_3_u03_r6_network.client[18] 	hdistance[18] 	3.1908741434063
scalar tree_4_3_u03_r6_network.client[18] 	downloads[18] 	11966
scalar tree_4_3_u03_r6_network.client[18] 	avg_time[18] 	0.00502387676
scalar tree_4_3_u03_r6_network.client[19] 	hdistance[19] 	3.1643625192012
scalar tree_4_3_u03_r6_network.client[19] 	downloads[19] 	11718
scalar tree_4_3_u03_r6_network.client[19] 	avg_time[19] 	0.005070705411
scalar tree_4_3_u03_r6_network.client[20] 	hdistance[20] 	3.1535972118496
scalar tree_4_3_u03_r6_network.client[20] 	downloads[20] 	12051
scalar tree_4_3_u03_r6_network.client[20] 	avg_time[20] 	0.005053518069
scalar tree_4_3_u03_r6_network.client[21] 	hdistance[21] 	3.1467491225138
scalar tree_4_3_u03_r6_network.client[21] 	downloads[21] 	11966
scalar tree_4_3_u03_r6_network.client[21] 	avg_time[21] 	0.005035447707
scalar tree_4_3_u03_r6_network.client[22] 	hdistance[22] 	3.1497025776603
scalar tree_4_3_u03_r6_network.client[22] 	downloads[22] 	12104
scalar tree_4_3_u03_r6_network.client[22] 	avg_time[22] 	0.004929108894
scalar tree_4_3_u03_r6_network.client[23] 	hdistance[23] 	3.1636453526697
scalar tree_4_3_u03_r6_network.client[23] 	downloads[23] 	12136
scalar tree_4_3_u03_r6_network.client[23] 	avg_time[23] 	0.004954958746
scalar tree_4_3_u03_r6_network.client[24] 	hdistance[24] 	3.1470805617147
scalar tree_4_3_u03_r6_network.client[24] 	downloads[24] 	12177
scalar tree_4_3_u03_r6_network.client[24] 	avg_time[24] 	0.004934366925
scalar tree_4_3_u03_r6_network.client[25] 	hdistance[25] 	3.0669776741086
scalar tree_4_3_u03_r6_network.client[25] 	downloads[25] 	12004
scalar tree_4_3_u03_r6_network.client[25] 	avg_time[25] 	0.004758410905
scalar tree_4_3_u03_r6_network.client[26] 	hdistance[26] 	3.1628293574931
scalar tree_4_3_u03_r6_network.client[26] 	downloads[26] 	12031
scalar tree_4_3_u03_r6_network.client[26] 	avg_time[26] 	0.004954687896
scalar tree_4_3_u03_r6_network.client[27] 	hdistance[27] 	3.1132972071697
scalar tree_4_3_u03_r6_network.client[27] 	downloads[27] 	11995
scalar tree_4_3_u03_r6_network.client[27] 	avg_time[27] 	0.004840418548
scalar tree_4_3_u03_r6_network.client[28] 	hdistance[28] 	3.1651184199515
scalar tree_4_3_u03_r6_network.client[28] 	downloads[28] 	11949
scalar tree_4_3_u03_r6_network.client[28] 	avg_time[28] 	0.004953342391
scalar tree_4_3_u03_r6_network.client[29] 	hdistance[29] 	3.0956771846713
scalar tree_4_3_u03_r6_network.client[29] 	downloads[29] 	11821
scalar tree_4_3_u03_r6_network.client[29] 	avg_time[29] 	0.004816206883
scalar tree_4_3_u03_r6_network.client[30] 	hdistance[30] 	3.146644295302
scalar tree_4_3_u03_r6_network.client[30] 	downloads[30] 	11920
scalar tree_4_3_u03_r6_network.client[30] 	avg_time[30] 	0.004929971898
scalar tree_4_3_u03_r6_network.client[31] 	hdistance[31] 	3.1488480026521
scalar tree_4_3_u03_r6_network.client[31] 	downloads[31] 	12066
scalar tree_4_3_u03_r6_network.client[31] 	avg_time[31] 	0.004990632091
scalar tree_4_3_u03_r6_network.client[32] 	hdistance[32] 	3.1442016806723
scalar tree_4_3_u03_r6_network.client[32] 	downloads[32] 	11900
scalar tree_4_3_u03_r6_network.client[32] 	avg_time[32] 	0.004988904595
scalar tree_4_3_u03_r6_network.client[33] 	hdistance[33] 	3.1432394012877
scalar tree_4_3_u03_r6_network.client[33] 	downloads[33] 	11959
scalar tree_4_3_u03_r6_network.client[33] 	avg_time[33] 	0.004990159309
scalar tree_4_3_u03_r6_network.client[34] 	hdistance[34] 	3.098686927079
scalar tree_4_3_u03_r6_network.client[34] 	downloads[34] 	12109
scalar tree_4_3_u03_r6_network.client[34] 	avg_time[34] 	0.004882315927
scalar tree_4_3_u03_r6_network.client[35] 	hdistance[35] 	3.2058311935724
scalar tree_4_3_u03_r6_network.client[35] 	downloads[35] 	12073
scalar tree_4_3_u03_r6_network.client[35] 	avg_time[35] 	0.005096191501
scalar tree_4_3_u03_r6_network.client[36] 	hdistance[36] 	3.1081622433651
scalar tree_4_3_u03_r6_network.client[36] 	downloads[36] 	11982
scalar tree_4_3_u03_r6_network.client[36] 	avg_time[36] 	0.004896551502
scalar tree_4_3_u03_r6_network.client[37] 	hdistance[37] 	3.1659789473684
scalar tree_4_3_u03_r6_network.client[37] 	downloads[37] 	11875
scalar tree_4_3_u03_r6_network.client[37] 	avg_time[37] 	0.00502755925
scalar tree_4_3_u03_r6_network.client[38] 	hdistance[38] 	3.1453927179232
scalar tree_4_3_u03_r6_network.client[38] 	downloads[38] 	12057
scalar tree_4_3_u03_r6_network.client[38] 	avg_time[38] 	0.004993787388
scalar tree_4_3_u03_r6_network.client[39] 	hdistance[39] 	3.1492424876538
scalar tree_4_3_u03_r6_network.client[39] 	downloads[39] 	11947
scalar tree_4_3_u03_r6_network.client[39] 	avg_time[39] 	0.004987129304
