version 2
run General-64-20160818-19:03:21-19481
attr a 0.9
attr cd lce
attr configname General
attr cr lru
attr datetime 20160818-19:03:21
attr experiment General
attr fsize 1
attr inifile hw5115/scenario_A/EdgeCoop.ini
attr iterationvars "$name=tree_4_3, $un=03, $rep=5, $scenario=Edge, $cd=lce, $cr=lru, $fsize=1, $a=0.9, $sl=nrr, $ttl=1000, $variance=0.05"
attr iterationvars2 "$name=tree_4_3, $un=03, $rep=5, $scenario=Edge, $cd=lce, $cr=lru, $fsize=1, $a=0.9, $sl=nrr, $ttl=1000, $variance=0.05, $repetition=0"
attr measurement "$name=tree_4_3, $un=03, $rep=5, $scenario=Edge, $cd=lce, $cr=lru, $fsize=1, $a=0.9, $sl=nrr, $ttl=1000, $variance=0.05"
attr name tree_4_3
attr network networks.${name}_u${un}_r${rep}_network
attr processid 19481
attr rep 5
attr repetition 0
attr replication #0
attr resultdir results
attr runnumber 64
attr scenario Edge
attr seedset 5
attr sl nrr
attr ttl 1000
attr un 03
attr variance 0.05

scalar . 	a 	0.9
scalar . 	fsize 	1
scalar . 	rep 	5
scalar . 	ttl 	1000
scalar . 	un 	03
scalar . 	variance 	0.05
scalar tree_4_3_u03_r5_network.content_distribution 	repo-0 	0
scalar tree_4_3_u03_r5_network.content_distribution 	client-0 	13
scalar tree_4_3_u03_r5_network.content_distribution 	client-1 	14
scalar tree_4_3_u03_r5_network.content_distribution 	client-2 	15
scalar tree_4_3_u03_r5_network.content_distribution 	client-3 	16
scalar tree_4_3_u03_r5_network.content_distribution 	client-4 	17
scalar tree_4_3_u03_r5_network.content_distribution 	client-5 	18
scalar tree_4_3_u03_r5_network.content_distribution 	client-6 	19
scalar tree_4_3_u03_r5_network.content_distribution 	client-7 	20
scalar tree_4_3_u03_r5_network.content_distribution 	client-8 	21
scalar tree_4_3_u03_r5_network.content_distribution 	client-9 	22
scalar tree_4_3_u03_r5_network.content_distribution 	client-10 	23
scalar tree_4_3_u03_r5_network.content_distribution 	client-11 	24
scalar tree_4_3_u03_r5_network.content_distribution 	client-12 	25
scalar tree_4_3_u03_r5_network.content_distribution 	client-13 	26
scalar tree_4_3_u03_r5_network.content_distribution 	client-14 	27
scalar tree_4_3_u03_r5_network.content_distribution 	client-15 	28
scalar tree_4_3_u03_r5_network.content_distribution 	client-16 	29
scalar tree_4_3_u03_r5_network.content_distribution 	client-17 	30
scalar tree_4_3_u03_r5_network.content_distribution 	client-18 	31
scalar tree_4_3_u03_r5_network.content_distribution 	client-19 	32
scalar tree_4_3_u03_r5_network.content_distribution 	client-20 	33
scalar tree_4_3_u03_r5_network.content_distribution 	client-21 	34
scalar tree_4_3_u03_r5_network.content_distribution 	client-22 	35
scalar tree_4_3_u03_r5_network.content_distribution 	client-23 	36
scalar tree_4_3_u03_r5_network.content_distribution 	client-24 	37
scalar tree_4_3_u03_r5_network.content_distribution 	client-25 	38
scalar tree_4_3_u03_r5_network.content_distribution 	client-26 	39
scalar tree_4_3_u03_r5_network.content_distribution 	repo-0_card 	100000
scalar tree_4_3_u03_r5_network.content_distribution 	repo-0_price 	0
scalar tree_4_3_u03_r5_network.statistics 	stabilization_time 	334.8
scalar tree_4_3_u03_r5_network.statistics 	p_hit 	0.1980193941486
scalar tree_4_3_u03_r5_network.statistics 	interests 	28380.475
scalar tree_4_3_u03_r5_network.statistics 	data 	20272.275
scalar tree_4_3_u03_r5_network.statistics 	hdistance 	3.1497634413173
scalar tree_4_3_u03_r5_network.statistics 	avg_time 	0.005000924165
scalar tree_4_3_u03_r5_network.statistics 	downloads 	324314
scalar tree_4_3_u03_r5_network.statistics 	total_cost 	0
scalar tree_4_3_u03_r5_network.statistics 	total_replicas 	100000
scalar tree_4_3_u03_r5_network.statistics 	inner_hit 	0.35071874788014
scalar tree_4_3_u03_r5_network.node[0].core_layer 	interests[0] 	210571
scalar tree_4_3_u03_r5_network.node[0].core_layer 	repo_load[0] 	210571
scalar tree_4_3_u03_r5_network.node[0].core_layer 	data[0] 	0
scalar tree_4_3_u03_r5_network.node[0].core_layer 	repo_int[0] 	210571
scalar tree_4_3_u03_r5_network.node[0].content_store 	p_hit[0] 	0
scalar tree_4_3_u03_r5_network.node[0].content_store 	hits[0] 	0
scalar tree_4_3_u03_r5_network.node[0].content_store 	misses[0] 	210571
scalar tree_4_3_u03_r5_network.node[0].content_store 	decision_yes[0] 	0
scalar tree_4_3_u03_r5_network.node[0].content_store 	decision_no[0] 	210571
scalar tree_4_3_u03_r5_network.node[0].content_store 	decision_ratio[0] 	0
scalar tree_4_3_u03_r5_network.node[1].core_layer 	interests[1] 	113532
scalar tree_4_3_u03_r5_network.node[1].core_layer 	data[1] 	113529
scalar tree_4_3_u03_r5_network.node[1].content_store 	p_hit[1] 	0
scalar tree_4_3_u03_r5_network.node[1].content_store 	hits[1] 	0
scalar tree_4_3_u03_r5_network.node[1].content_store 	misses[1] 	113532
scalar tree_4_3_u03_r5_network.node[1].content_store 	decision_yes[1] 	0
scalar tree_4_3_u03_r5_network.node[1].content_store 	decision_no[1] 	113523
scalar tree_4_3_u03_r5_network.node[1].content_store 	decision_ratio[1] 	0
scalar tree_4_3_u03_r5_network.node[2].core_layer 	interests[2] 	43748
scalar tree_4_3_u03_r5_network.node[2].core_layer 	data[2] 	43748
scalar tree_4_3_u03_r5_network.node[2].content_store 	p_hit[2] 	0
scalar tree_4_3_u03_r5_network.node[2].content_store 	hits[2] 	0
scalar tree_4_3_u03_r5_network.node[2].content_store 	misses[2] 	43748
scalar tree_4_3_u03_r5_network.node[2].content_store 	decision_yes[2] 	0
scalar tree_4_3_u03_r5_network.node[2].content_store 	decision_no[2] 	43747
scalar tree_4_3_u03_r5_network.node[2].content_store 	decision_ratio[2] 	0
scalar tree_4_3_u03_r5_network.node[3].core_layer 	interests[3] 	82500
scalar tree_4_3_u03_r5_network.node[3].core_layer 	data[3] 	82496
scalar tree_4_3_u03_r5_network.node[3].content_store 	p_hit[3] 	0
scalar tree_4_3_u03_r5_network.node[3].content_store 	hits[3] 	0
scalar tree_4_3_u03_r5_network.node[3].content_store 	misses[3] 	82500
scalar tree_4_3_u03_r5_network.node[3].content_store 	decision_yes[3] 	0
scalar tree_4_3_u03_r5_network.node[3].content_store 	decision_no[3] 	82487
scalar tree_4_3_u03_r5_network.node[3].content_store 	decision_ratio[3] 	0
scalar tree_4_3_u03_r5_network.node[4].core_layer 	interests[4] 	32011
scalar tree_4_3_u03_r5_network.node[4].core_layer 	data[4] 	32010
scalar tree_4_3_u03_r5_network.node[4].content_store 	p_hit[4] 	0
scalar tree_4_3_u03_r5_network.node[4].content_store 	hits[4] 	0
scalar tree_4_3_u03_r5_network.node[4].content_store 	misses[4] 	32011
scalar tree_4_3_u03_r5_network.node[4].content_store 	decision_yes[4] 	0
scalar tree_4_3_u03_r5_network.node[4].content_store 	decision_no[4] 	32008
scalar tree_4_3_u03_r5_network.node[4].content_store 	decision_ratio[4] 	0
scalar tree_4_3_u03_r5_network.node[5].core_layer 	interests[5] 	33128
scalar tree_4_3_u03_r5_network.node[5].core_layer 	data[5] 	33126
scalar tree_4_3_u03_r5_network.node[5].content_store 	p_hit[5] 	0
scalar tree_4_3_u03_r5_network.node[5].content_store 	hits[5] 	0
scalar tree_4_3_u03_r5_network.node[5].content_store 	misses[5] 	33128
scalar tree_4_3_u03_r5_network.node[5].content_store 	decision_yes[5] 	0
scalar tree_4_3_u03_r5_network.node[5].content_store 	decision_no[5] 	33124
scalar tree_4_3_u03_r5_network.node[5].content_store 	decision_ratio[5] 	0
scalar tree_4_3_u03_r5_network.node[6].core_layer 	interests[6] 	33617
scalar tree_4_3_u03_r5_network.node[6].core_layer 	data[6] 	33613
scalar tree_4_3_u03_r5_network.node[6].content_store 	p_hit[6] 	0
scalar tree_4_3_u03_r5_network.node[6].content_store 	hits[6] 	0
scalar tree_4_3_u03_r5_network.node[6].content_store 	misses[6] 	33617
scalar tree_4_3_u03_r5_network.node[6].content_store 	decision_yes[6] 	0
scalar tree_4_3_u03_r5_network.node[6].content_store 	decision_no[6] 	33613
scalar tree_4_3_u03_r5_network.node[6].content_store 	decision_ratio[6] 	0
scalar tree_4_3_u03_r5_network.node[7].core_layer 	interests[7] 	45465
scalar tree_4_3_u03_r5_network.node[7].core_layer 	data[7] 	45462
scalar tree_4_3_u03_r5_network.node[7].content_store 	p_hit[7] 	0
scalar tree_4_3_u03_r5_network.node[7].content_store 	hits[7] 	0
scalar tree_4_3_u03_r5_network.node[7].content_store 	misses[7] 	45465
scalar tree_4_3_u03_r5_network.node[7].content_store 	decision_yes[7] 	0
scalar tree_4_3_u03_r5_network.node[7].content_store 	decision_no[7] 	45456
scalar tree_4_3_u03_r5_network.node[7].content_store 	decision_ratio[7] 	0
scalar tree_4_3_u03_r5_network.node[8].core_layer 	interests[8] 	29517
scalar tree_4_3_u03_r5_network.node[8].core_layer 	data[8] 	29518
scalar tree_4_3_u03_r5_network.node[8].content_store 	p_hit[8] 	0
scalar tree_4_3_u03_r5_network.node[8].content_store 	hits[8] 	0
scalar tree_4_3_u03_r5_network.node[8].content_store 	misses[8] 	29517
scalar tree_4_3_u03_r5_network.node[8].content_store 	decision_yes[8] 	0
scalar tree_4_3_u03_r5_network.node[8].content_store 	decision_no[8] 	29516
scalar tree_4_3_u03_r5_network.node[8].content_store 	decision_ratio[8] 	0
scalar tree_4_3_u03_r5_network.node[9].core_layer 	interests[9] 	28589
scalar tree_4_3_u03_r5_network.node[9].core_layer 	data[9] 	28586
scalar tree_4_3_u03_r5_network.node[9].content_store 	p_hit[9] 	0
scalar tree_4_3_u03_r5_network.node[9].content_store 	hits[9] 	0
scalar tree_4_3_u03_r5_network.node[9].content_store 	misses[9] 	28589
scalar tree_4_3_u03_r5_network.node[9].content_store 	decision_yes[9] 	0
scalar tree_4_3_u03_r5_network.node[9].content_store 	decision_no[9] 	28585
scalar tree_4_3_u03_r5_network.node[9].content_store 	decision_ratio[9] 	0
scalar tree_4_3_u03_r5_network.node[10].core_layer 	interests[10] 	41936
scalar tree_4_3_u03_r5_network.node[10].core_layer 	data[10] 	41932
scalar tree_4_3_u03_r5_network.node[10].content_store 	p_hit[10] 	0
scalar tree_4_3_u03_r5_network.node[10].content_store 	hits[10] 	0
scalar tree_4_3_u03_r5_network.node[10].content_store 	misses[10] 	41936
scalar tree_4_3_u03_r5_network.node[10].content_store 	decision_yes[10] 	0
scalar tree_4_3_u03_r5_network.node[10].content_store 	decision_no[10] 	41928
scalar tree_4_3_u03_r5_network.node[10].content_store 	decision_ratio[10] 	0
scalar tree_4_3_u03_r5_network.node[11].core_layer 	interests[11] 	42869
scalar tree_4_3_u03_r5_network.node[11].core_layer 	data[11] 	42866
scalar tree_4_3_u03_r5_network.node[11].content_store 	p_hit[11] 	0
scalar tree_4_3_u03_r5_network.node[11].content_store 	hits[11] 	0
scalar tree_4_3_u03_r5_network.node[11].content_store 	misses[11] 	42869
scalar tree_4_3_u03_r5_network.node[11].content_store 	decision_yes[11] 	0
scalar tree_4_3_u03_r5_network.node[11].content_store 	decision_no[11] 	42861
scalar tree_4_3_u03_r5_network.node[11].content_store 	decision_ratio[11] 	0
scalar tree_4_3_u03_r5_network.node[12].core_layer 	interests[12] 	13038
scalar tree_4_3_u03_r5_network.node[12].core_layer 	data[12] 	13037
scalar tree_4_3_u03_r5_network.node[12].content_store 	p_hit[12] 	0
scalar tree_4_3_u03_r5_network.node[12].content_store 	hits[12] 	0
scalar tree_4_3_u03_r5_network.node[12].content_store 	misses[12] 	13038
scalar tree_4_3_u03_r5_network.node[12].content_store 	decision_yes[12] 	0
scalar tree_4_3_u03_r5_network.node[12].content_store 	decision_no[12] 	13036
scalar tree_4_3_u03_r5_network.node[12].content_store 	decision_ratio[12] 	0
scalar tree_4_3_u03_r5_network.node[13].core_layer 	interests[13] 	13776
scalar tree_4_3_u03_r5_network.node[13].core_layer 	data[13] 	10056
scalar tree_4_3_u03_r5_network.node[13].content_store 	p_hit[13] 	0.27003484320557
scalar tree_4_3_u03_r5_network.node[13].content_store 	hits[13] 	3720
scalar tree_4_3_u03_r5_network.node[13].content_store 	misses[13] 	10056
scalar tree_4_3_u03_r5_network.node[13].content_store 	decision_yes[13] 	10056
scalar tree_4_3_u03_r5_network.node[13].content_store 	decision_no[13] 	0
scalar tree_4_3_u03_r5_network.node[13].content_store 	decision_ratio[13] 	1
scalar tree_4_3_u03_r5_network.node[14].core_layer 	interests[14] 	13578
scalar tree_4_3_u03_r5_network.node[14].core_layer 	data[14] 	10038
scalar tree_4_3_u03_r5_network.node[14].content_store 	p_hit[14] 	0.26056856679923
scalar tree_4_3_u03_r5_network.node[14].content_store 	hits[14] 	3538
scalar tree_4_3_u03_r5_network.node[14].content_store 	misses[14] 	10040
scalar tree_4_3_u03_r5_network.node[14].content_store 	decision_yes[14] 	10038
scalar tree_4_3_u03_r5_network.node[14].content_store 	decision_no[14] 	0
scalar tree_4_3_u03_r5_network.node[14].content_store 	decision_ratio[14] 	1
scalar tree_4_3_u03_r5_network.node[15].core_layer 	interests[15] 	14977
scalar tree_4_3_u03_r5_network.node[15].core_layer 	data[15] 	10099
scalar tree_4_3_u03_r5_network.node[15].content_store 	p_hit[15] 	0.32569940575549
scalar tree_4_3_u03_r5_network.node[15].content_store 	hits[15] 	4878
scalar tree_4_3_u03_r5_network.node[15].content_store 	misses[15] 	10099
scalar tree_4_3_u03_r5_network.node[15].content_store 	decision_yes[15] 	10099
scalar tree_4_3_u03_r5_network.node[15].content_store 	decision_no[15] 	0
scalar tree_4_3_u03_r5_network.node[15].content_store 	decision_ratio[15] 	1
scalar tree_4_3_u03_r5_network.node[16].core_layer 	interests[16] 	13858
scalar tree_4_3_u03_r5_network.node[16].core_layer 	data[16] 	9985
scalar tree_4_3_u03_r5_network.node[16].content_store 	p_hit[16] 	0.27933323711935
scalar tree_4_3_u03_r5_network.node[16].content_store 	hits[16] 	3871
scalar tree_4_3_u03_r5_network.node[16].content_store 	misses[16] 	9987
scalar tree_4_3_u03_r5_network.node[16].content_store 	decision_yes[16] 	9985
scalar tree_4_3_u03_r5_network.node[16].content_store 	decision_no[16] 	0
scalar tree_4_3_u03_r5_network.node[16].content_store 	decision_ratio[16] 	1
scalar tree_4_3_u03_r5_network.node[17].core_layer 	interests[17] 	13813
scalar tree_4_3_u03_r5_network.node[17].core_layer 	data[17] 	9972
scalar tree_4_3_u03_r5_network.node[17].content_store 	p_hit[17] 	0.27792659089264
scalar tree_4_3_u03_r5_network.node[17].content_store 	hits[17] 	3839
scalar tree_4_3_u03_r5_network.node[17].content_store 	misses[17] 	9974
scalar tree_4_3_u03_r5_network.node[17].content_store 	decision_yes[17] 	9972
scalar tree_4_3_u03_r5_network.node[17].content_store 	decision_no[17] 	0
scalar tree_4_3_u03_r5_network.node[17].content_store 	decision_ratio[17] 	1
scalar tree_4_3_u03_r5_network.node[18].core_layer 	interests[18] 	13980
scalar tree_4_3_u03_r5_network.node[18].core_layer 	data[18] 	10132
scalar tree_4_3_u03_r5_network.node[18].content_store 	p_hit[18] 	0.27525035765379
scalar tree_4_3_u03_r5_network.node[18].content_store 	hits[18] 	3848
scalar tree_4_3_u03_r5_network.node[18].content_store 	misses[18] 	10132
scalar tree_4_3_u03_r5_network.node[18].content_store 	decision_yes[18] 	10132
scalar tree_4_3_u03_r5_network.node[18].content_store 	decision_no[18] 	0
scalar tree_4_3_u03_r5_network.node[18].content_store 	decision_ratio[18] 	1
scalar tree_4_3_u03_r5_network.node[19].core_layer 	interests[19] 	14041
scalar tree_4_3_u03_r5_network.node[19].core_layer 	data[19] 	10019
scalar tree_4_3_u03_r5_network.node[19].content_store 	p_hit[19] 	0.28644683427106
scalar tree_4_3_u03_r5_network.node[19].content_store 	hits[19] 	4022
scalar tree_4_3_u03_r5_network.node[19].content_store 	misses[19] 	10019
scalar tree_4_3_u03_r5_network.node[19].content_store 	decision_yes[19] 	10019
scalar tree_4_3_u03_r5_network.node[19].content_store 	decision_no[19] 	0
scalar tree_4_3_u03_r5_network.node[19].content_store 	decision_ratio[19] 	1
scalar tree_4_3_u03_r5_network.node[20].core_layer 	interests[20] 	13900
scalar tree_4_3_u03_r5_network.node[20].core_layer 	data[20] 	9942
scalar tree_4_3_u03_r5_network.node[20].content_store 	p_hit[20] 	0.28474820143885
scalar tree_4_3_u03_r5_network.node[20].content_store 	hits[20] 	3958
scalar tree_4_3_u03_r5_network.node[20].content_store 	misses[20] 	9942
scalar tree_4_3_u03_r5_network.node[20].content_store 	decision_yes[20] 	9942
scalar tree_4_3_u03_r5_network.node[20].content_store 	decision_no[20] 	0
scalar tree_4_3_u03_r5_network.node[20].content_store 	decision_ratio[20] 	1
scalar tree_4_3_u03_r5_network.node[21].core_layer 	interests[21] 	13935
scalar tree_4_3_u03_r5_network.node[21].core_layer 	data[21] 	9907
scalar tree_4_3_u03_r5_network.node[21].content_store 	p_hit[21] 	0.28891280947255
scalar tree_4_3_u03_r5_network.node[21].content_store 	hits[21] 	4026
scalar tree_4_3_u03_r5_network.node[21].content_store 	misses[21] 	9909
scalar tree_4_3_u03_r5_network.node[21].content_store 	decision_yes[21] 	9907
scalar tree_4_3_u03_r5_network.node[21].content_store 	decision_no[21] 	0
scalar tree_4_3_u03_r5_network.node[21].content_store 	decision_ratio[21] 	1
scalar tree_4_3_u03_r5_network.node[22].core_layer 	interests[22] 	14710
scalar tree_4_3_u03_r5_network.node[22].core_layer 	data[22] 	10021
scalar tree_4_3_u03_r5_network.node[22].content_store 	p_hit[22] 	0.31869476546567
scalar tree_4_3_u03_r5_network.node[22].content_store 	hits[22] 	4688
scalar tree_4_3_u03_r5_network.node[22].content_store 	misses[22] 	10022
scalar tree_4_3_u03_r5_network.node[22].content_store 	decision_yes[22] 	10021
scalar tree_4_3_u03_r5_network.node[22].content_store 	decision_no[22] 	0
scalar tree_4_3_u03_r5_network.node[22].content_store 	decision_ratio[22] 	1
scalar tree_4_3_u03_r5_network.node[23].core_layer 	interests[23] 	14650
scalar tree_4_3_u03_r5_network.node[23].core_layer 	data[23] 	9970
scalar tree_4_3_u03_r5_network.node[23].content_store 	p_hit[23] 	0.31945392491468
scalar tree_4_3_u03_r5_network.node[23].content_store 	hits[23] 	4680
scalar tree_4_3_u03_r5_network.node[23].content_store 	misses[23] 	9970
scalar tree_4_3_u03_r5_network.node[23].content_store 	decision_yes[23] 	9970
scalar tree_4_3_u03_r5_network.node[23].content_store 	decision_no[23] 	0
scalar tree_4_3_u03_r5_network.node[23].content_store 	decision_ratio[23] 	1
scalar tree_4_3_u03_r5_network.node[24].core_layer 	interests[24] 	14753
scalar tree_4_3_u03_r5_network.node[24].core_layer 	data[24] 	9984
scalar tree_4_3_u03_r5_network.node[24].content_store 	p_hit[24] 	0.32318850403308
scalar tree_4_3_u03_r5_network.node[24].content_store 	hits[24] 	4768
scalar tree_4_3_u03_r5_network.node[24].content_store 	misses[24] 	9985
scalar tree_4_3_u03_r5_network.node[24].content_store 	decision_yes[24] 	9984
scalar tree_4_3_u03_r5_network.node[24].content_store 	decision_no[24] 	0
scalar tree_4_3_u03_r5_network.node[24].content_store 	decision_ratio[24] 	1
scalar tree_4_3_u03_r5_network.node[25].core_layer 	interests[25] 	12971
scalar tree_4_3_u03_r5_network.node[25].core_layer 	data[25] 	9964
scalar tree_4_3_u03_r5_network.node[25].content_store 	p_hit[25] 	0.23174774496955
scalar tree_4_3_u03_r5_network.node[25].content_store 	hits[25] 	3006
scalar tree_4_3_u03_r5_network.node[25].content_store 	misses[25] 	9965
scalar tree_4_3_u03_r5_network.node[25].content_store 	decision_yes[25] 	9964
scalar tree_4_3_u03_r5_network.node[25].content_store 	decision_no[25] 	0
scalar tree_4_3_u03_r5_network.node[25].content_store 	decision_ratio[25] 	1
scalar tree_4_3_u03_r5_network.node[26].core_layer 	interests[26] 	12960
scalar tree_4_3_u03_r5_network.node[26].core_layer 	data[26] 	10023
scalar tree_4_3_u03_r5_network.node[26].content_store 	p_hit[26] 	0.22654320987654
scalar tree_4_3_u03_r5_network.node[26].content_store 	hits[26] 	2936
scalar tree_4_3_u03_r5_network.node[26].content_store 	misses[26] 	10024
scalar tree_4_3_u03_r5_network.node[26].content_store 	decision_yes[26] 	10023
scalar tree_4_3_u03_r5_network.node[26].content_store 	decision_no[26] 	0
scalar tree_4_3_u03_r5_network.node[26].content_store 	decision_ratio[26] 	1
scalar tree_4_3_u03_r5_network.node[27].core_layer 	interests[27] 	15227
scalar tree_4_3_u03_r5_network.node[27].core_layer 	data[27] 	9849
scalar tree_4_3_u03_r5_network.node[27].content_store 	p_hit[27] 	0.35325408813292
scalar tree_4_3_u03_r5_network.node[27].content_store 	hits[27] 	5379
scalar tree_4_3_u03_r5_network.node[27].content_store 	misses[27] 	9848
scalar tree_4_3_u03_r5_network.node[27].content_store 	decision_yes[27] 	9849
scalar tree_4_3_u03_r5_network.node[27].content_store 	decision_no[27] 	0
scalar tree_4_3_u03_r5_network.node[27].content_store 	decision_ratio[27] 	1
scalar tree_4_3_u03_r5_network.node[28].core_layer 	interests[28] 	17426
scalar tree_4_3_u03_r5_network.node[28].core_layer 	data[28] 	9890
scalar tree_4_3_u03_r5_network.node[28].content_store 	p_hit[28] 	0.43245724779066
scalar tree_4_3_u03_r5_network.node[28].content_store 	hits[28] 	7536
scalar tree_4_3_u03_r5_network.node[28].content_store 	misses[28] 	9890
scalar tree_4_3_u03_r5_network.node[28].content_store 	decision_yes[28] 	9890
scalar tree_4_3_u03_r5_network.node[28].content_store 	decision_no[28] 	0
scalar tree_4_3_u03_r5_network.node[28].content_store 	decision_ratio[28] 	1
scalar tree_4_3_u03_r5_network.node[29].core_layer 	interests[29] 	14621
scalar tree_4_3_u03_r5_network.node[29].core_layer 	data[29] 	10165
scalar tree_4_3_u03_r5_network.node[29].content_store 	p_hit[29] 	0.30476711579235
scalar tree_4_3_u03_r5_network.node[29].content_store 	hits[29] 	4456
scalar tree_4_3_u03_r5_network.node[29].content_store 	misses[29] 	10165
scalar tree_4_3_u03_r5_network.node[29].content_store 	decision_yes[29] 	10165
scalar tree_4_3_u03_r5_network.node[29].content_store 	decision_no[29] 	0
scalar tree_4_3_u03_r5_network.node[29].content_store 	decision_ratio[29] 	1
scalar tree_4_3_u03_r5_network.node[30].core_layer 	interests[30] 	14488
scalar tree_4_3_u03_r5_network.node[30].core_layer 	data[30] 	10064
scalar tree_4_3_u03_r5_network.node[30].content_store 	p_hit[30] 	0.30528713418001
scalar tree_4_3_u03_r5_network.node[30].content_store 	hits[30] 	4423
scalar tree_4_3_u03_r5_network.node[30].content_store 	misses[30] 	10065
scalar tree_4_3_u03_r5_network.node[30].content_store 	decision_yes[30] 	10064
scalar tree_4_3_u03_r5_network.node[30].content_store 	decision_no[30] 	0
scalar tree_4_3_u03_r5_network.node[30].content_store 	decision_ratio[30] 	1
scalar tree_4_3_u03_r5_network.node[31].core_layer 	interests[31] 	13699
scalar tree_4_3_u03_r5_network.node[31].core_layer 	data[31] 	9956
scalar tree_4_3_u03_r5_network.node[31].content_store 	p_hit[31] 	0.27323162274619
scalar tree_4_3_u03_r5_network.node[31].content_store 	hits[31] 	3743
scalar tree_4_3_u03_r5_network.node[31].content_store 	misses[31] 	9956
scalar tree_4_3_u03_r5_network.node[31].content_store 	decision_yes[31] 	9956
scalar tree_4_3_u03_r5_network.node[31].content_store 	decision_no[31] 	0
scalar tree_4_3_u03_r5_network.node[31].content_store 	decision_ratio[31] 	1
scalar tree_4_3_u03_r5_network.node[32].core_layer 	interests[32] 	13764
scalar tree_4_3_u03_r5_network.node[32].core_layer 	data[32] 	9983
scalar tree_4_3_u03_r5_network.node[32].content_store 	p_hit[32] 	0.27470212147632
scalar tree_4_3_u03_r5_network.node[32].content_store 	hits[32] 	3781
scalar tree_4_3_u03_r5_network.node[32].content_store 	misses[32] 	9983
scalar tree_4_3_u03_r5_network.node[32].content_store 	decision_yes[32] 	9983
scalar tree_4_3_u03_r5_network.node[32].content_store 	decision_no[32] 	0
scalar tree_4_3_u03_r5_network.node[32].content_store 	decision_ratio[32] 	1
scalar tree_4_3_u03_r5_network.node[33].core_layer 	interests[33] 	14447
scalar tree_4_3_u03_r5_network.node[33].core_layer 	data[33] 	10070
scalar tree_4_3_u03_r5_network.node[33].content_store 	p_hit[33] 	0.30296947463141
scalar tree_4_3_u03_r5_network.node[33].content_store 	hits[33] 	4377
scalar tree_4_3_u03_r5_network.node[33].content_store 	misses[33] 	10070
scalar tree_4_3_u03_r5_network.node[33].content_store 	decision_yes[33] 	10070
scalar tree_4_3_u03_r5_network.node[33].content_store 	decision_no[33] 	0
scalar tree_4_3_u03_r5_network.node[33].content_store 	decision_ratio[33] 	1
scalar tree_4_3_u03_r5_network.node[34].core_layer 	interests[34] 	13838
scalar tree_4_3_u03_r5_network.node[34].core_layer 	data[34] 	10090
scalar tree_4_3_u03_r5_network.node[34].content_store 	p_hit[34] 	0.27092065327359
scalar tree_4_3_u03_r5_network.node[34].content_store 	hits[34] 	3749
scalar tree_4_3_u03_r5_network.node[34].content_store 	misses[34] 	10089
scalar tree_4_3_u03_r5_network.node[34].content_store 	decision_yes[34] 	10090
scalar tree_4_3_u03_r5_network.node[34].content_store 	decision_no[34] 	0
scalar tree_4_3_u03_r5_network.node[34].content_store 	decision_ratio[34] 	1
scalar tree_4_3_u03_r5_network.node[35].core_layer 	interests[35] 	14121
scalar tree_4_3_u03_r5_network.node[35].core_layer 	data[35] 	10199
scalar tree_4_3_u03_r5_network.node[35].content_store 	p_hit[35] 	0.27774236952057
scalar tree_4_3_u03_r5_network.node[35].content_store 	hits[35] 	3922
scalar tree_4_3_u03_r5_network.node[35].content_store 	misses[35] 	10199
scalar tree_4_3_u03_r5_network.node[35].content_store 	decision_yes[35] 	10199
scalar tree_4_3_u03_r5_network.node[35].content_store 	decision_no[35] 	0
scalar tree_4_3_u03_r5_network.node[35].content_store 	decision_ratio[35] 	1
scalar tree_4_3_u03_r5_network.node[36].core_layer 	interests[36] 	13792
scalar tree_4_3_u03_r5_network.node[36].core_layer 	data[36] 	10040
scalar tree_4_3_u03_r5_network.node[36].content_store 	p_hit[36] 	0.27204176334107
scalar tree_4_3_u03_r5_network.node[36].content_store 	hits[36] 	3752
scalar tree_4_3_u03_r5_network.node[36].content_store 	misses[36] 	10040
scalar tree_4_3_u03_r5_network.node[36].content_store 	decision_yes[36] 	10040
scalar tree_4_3_u03_r5_network.node[36].content_store 	decision_no[36] 	0
scalar tree_4_3_u03_r5_network.node[36].content_store 	decision_ratio[36] 	1
scalar tree_4_3_u03_r5_network.node[37].core_layer 	interests[37] 	14543
scalar tree_4_3_u03_r5_network.node[37].core_layer 	data[37] 	10068
scalar tree_4_3_u03_r5_network.node[37].content_store 	p_hit[37] 	0.30770817575466
scalar tree_4_3_u03_r5_network.node[37].content_store 	hits[37] 	4475
scalar tree_4_3_u03_r5_network.node[37].content_store 	misses[37] 	10068
scalar tree_4_3_u03_r5_network.node[37].content_store 	decision_yes[37] 	10068
scalar tree_4_3_u03_r5_network.node[37].content_store 	decision_no[37] 	0
scalar tree_4_3_u03_r5_network.node[37].content_store 	decision_ratio[37] 	1
scalar tree_4_3_u03_r5_network.node[38].core_layer 	interests[38] 	14985
scalar tree_4_3_u03_r5_network.node[38].core_layer 	data[38] 	10313
scalar tree_4_3_u03_r5_network.node[38].content_store 	p_hit[38] 	0.31177844511178
scalar tree_4_3_u03_r5_network.node[38].content_store 	hits[38] 	4672
scalar tree_4_3_u03_r5_network.node[38].content_store 	misses[38] 	10313
scalar tree_4_3_u03_r5_network.node[38].content_store 	decision_yes[38] 	10313
scalar tree_4_3_u03_r5_network.node[38].content_store 	decision_no[38] 	0
scalar tree_4_3_u03_r5_network.node[38].content_store 	decision_ratio[38] 	1
scalar tree_4_3_u03_r5_network.node[39].core_layer 	interests[39] 	13845
scalar tree_4_3_u03_r5_network.node[39].core_layer 	data[39] 	10169
scalar tree_4_3_u03_r5_network.node[39].content_store 	p_hit[39] 	0.2653665583243
scalar tree_4_3_u03_r5_network.node[39].content_store 	hits[39] 	3674
scalar tree_4_3_u03_r5_network.node[39].content_store 	misses[39] 	10171
scalar tree_4_3_u03_r5_network.node[39].content_store 	decision_yes[39] 	10169
scalar tree_4_3_u03_r5_network.node[39].content_store 	decision_no[39] 	0
scalar tree_4_3_u03_r5_network.node[39].content_store 	decision_ratio[39] 	1
scalar tree_4_3_u03_r5_network.client[13] 	hdistance[13] 	3.194241011984
scalar tree_4_3_u03_r5_network.client[13] 	downloads[13] 	12016
scalar tree_4_3_u03_r5_network.client[13] 	avg_time[13] 	0.005078059612
scalar tree_4_3_u03_r5_network.client[14] 	hdistance[14] 	3.2277777777778
scalar tree_4_3_u03_r5_network.client[14] 	downloads[14] 	11880
scalar tree_4_3_u03_r5_network.client[14] 	avg_time[14] 	0.005128904443
scalar tree_4_3_u03_r5_network.client[15] 	hdistance[15] 	3.075157773953
scalar tree_4_3_u03_r5_network.client[15] 	downloads[15] 	12201
scalar tree_4_3_u03_r5_network.client[15] 	avg_time[15] 	0.004840737783
scalar tree_4_3_u03_r5_network.client[16] 	hdistance[16] 	3.1921889343236
scalar tree_4_3_u03_r5_network.client[16] 	downloads[16] 	11983
scalar tree_4_3_u03_r5_network.client[16] 	avg_time[16] 	0.005083487873
scalar tree_4_3_u03_r5_network.client[17] 	hdistance[17] 	3.1965167880767
scalar tree_4_3_u03_r5_network.client[17] 	downloads[17] 	11943
scalar tree_4_3_u03_r5_network.client[17] 	avg_time[17] 	0.005080126287
scalar tree_4_3_u03_r5_network.client[18] 	hdistance[18] 	3.2050666445898
scalar tree_4_3_u03_r5_network.client[18] 	downloads[18] 	12079
scalar tree_4_3_u03_r5_network.client[18] 	avg_time[18] 	0.005094119934
scalar tree_4_3_u03_r5_network.client[19] 	hdistance[19] 	3.1404573804574
scalar tree_4_3_u03_r5_network.client[19] 	downloads[19] 	12025
scalar tree_4_3_u03_r5_network.client[19] 	avg_time[19] 	0.004984149788
scalar tree_4_3_u03_r5_network.client[20] 	hdistance[20] 	3.1409901985423
scalar tree_4_3_u03_r5_network.client[20] 	downloads[20] 	11937
scalar tree_4_3_u03_r5_network.client[20] 	avg_time[20] 	0.004990698212
scalar tree_4_3_u03_r5_network.client[21] 	hdistance[21] 	3.1379686320557
scalar tree_4_3_u03_r5_network.client[21] 	downloads[21] 	11923
scalar tree_4_3_u03_r5_network.client[21] 	avg_time[21] 	0.004976935191
scalar tree_4_3_u03_r5_network.client[22] 	hdistance[22] 	3.1406888499708
scalar tree_4_3_u03_r5_network.client[22] 	downloads[22] 	11991
scalar tree_4_3_u03_r5_network.client[22] 	avg_time[22] 	0.00502221997
scalar tree_4_3_u03_r5_network.client[23] 	hdistance[23] 	3.1571416547429
scalar tree_4_3_u03_r5_network.client[23] 	downloads[23] 	11881
scalar tree_4_3_u03_r5_network.client[23] 	avg_time[23] 	0.005050076991
scalar tree_4_3_u03_r5_network.client[24] 	hdistance[24] 	3.1492825375514
scalar tree_4_3_u03_r5_network.client[24] 	downloads[24] 	11917
scalar tree_4_3_u03_r5_network.client[24] 	avg_time[24] 	0.005042947875
scalar tree_4_3_u03_r5_network.client[25] 	hdistance[25] 	3.2167608127477
scalar tree_4_3_u03_r5_network.client[25] 	downloads[25] 	11861
scalar tree_4_3_u03_r5_network.client[25] 	avg_time[25] 	0.005059041116
scalar tree_4_3_u03_r5_network.client[26] 	hdistance[26] 	3.2378542510121
scalar tree_4_3_u03_r5_network.client[26] 	downloads[26] 	11856
scalar tree_4_3_u03_r5_network.client[26] 	avg_time[26] 	0.005101752977
scalar tree_4_3_u03_r5_network.client[27] 	hdistance[27] 	3.0892902141957
scalar tree_4_3_u03_r5_network.client[27] 	downloads[27] 	11905
scalar tree_4_3_u03_r5_network.client[27] 	avg_time[27] 	0.004910538817
scalar tree_4_3_u03_r5_network.client[28] 	hdistance[28] 	3.03495921425
scalar tree_4_3_u03_r5_network.client[28] 	downloads[28] 	12014
scalar tree_4_3_u03_r5_network.client[28] 	avg_time[28] 	0.004888563838
scalar tree_4_3_u03_r5_network.client[29] 	hdistance[29] 	3.1450004121672
scalar tree_4_3_u03_r5_network.client[29] 	downloads[29] 	12131
scalar tree_4_3_u03_r5_network.client[29] 	avg_time[29] 	0.005030085167
scalar tree_4_3_u03_r5_network.client[30] 	hdistance[30] 	3.1545325660912
scalar tree_4_3_u03_r5_network.client[30] 	downloads[30] 	11991
scalar tree_4_3_u03_r5_network.client[30] 	avg_time[30] 	0.00504537675
scalar tree_4_3_u03_r5_network.client[31] 	hdistance[31] 	3.1561053605992
scalar tree_4_3_u03_r5_network.client[31] 	downloads[31] 	11883
scalar tree_4_3_u03_r5_network.client[31] 	avg_time[31] 	0.005010637623
scalar tree_4_3_u03_r5_network.client[32] 	hdistance[32] 	3.1647078576226
scalar tree_4_3_u03_r5_network.client[32] 	downloads[32] 	11912
scalar tree_4_3_u03_r5_network.client[32] 	avg_time[32] 	0.005018617876
scalar tree_4_3_u03_r5_network.client[33] 	hdistance[33] 	3.0991529646238
scalar tree_4_3_u03_r5_network.client[33] 	downloads[33] 	12042
scalar tree_4_3_u03_r5_network.client[33] 	avg_time[33] 	0.004887635931
scalar tree_4_3_u03_r5_network.client[34] 	hdistance[34] 	3.1705857914416
scalar tree_4_3_u03_r5_network.client[34] 	downloads[34] 	12035
scalar tree_4_3_u03_r5_network.client[34] 	avg_time[34] 	0.005019835854
scalar tree_4_3_u03_r5_network.client[35] 	hdistance[35] 	3.1407383261348
scalar tree_4_3_u03_r5_network.client[35] 	downloads[35] 	12271
scalar tree_4_3_u03_r5_network.client[35] 	avg_time[35] 	0.004979442443
scalar tree_4_3_u03_r5_network.client[36] 	hdistance[36] 	3.1624458513829
scalar tree_4_3_u03_r5_network.client[36] 	downloads[36] 	12004
scalar tree_4_3_u03_r5_network.client[36] 	avg_time[36] 	0.005006222203
scalar tree_4_3_u03_r5_network.client[37] 	hdistance[37] 	3.0602804888051
scalar tree_4_3_u03_r5_network.client[37] 	downloads[37] 	12193
scalar tree_4_3_u03_r5_network.client[37] 	avg_time[37] 	0.00482245999
scalar tree_4_3_u03_r5_network.client[38] 	hdistance[38] 	3.1022004889976
scalar tree_4_3_u03_r5_network.client[38] 	downloads[38] 	12270
scalar tree_4_3_u03_r5_network.client[38] 	avg_time[38] 	0.004879540522
scalar tree_4_3_u03_r5_network.client[39] 	hdistance[39] 	3.1515201314708
scalar tree_4_3_u03_r5_network.client[39] 	downloads[39] 	12170
scalar tree_4_3_u03_r5_network.client[39] 	avg_time[39] 	0.004992737394
