version 2
run General-73-20160818-19:10:07-19481
attr a 0.9
attr cd lce
attr configname General
attr cr lru
attr datetime 20160818-19:10:07
attr experiment General
attr fsize 1
attr inifile hw5115/scenario_A/EdgeCoop.ini
attr iterationvars "$name=tree_4_3, $un=03, $rep=14, $scenario=Edge, $cd=lce, $cr=lru, $fsize=1, $a=0.9, $sl=nrr, $ttl=1000, $variance=0.05"
attr iterationvars2 "$name=tree_4_3, $un=03, $rep=14, $scenario=Edge, $cd=lce, $cr=lru, $fsize=1, $a=0.9, $sl=nrr, $ttl=1000, $variance=0.05, $repetition=0"
attr measurement "$name=tree_4_3, $un=03, $rep=14, $scenario=Edge, $cd=lce, $cr=lru, $fsize=1, $a=0.9, $sl=nrr, $ttl=1000, $variance=0.05"
attr name tree_4_3
attr network networks.${name}_u${un}_r${rep}_network
attr processid 19481
attr rep 14
attr repetition 0
attr replication #0
attr resultdir results
attr runnumber 73
attr scenario Edge
attr seedset 14
attr sl nrr
attr ttl 1000
attr un 03
attr variance 0.05

scalar . 	a 	0.9
scalar . 	fsize 	1
scalar . 	rep 	14
scalar . 	ttl 	1000
scalar . 	un 	03
scalar . 	variance 	0.05
scalar tree_4_3_u03_r14_network.content_distribution 	repo-0 	0
scalar tree_4_3_u03_r14_network.content_distribution 	client-0 	13
scalar tree_4_3_u03_r14_network.content_distribution 	client-1 	14
scalar tree_4_3_u03_r14_network.content_distribution 	client-2 	15
scalar tree_4_3_u03_r14_network.content_distribution 	client-3 	16
scalar tree_4_3_u03_r14_network.content_distribution 	client-4 	17
scalar tree_4_3_u03_r14_network.content_distribution 	client-5 	18
scalar tree_4_3_u03_r14_network.content_distribution 	client-6 	19
scalar tree_4_3_u03_r14_network.content_distribution 	client-7 	20
scalar tree_4_3_u03_r14_network.content_distribution 	client-8 	21
scalar tree_4_3_u03_r14_network.content_distribution 	client-9 	22
scalar tree_4_3_u03_r14_network.content_distribution 	client-10 	23
scalar tree_4_3_u03_r14_network.content_distribution 	client-11 	24
scalar tree_4_3_u03_r14_network.content_distribution 	client-12 	25
scalar tree_4_3_u03_r14_network.content_distribution 	client-13 	26
scalar tree_4_3_u03_r14_network.content_distribution 	client-14 	27
scalar tree_4_3_u03_r14_network.content_distribution 	client-15 	28
scalar tree_4_3_u03_r14_network.content_distribution 	client-16 	29
scalar tree_4_3_u03_r14_network.content_distribution 	client-17 	30
scalar tree_4_3_u03_r14_network.content_distribution 	client-18 	31
scalar tree_4_3_u03_r14_network.content_distribution 	client-19 	32
scalar tree_4_3_u03_r14_network.content_distribution 	client-20 	33
scalar tree_4_3_u03_r14_network.content_distribution 	client-21 	34
scalar tree_4_3_u03_r14_network.content_distribution 	client-22 	35
scalar tree_4_3_u03_r14_network.content_distribution 	client-23 	36
scalar tree_4_3_u03_r14_network.content_distribution 	client-24 	37
scalar tree_4_3_u03_r14_network.content_distribution 	client-25 	38
scalar tree_4_3_u03_r14_network.content_distribution 	client-26 	39
scalar tree_4_3_u03_r14_network.content_distribution 	repo-0_card 	100000
scalar tree_4_3_u03_r14_network.content_distribution 	repo-0_price 	0
scalar tree_4_3_u03_r14_network.statistics 	stabilization_time 	334.5
scalar tree_4_3_u03_r14_network.statistics 	p_hit 	0.20166130743512
scalar tree_4_3_u03_r14_network.statistics 	interests 	28567.525
scalar tree_4_3_u03_r14_network.statistics 	data 	20450.275
scalar tree_4_3_u03_r14_network.statistics 	hdistance 	3.1585978635155
scalar tree_4_3_u03_r14_network.statistics 	avg_time 	0.005038807286
scalar tree_4_3_u03_r14_network.statistics 	downloads 	324667
scalar tree_4_3_u03_r14_network.statistics 	total_cost 	0
scalar tree_4_3_u03_r14_network.statistics 	total_replicas 	100000
scalar tree_4_3_u03_r14_network.statistics 	inner_hit 	0.36080353100253
scalar tree_4_3_u03_r14_network.node[0].core_layer 	interests[0] 	207526
scalar tree_4_3_u03_r14_network.node[0].core_layer 	repo_load[0] 	207526
scalar tree_4_3_u03_r14_network.node[0].core_layer 	data[0] 	0
scalar tree_4_3_u03_r14_network.node[0].core_layer 	repo_int[0] 	207526
scalar tree_4_3_u03_r14_network.node[0].content_store 	p_hit[0] 	0
scalar tree_4_3_u03_r14_network.node[0].content_store 	hits[0] 	0
scalar tree_4_3_u03_r14_network.node[0].content_store 	misses[0] 	207526
scalar tree_4_3_u03_r14_network.node[0].content_store 	decision_yes[0] 	0
scalar tree_4_3_u03_r14_network.node[0].content_store 	decision_no[0] 	207526
scalar tree_4_3_u03_r14_network.node[0].content_store 	decision_ratio[0] 	0
scalar tree_4_3_u03_r14_network.node[1].core_layer 	interests[1] 	76748
scalar tree_4_3_u03_r14_network.node[1].core_layer 	data[1] 	76747
scalar tree_4_3_u03_r14_network.node[1].content_store 	p_hit[1] 	0
scalar tree_4_3_u03_r14_network.node[1].content_store 	hits[1] 	0
scalar tree_4_3_u03_r14_network.node[1].content_store 	misses[1] 	76748
scalar tree_4_3_u03_r14_network.node[1].content_store 	decision_yes[1] 	0
scalar tree_4_3_u03_r14_network.node[1].content_store 	decision_no[1] 	76743
scalar tree_4_3_u03_r14_network.node[1].content_store 	decision_ratio[1] 	0
scalar tree_4_3_u03_r14_network.node[2].core_layer 	interests[2] 	115553
scalar tree_4_3_u03_r14_network.node[2].core_layer 	data[2] 	115539
scalar tree_4_3_u03_r14_network.node[2].content_store 	p_hit[2] 	0
scalar tree_4_3_u03_r14_network.node[2].content_store 	hits[2] 	0
scalar tree_4_3_u03_r14_network.node[2].content_store 	misses[2] 	115553
scalar tree_4_3_u03_r14_network.node[2].content_store 	decision_yes[2] 	0
scalar tree_4_3_u03_r14_network.node[2].content_store 	decision_no[2] 	115528
scalar tree_4_3_u03_r14_network.node[2].content_store 	decision_ratio[2] 	0
scalar tree_4_3_u03_r14_network.node[3].core_layer 	interests[3] 	48792
scalar tree_4_3_u03_r14_network.node[3].core_layer 	data[3] 	48789
scalar tree_4_3_u03_r14_network.node[3].content_store 	p_hit[3] 	0
scalar tree_4_3_u03_r14_network.node[3].content_store 	hits[3] 	0
scalar tree_4_3_u03_r14_network.node[3].content_store 	misses[3] 	48792
scalar tree_4_3_u03_r14_network.node[3].content_store 	decision_yes[3] 	0
scalar tree_4_3_u03_r14_network.node[3].content_store 	decision_no[3] 	48783
scalar tree_4_3_u03_r14_network.node[3].content_store 	decision_ratio[3] 	0
scalar tree_4_3_u03_r14_network.node[4].core_layer 	interests[4] 	32301
scalar tree_4_3_u03_r14_network.node[4].core_layer 	data[4] 	32297
scalar tree_4_3_u03_r14_network.node[4].content_store 	p_hit[4] 	0
scalar tree_4_3_u03_r14_network.node[4].content_store 	hits[4] 	0
scalar tree_4_3_u03_r14_network.node[4].content_store 	misses[4] 	32301
scalar tree_4_3_u03_r14_network.node[4].content_store 	decision_yes[4] 	0
scalar tree_4_3_u03_r14_network.node[4].content_store 	decision_no[4] 	32295
scalar tree_4_3_u03_r14_network.node[4].content_store 	decision_ratio[4] 	0
scalar tree_4_3_u03_r14_network.node[5].core_layer 	interests[5] 	47245
scalar tree_4_3_u03_r14_network.node[5].core_layer 	data[5] 	47240
scalar tree_4_3_u03_r14_network.node[5].content_store 	p_hit[5] 	0
scalar tree_4_3_u03_r14_network.node[5].content_store 	hits[5] 	0
scalar tree_4_3_u03_r14_network.node[5].content_store 	misses[5] 	47245
scalar tree_4_3_u03_r14_network.node[5].content_store 	decision_yes[5] 	0
scalar tree_4_3_u03_r14_network.node[5].content_store 	decision_no[5] 	47232
scalar tree_4_3_u03_r14_network.node[5].content_store 	decision_ratio[5] 	0
scalar tree_4_3_u03_r14_network.node[6].core_layer 	interests[6] 	21880
scalar tree_4_3_u03_r14_network.node[6].core_layer 	data[6] 	21880
scalar tree_4_3_u03_r14_network.node[6].content_store 	p_hit[6] 	0
scalar tree_4_3_u03_r14_network.node[6].content_store 	hits[6] 	0
scalar tree_4_3_u03_r14_network.node[6].content_store 	misses[6] 	21880
scalar tree_4_3_u03_r14_network.node[6].content_store 	decision_yes[6] 	0
scalar tree_4_3_u03_r14_network.node[6].content_store 	decision_no[6] 	21878
scalar tree_4_3_u03_r14_network.node[6].content_store 	decision_ratio[6] 	0
scalar tree_4_3_u03_r14_network.node[7].core_layer 	interests[7] 	52910
scalar tree_4_3_u03_r14_network.node[7].core_layer 	data[7] 	52903
scalar tree_4_3_u03_r14_network.node[7].content_store 	p_hit[7] 	0
scalar tree_4_3_u03_r14_network.node[7].content_store 	hits[7] 	0
scalar tree_4_3_u03_r14_network.node[7].content_store 	misses[7] 	52910
scalar tree_4_3_u03_r14_network.node[7].content_store 	decision_yes[7] 	0
scalar tree_4_3_u03_r14_network.node[7].content_store 	decision_no[7] 	52900
scalar tree_4_3_u03_r14_network.node[7].content_store 	decision_ratio[7] 	0
scalar tree_4_3_u03_r14_network.node[8].core_layer 	interests[8] 	23291
scalar tree_4_3_u03_r14_network.node[8].core_layer 	data[8] 	23290
scalar tree_4_3_u03_r14_network.node[8].content_store 	p_hit[8] 	0
scalar tree_4_3_u03_r14_network.node[8].content_store 	hits[8] 	0
scalar tree_4_3_u03_r14_network.node[8].content_store 	misses[8] 	23291
scalar tree_4_3_u03_r14_network.node[8].content_store 	decision_yes[8] 	0
scalar tree_4_3_u03_r14_network.node[8].content_store 	decision_no[8] 	23285
scalar tree_4_3_u03_r14_network.node[8].content_store 	decision_ratio[8] 	0
scalar tree_4_3_u03_r14_network.node[9].core_layer 	interests[9] 	25600
scalar tree_4_3_u03_r14_network.node[9].core_layer 	data[9] 	25597
scalar tree_4_3_u03_r14_network.node[9].content_store 	p_hit[9] 	0
scalar tree_4_3_u03_r14_network.node[9].content_store 	hits[9] 	0
scalar tree_4_3_u03_r14_network.node[9].content_store 	misses[9] 	25600
scalar tree_4_3_u03_r14_network.node[9].content_store 	decision_yes[9] 	0
scalar tree_4_3_u03_r14_network.node[9].content_store 	decision_no[9] 	25595
scalar tree_4_3_u03_r14_network.node[9].content_store 	decision_ratio[9] 	0
scalar tree_4_3_u03_r14_network.node[10].core_layer 	interests[10] 	32776
scalar tree_4_3_u03_r14_network.node[10].core_layer 	data[10] 	32773
scalar tree_4_3_u03_r14_network.node[10].content_store 	p_hit[10] 	0
scalar tree_4_3_u03_r14_network.node[10].content_store 	hits[10] 	0
scalar tree_4_3_u03_r14_network.node[10].content_store 	misses[10] 	32776
scalar tree_4_3_u03_r14_network.node[10].content_store 	decision_yes[10] 	0
scalar tree_4_3_u03_r14_network.node[10].content_store 	decision_no[10] 	32769
scalar tree_4_3_u03_r14_network.node[10].content_store 	decision_ratio[10] 	0
scalar tree_4_3_u03_r14_network.node[11].core_layer 	interests[11] 	46661
scalar tree_4_3_u03_r14_network.node[11].core_layer 	data[11] 	46654
scalar tree_4_3_u03_r14_network.node[11].content_store 	p_hit[11] 	0
scalar tree_4_3_u03_r14_network.node[11].content_store 	hits[11] 	0
scalar tree_4_3_u03_r14_network.node[11].content_store 	misses[11] 	46661
scalar tree_4_3_u03_r14_network.node[11].content_store 	decision_yes[11] 	0
scalar tree_4_3_u03_r14_network.node[11].content_store 	decision_no[11] 	46645
scalar tree_4_3_u03_r14_network.node[11].content_store 	decision_ratio[11] 	0
scalar tree_4_3_u03_r14_network.node[12].core_layer 	interests[12] 	22595
scalar tree_4_3_u03_r14_network.node[12].core_layer 	data[12] 	22595
scalar tree_4_3_u03_r14_network.node[12].content_store 	p_hit[12] 	0
scalar tree_4_3_u03_r14_network.node[12].content_store 	hits[12] 	0
scalar tree_4_3_u03_r14_network.node[12].content_store 	misses[12] 	22595
scalar tree_4_3_u03_r14_network.node[12].content_store 	decision_yes[12] 	0
scalar tree_4_3_u03_r14_network.node[12].content_store 	decision_no[12] 	22592
scalar tree_4_3_u03_r14_network.node[12].content_store 	decision_ratio[12] 	0
scalar tree_4_3_u03_r14_network.node[13].core_layer 	interests[13] 	13462
scalar tree_4_3_u03_r14_network.node[13].core_layer 	data[13] 	10025
scalar tree_4_3_u03_r14_network.node[13].content_store 	p_hit[13] 	0.25531124647155
scalar tree_4_3_u03_r14_network.node[13].content_store 	hits[13] 	3437
scalar tree_4_3_u03_r14_network.node[13].content_store 	misses[13] 	10025
scalar tree_4_3_u03_r14_network.node[13].content_store 	decision_yes[13] 	10025
scalar tree_4_3_u03_r14_network.node[13].content_store 	decision_no[13] 	0
scalar tree_4_3_u03_r14_network.node[13].content_store 	decision_ratio[13] 	1
scalar tree_4_3_u03_r14_network.node[14].core_layer 	interests[14] 	13644
scalar tree_4_3_u03_r14_network.node[14].core_layer 	data[14] 	10261
scalar tree_4_3_u03_r14_network.node[14].content_store 	p_hit[14] 	0.24794781588977
scalar tree_4_3_u03_r14_network.node[14].content_store 	hits[14] 	3383
scalar tree_4_3_u03_r14_network.node[14].content_store 	misses[14] 	10261
scalar tree_4_3_u03_r14_network.node[14].content_store 	decision_yes[14] 	10261
scalar tree_4_3_u03_r14_network.node[14].content_store 	decision_no[14] 	0
scalar tree_4_3_u03_r14_network.node[14].content_store 	decision_ratio[14] 	1
scalar tree_4_3_u03_r14_network.node[15].core_layer 	interests[15] 	13572
scalar tree_4_3_u03_r14_network.node[15].core_layer 	data[15] 	10232
scalar tree_4_3_u03_r14_network.node[15].content_store 	p_hit[15] 	0.24609490126732
scalar tree_4_3_u03_r14_network.node[15].content_store 	hits[15] 	3340
scalar tree_4_3_u03_r14_network.node[15].content_store 	misses[15] 	10232
scalar tree_4_3_u03_r14_network.node[15].content_store 	decision_yes[15] 	10232
scalar tree_4_3_u03_r14_network.node[15].content_store 	decision_no[15] 	0
scalar tree_4_3_u03_r14_network.node[15].content_store 	decision_ratio[15] 	1
scalar tree_4_3_u03_r14_network.node[16].core_layer 	interests[16] 	15272
scalar tree_4_3_u03_r14_network.node[16].core_layer 	data[16] 	10042
scalar tree_4_3_u03_r14_network.node[16].content_store 	p_hit[16] 	0.34232582503929
scalar tree_4_3_u03_r14_network.node[16].content_store 	hits[16] 	5228
scalar tree_4_3_u03_r14_network.node[16].content_store 	misses[16] 	10044
scalar tree_4_3_u03_r14_network.node[16].content_store 	decision_yes[16] 	10042
scalar tree_4_3_u03_r14_network.node[16].content_store 	decision_no[16] 	0
scalar tree_4_3_u03_r14_network.node[16].content_store 	decision_ratio[16] 	1
scalar tree_4_3_u03_r14_network.node[17].core_layer 	interests[17] 	15105
scalar tree_4_3_u03_r14_network.node[17].core_layer 	data[17] 	9994
scalar tree_4_3_u03_r14_network.node[17].content_store 	p_hit[17] 	0.33836477987421
scalar tree_4_3_u03_r14_network.node[17].content_store 	hits[17] 	5111
scalar tree_4_3_u03_r14_network.node[17].content_store 	misses[17] 	9994
scalar tree_4_3_u03_r14_network.node[17].content_store 	decision_yes[17] 	9994
scalar tree_4_3_u03_r14_network.node[17].content_store 	decision_no[17] 	0
scalar tree_4_3_u03_r14_network.node[17].content_store 	decision_ratio[17] 	1
scalar tree_4_3_u03_r14_network.node[18].core_layer 	interests[18] 	15008
scalar tree_4_3_u03_r14_network.node[18].core_layer 	data[18] 	10026
scalar tree_4_3_u03_r14_network.node[18].content_store 	p_hit[18] 	0.33188965884861
scalar tree_4_3_u03_r14_network.node[18].content_store 	hits[18] 	4981
scalar tree_4_3_u03_r14_network.node[18].content_store 	misses[18] 	10027
scalar tree_4_3_u03_r14_network.node[18].content_store 	decision_yes[18] 	10026
scalar tree_4_3_u03_r14_network.node[18].content_store 	decision_no[18] 	0
scalar tree_4_3_u03_r14_network.node[18].content_store 	decision_ratio[18] 	1
scalar tree_4_3_u03_r14_network.node[19].core_layer 	interests[19] 	13266
scalar tree_4_3_u03_r14_network.node[19].core_layer 	data[19] 	9979
scalar tree_4_3_u03_r14_network.node[19].content_store 	p_hit[19] 	0.24777627016433
scalar tree_4_3_u03_r14_network.node[19].content_store 	hits[19] 	3287
scalar tree_4_3_u03_r14_network.node[19].content_store 	misses[19] 	9979
scalar tree_4_3_u03_r14_network.node[19].content_store 	decision_yes[19] 	9979
scalar tree_4_3_u03_r14_network.node[19].content_store 	decision_no[19] 	0
scalar tree_4_3_u03_r14_network.node[19].content_store 	decision_ratio[19] 	1
scalar tree_4_3_u03_r14_network.node[20].core_layer 	interests[20] 	15875
scalar tree_4_3_u03_r14_network.node[20].core_layer 	data[20] 	9890
scalar tree_4_3_u03_r14_network.node[20].content_store 	p_hit[20] 	0.37700787401575
scalar tree_4_3_u03_r14_network.node[20].content_store 	hits[20] 	5985
scalar tree_4_3_u03_r14_network.node[20].content_store 	misses[20] 	9890
scalar tree_4_3_u03_r14_network.node[20].content_store 	decision_yes[20] 	9890
scalar tree_4_3_u03_r14_network.node[20].content_store 	decision_no[20] 	0
scalar tree_4_3_u03_r14_network.node[20].content_store 	decision_ratio[20] 	1
scalar tree_4_3_u03_r14_network.node[21].core_layer 	interests[21] 	13288
scalar tree_4_3_u03_r14_network.node[21].core_layer 	data[21] 	10019
scalar tree_4_3_u03_r14_network.node[21].content_store 	p_hit[21] 	0.24601143889223
scalar tree_4_3_u03_r14_network.node[21].content_store 	hits[21] 	3269
scalar tree_4_3_u03_r14_network.node[21].content_store 	misses[21] 	10019
scalar tree_4_3_u03_r14_network.node[21].content_store 	decision_yes[21] 	10019
scalar tree_4_3_u03_r14_network.node[21].content_store 	decision_no[21] 	0
scalar tree_4_3_u03_r14_network.node[21].content_store 	decision_ratio[21] 	1
scalar tree_4_3_u03_r14_network.node[22].core_layer 	interests[22] 	14172
scalar tree_4_3_u03_r14_network.node[22].core_layer 	data[22] 	10138
scalar tree_4_3_u03_r14_network.node[22].content_store 	p_hit[22] 	0.28471634208298
scalar tree_4_3_u03_r14_network.node[22].content_store 	hits[22] 	4035
scalar tree_4_3_u03_r14_network.node[22].content_store 	misses[22] 	10137
scalar tree_4_3_u03_r14_network.node[22].content_store 	decision_yes[22] 	10138
scalar tree_4_3_u03_r14_network.node[22].content_store 	decision_no[22] 	0
scalar tree_4_3_u03_r14_network.node[22].content_store 	decision_ratio[22] 	1
scalar tree_4_3_u03_r14_network.node[23].core_layer 	interests[23] 	14873
scalar tree_4_3_u03_r14_network.node[23].core_layer 	data[23] 	9989
scalar tree_4_3_u03_r14_network.node[23].content_store 	p_hit[23] 	0.3282458145633
scalar tree_4_3_u03_r14_network.node[23].content_store 	hits[23] 	4882
scalar tree_4_3_u03_r14_network.node[23].content_store 	misses[23] 	9991
scalar tree_4_3_u03_r14_network.node[23].content_store 	decision_yes[23] 	9989
scalar tree_4_3_u03_r14_network.node[23].content_store 	decision_no[23] 	0
scalar tree_4_3_u03_r14_network.node[23].content_store 	decision_ratio[23] 	1
scalar tree_4_3_u03_r14_network.node[24].core_layer 	interests[24] 	14093
scalar tree_4_3_u03_r14_network.node[24].core_layer 	data[24] 	10150
scalar tree_4_3_u03_r14_network.node[24].content_store 	p_hit[24] 	0.27978429007309
scalar tree_4_3_u03_r14_network.node[24].content_store 	hits[24] 	3943
scalar tree_4_3_u03_r14_network.node[24].content_store 	misses[24] 	10150
scalar tree_4_3_u03_r14_network.node[24].content_store 	decision_yes[24] 	10150
scalar tree_4_3_u03_r14_network.node[24].content_store 	decision_no[24] 	0
scalar tree_4_3_u03_r14_network.node[24].content_store 	decision_ratio[24] 	1
scalar tree_4_3_u03_r14_network.node[25].core_layer 	interests[25] 	14959
scalar tree_4_3_u03_r14_network.node[25].core_layer 	data[25] 	9902
scalar tree_4_3_u03_r14_network.node[25].content_store 	p_hit[25] 	0.33799050738686
scalar tree_4_3_u03_r14_network.node[25].content_store 	hits[25] 	5056
scalar tree_4_3_u03_r14_network.node[25].content_store 	misses[25] 	9903
scalar tree_4_3_u03_r14_network.node[25].content_store 	decision_yes[25] 	9902
scalar tree_4_3_u03_r14_network.node[25].content_store 	decision_no[25] 	0
scalar tree_4_3_u03_r14_network.node[25].content_store 	decision_ratio[25] 	1
scalar tree_4_3_u03_r14_network.node[26].core_layer 	interests[26] 	13805
scalar tree_4_3_u03_r14_network.node[26].core_layer 	data[26] 	10080
scalar tree_4_3_u03_r14_network.node[26].content_store 	p_hit[26] 	0.26975733429917
scalar tree_4_3_u03_r14_network.node[26].content_store 	hits[26] 	3724
scalar tree_4_3_u03_r14_network.node[26].content_store 	misses[26] 	10081
scalar tree_4_3_u03_r14_network.node[26].content_store 	decision_yes[26] 	10080
scalar tree_4_3_u03_r14_network.node[26].content_store 	decision_no[26] 	0
scalar tree_4_3_u03_r14_network.node[26].content_store 	decision_ratio[26] 	1
scalar tree_4_3_u03_r14_network.node[27].core_layer 	interests[27] 	13967
scalar tree_4_3_u03_r14_network.node[27].core_layer 	data[27] 	10191
scalar tree_4_3_u03_r14_network.node[27].content_store 	p_hit[27] 	0.2703515429226
scalar tree_4_3_u03_r14_network.node[27].content_store 	hits[27] 	3776
scalar tree_4_3_u03_r14_network.node[27].content_store 	misses[27] 	10191
scalar tree_4_3_u03_r14_network.node[27].content_store 	decision_yes[27] 	10191
scalar tree_4_3_u03_r14_network.node[27].content_store 	decision_no[27] 	0
scalar tree_4_3_u03_r14_network.node[27].content_store 	decision_ratio[27] 	1
scalar tree_4_3_u03_r14_network.node[28].core_layer 	interests[28] 	16114
scalar tree_4_3_u03_r14_network.node[28].core_layer 	data[28] 	10027
scalar tree_4_3_u03_r14_network.node[28].content_store 	p_hit[28] 	0.37762194365148
scalar tree_4_3_u03_r14_network.node[28].content_store 	hits[28] 	6085
scalar tree_4_3_u03_r14_network.node[28].content_store 	misses[28] 	10029
scalar tree_4_3_u03_r14_network.node[28].content_store 	decision_yes[28] 	10027
scalar tree_4_3_u03_r14_network.node[28].content_store 	decision_no[28] 	0
scalar tree_4_3_u03_r14_network.node[28].content_store 	decision_ratio[28] 	1
scalar tree_4_3_u03_r14_network.node[29].core_layer 	interests[29] 	14487
scalar tree_4_3_u03_r14_network.node[29].core_layer 	data[29] 	10077
scalar tree_4_3_u03_r14_network.node[29].content_store 	p_hit[29] 	0.30441085110789
scalar tree_4_3_u03_r14_network.node[29].content_store 	hits[29] 	4410
scalar tree_4_3_u03_r14_network.node[29].content_store 	misses[29] 	10077
scalar tree_4_3_u03_r14_network.node[29].content_store 	decision_yes[29] 	10077
scalar tree_4_3_u03_r14_network.node[29].content_store 	decision_no[29] 	0
scalar tree_4_3_u03_r14_network.node[29].content_store 	decision_ratio[29] 	1
scalar tree_4_3_u03_r14_network.node[30].core_layer 	interests[30] 	14786
scalar tree_4_3_u03_r14_network.node[30].core_layer 	data[30] 	10097
scalar tree_4_3_u03_r14_network.node[30].content_store 	p_hit[30] 	0.31698904368998
scalar tree_4_3_u03_r14_network.node[30].content_store 	hits[30] 	4687
scalar tree_4_3_u03_r14_network.node[30].content_store 	misses[30] 	10099
scalar tree_4_3_u03_r14_network.node[30].content_store 	decision_yes[30] 	10097
scalar tree_4_3_u03_r14_network.node[30].content_store 	decision_no[30] 	0
scalar tree_4_3_u03_r14_network.node[30].content_store 	decision_ratio[30] 	1
scalar tree_4_3_u03_r14_network.node[31].core_layer 	interests[31] 	13835
scalar tree_4_3_u03_r14_network.node[31].core_layer 	data[31] 	10183
scalar tree_4_3_u03_r14_network.node[31].content_store 	p_hit[31] 	0.2637513552584
scalar tree_4_3_u03_r14_network.node[31].content_store 	hits[31] 	3649
scalar tree_4_3_u03_r14_network.node[31].content_store 	misses[31] 	10186
scalar tree_4_3_u03_r14_network.node[31].content_store 	decision_yes[31] 	10183
scalar tree_4_3_u03_r14_network.node[31].content_store 	decision_no[31] 	0
scalar tree_4_3_u03_r14_network.node[31].content_store 	decision_ratio[31] 	1
scalar tree_4_3_u03_r14_network.node[32].core_layer 	interests[32] 	13715
scalar tree_4_3_u03_r14_network.node[32].core_layer 	data[32] 	10099
scalar tree_4_3_u03_r14_network.node[32].content_store 	p_hit[32] 	0.26358002187386
scalar tree_4_3_u03_r14_network.node[32].content_store 	hits[32] 	3615
scalar tree_4_3_u03_r14_network.node[32].content_store 	misses[32] 	10100
scalar tree_4_3_u03_r14_network.node[32].content_store 	decision_yes[32] 	10099
scalar tree_4_3_u03_r14_network.node[32].content_store 	decision_no[32] 	0
scalar tree_4_3_u03_r14_network.node[32].content_store 	decision_ratio[32] 	1
scalar tree_4_3_u03_r14_network.node[33].core_layer 	interests[33] 	13615
scalar tree_4_3_u03_r14_network.node[33].core_layer 	data[33] 	9967
scalar tree_4_3_u03_r14_network.node[33].content_store 	p_hit[33] 	0.26793977230995
scalar tree_4_3_u03_r14_network.node[33].content_store 	hits[33] 	3648
scalar tree_4_3_u03_r14_network.node[33].content_store 	misses[33] 	9967
scalar tree_4_3_u03_r14_network.node[33].content_store 	decision_yes[33] 	9967
scalar tree_4_3_u03_r14_network.node[33].content_store 	decision_no[33] 	0
scalar tree_4_3_u03_r14_network.node[33].content_store 	decision_ratio[33] 	1
scalar tree_4_3_u03_r14_network.node[34].core_layer 	interests[34] 	14991
scalar tree_4_3_u03_r14_network.node[34].core_layer 	data[34] 	10080
scalar tree_4_3_u03_r14_network.node[34].content_store 	p_hit[34] 	0.32752985124408
scalar tree_4_3_u03_r14_network.node[34].content_store 	hits[34] 	4910
scalar tree_4_3_u03_r14_network.node[34].content_store 	misses[34] 	10081
scalar tree_4_3_u03_r14_network.node[34].content_store 	decision_yes[34] 	10080
scalar tree_4_3_u03_r14_network.node[34].content_store 	decision_no[34] 	0
scalar tree_4_3_u03_r14_network.node[34].content_store 	decision_ratio[34] 	1
scalar tree_4_3_u03_r14_network.node[35].core_layer 	interests[35] 	14835
scalar tree_4_3_u03_r14_network.node[35].core_layer 	data[35] 	9916
scalar tree_4_3_u03_r14_network.node[35].content_store 	p_hit[35] 	0.33151331311089
scalar tree_4_3_u03_r14_network.node[35].content_store 	hits[35] 	4918
scalar tree_4_3_u03_r14_network.node[35].content_store 	misses[35] 	9917
scalar tree_4_3_u03_r14_network.node[35].content_store 	decision_yes[35] 	9916
scalar tree_4_3_u03_r14_network.node[35].content_store 	decision_no[35] 	0
scalar tree_4_3_u03_r14_network.node[35].content_store 	decision_ratio[35] 	1
scalar tree_4_3_u03_r14_network.node[36].core_layer 	interests[36] 	14901
scalar tree_4_3_u03_r14_network.node[36].core_layer 	data[36] 	10078
scalar tree_4_3_u03_r14_network.node[36].content_store 	p_hit[36] 	0.32360244278907
scalar tree_4_3_u03_r14_network.node[36].content_store 	hits[36] 	4822
scalar tree_4_3_u03_r14_network.node[36].content_store 	misses[36] 	10079
scalar tree_4_3_u03_r14_network.node[36].content_store 	decision_yes[36] 	10078
scalar tree_4_3_u03_r14_network.node[36].content_store 	decision_no[36] 	0
scalar tree_4_3_u03_r14_network.node[36].content_store 	decision_ratio[36] 	1
scalar tree_4_3_u03_r14_network.node[37].core_layer 	interests[37] 	13644
scalar tree_4_3_u03_r14_network.node[37].core_layer 	data[37] 	10224
scalar tree_4_3_u03_r14_network.node[37].content_store 	p_hit[37] 	0.25065963060686
scalar tree_4_3_u03_r14_network.node[37].content_store 	hits[37] 	3420
scalar tree_4_3_u03_r14_network.node[37].content_store 	misses[37] 	10224
scalar tree_4_3_u03_r14_network.node[37].content_store 	decision_yes[37] 	10224
scalar tree_4_3_u03_r14_network.node[37].content_store 	decision_no[37] 	0
scalar tree_4_3_u03_r14_network.node[37].content_store 	decision_ratio[37] 	1
scalar tree_4_3_u03_r14_network.node[38].core_layer 	interests[38] 	15872
scalar tree_4_3_u03_r14_network.node[38].core_layer 	data[38] 	10008
scalar tree_4_3_u03_r14_network.node[38].content_store 	p_hit[38] 	0.36945564516129
scalar tree_4_3_u03_r14_network.node[38].content_store 	hits[38] 	5864
scalar tree_4_3_u03_r14_network.node[38].content_store 	misses[38] 	10008
scalar tree_4_3_u03_r14_network.node[38].content_store 	decision_yes[38] 	10008
scalar tree_4_3_u03_r14_network.node[38].content_store 	decision_no[38] 	0
scalar tree_4_3_u03_r14_network.node[38].content_store 	decision_ratio[38] 	1
scalar tree_4_3_u03_r14_network.node[39].core_layer 	interests[39] 	13667
scalar tree_4_3_u03_r14_network.node[39].core_layer 	data[39] 	10033
scalar tree_4_3_u03_r14_network.node[39].content_store 	p_hit[39] 	0.26582278481013
scalar tree_4_3_u03_r14_network.node[39].content_store 	hits[39] 	3633
scalar tree_4_3_u03_r14_network.node[39].content_store 	misses[39] 	10034
scalar tree_4_3_u03_r14_network.node[39].content_store 	decision_yes[39] 	10033
scalar tree_4_3_u03_r14_network.node[39].content_store 	decision_no[39] 	0
scalar tree_4_3_u03_r14_network.node[39].content_store 	decision_ratio[39] 	1
scalar tree_4_3_u03_r14_network.client[13] 	hdistance[13] 	3.2055731686968
scalar tree_4_3_u03_r14_network.client[13] 	downloads[13] 	11986
scalar tree_4_3_u03_r14_network.client[13] 	avg_time[13] 	0.005044135379
scalar tree_4_3_u03_r14_network.client[14] 	hdistance[14] 	3.2222585924714
scalar tree_4_3_u03_r14_network.client[14] 	downloads[14] 	12220
scalar tree_4_3_u03_r14_network.client[14] 	avg_time[14] 	0.005063260053
scalar tree_4_3_u03_r14_network.client[15] 	hdistance[15] 	3.2247717739946
scalar tree_4_3_u03_r14_network.client[15] 	downloads[15] 	12159
scalar tree_4_3_u03_r14_network.client[15] 	avg_time[15] 	0.005072568331
scalar tree_4_3_u03_r14_network.client[16] 	hdistance[16] 	3.1236345580933
scalar tree_4_3_u03_r14_network.client[16] 	downloads[16] 	12084
scalar tree_4_3_u03_r14_network.client[16] 	avg_time[16] 	0.005033796394
scalar tree_4_3_u03_r14_network.client[17] 	hdistance[17] 	3.1355861493534
scalar tree_4_3_u03_r14_network.client[17] 	downloads[17] 	11985
scalar tree_4_3_u03_r14_network.client[17] 	avg_time[17] 	0.005054415232
scalar tree_4_3_u03_r14_network.client[18] 	hdistance[18] 	3.1529077540107
scalar tree_4_3_u03_r14_network.client[18] 	downloads[18] 	11968
scalar tree_4_3_u03_r14_network.client[18] 	avg_time[18] 	0.005088748668
scalar tree_4_3_u03_r14_network.client[19] 	hdistance[19] 	3.2059590943523
scalar tree_4_3_u03_r14_network.client[19] 	downloads[19] 	11881
scalar tree_4_3_u03_r14_network.client[19] 	avg_time[19] 	0.00505289159
scalar tree_4_3_u03_r14_network.client[20] 	hdistance[20] 	3.0811761749183
scalar tree_4_3_u03_r14_network.client[20] 	downloads[20] 	11937
scalar tree_4_3_u03_r14_network.client[20] 	avg_time[20] 	0.00493473774
scalar tree_4_3_u03_r14_network.client[21] 	hdistance[21] 	3.1941771940099
scalar tree_4_3_u03_r14_network.client[21] 	downloads[21] 	11953
scalar tree_4_3_u03_r14_network.client[21] 	avg_time[21] 	0.005022710363
scalar tree_4_3_u03_r14_network.client[22] 	hdistance[22] 	3.1225113589426
scalar tree_4_3_u03_r14_network.client[22] 	downloads[22] 	12105
scalar tree_4_3_u03_r14_network.client[22] 	avg_time[22] 	0.004976283784
scalar tree_4_3_u03_r14_network.client[23] 	hdistance[23] 	3.0604674374116
scalar tree_4_3_u03_r14_network.client[23] 	downloads[23] 	12023
scalar tree_4_3_u03_r14_network.client[23] 	avg_time[23] 	0.004852014132
scalar tree_4_3_u03_r14_network.client[24] 	hdistance[24] 	3.1415517527829
scalar tree_4_3_u03_r14_network.client[24] 	downloads[24] 	12038
scalar tree_4_3_u03_r14_network.client[24] 	avg_time[24] 	0.005010823267
scalar tree_4_3_u03_r14_network.client[25] 	hdistance[25] 	3.0568942436412
scalar tree_4_3_u03_r14_network.client[25] 	downloads[25] 	11952
scalar tree_4_3_u03_r14_network.client[25] 	avg_time[25] 	0.004850735925
scalar tree_4_3_u03_r14_network.client[26] 	hdistance[26] 	3.1855454011906
scalar tree_4_3_u03_r14_network.client[26] 	downloads[26] 	11927
scalar tree_4_3_u03_r14_network.client[26] 	avg_time[26] 	0.005090621323
scalar tree_4_3_u03_r14_network.client[27] 	hdistance[27] 	3.1690549159281
scalar tree_4_3_u03_r14_network.client[27] 	downloads[27] 	12073
scalar tree_4_3_u03_r14_network.client[27] 	avg_time[27] 	0.00506602853
scalar tree_4_3_u03_r14_network.client[28] 	hdistance[28] 	3.0573037429612
scalar tree_4_3_u03_r14_network.client[28] 	downloads[28] 	12076
scalar tree_4_3_u03_r14_network.client[28] 	avg_time[28] 	0.004896904779
scalar tree_4_3_u03_r14_network.client[29] 	hdistance[29] 	3.2104251942194
scalar tree_4_3_u03_r14_network.client[29] 	downloads[29] 	11971
scalar tree_4_3_u03_r14_network.client[29] 	avg_time[29] 	0.005196985624
scalar tree_4_3_u03_r14_network.client[30] 	hdistance[30] 	3.1647301194891
scalar tree_4_3_u03_r14_network.client[30] 	downloads[30] 	12135
scalar tree_4_3_u03_r14_network.client[30] 	avg_time[30] 	0.005114818214
scalar tree_4_3_u03_r14_network.client[31] 	hdistance[31] 	3.227521112767
scalar tree_4_3_u03_r14_network.client[31] 	downloads[31] 	12078
scalar tree_4_3_u03_r14_network.client[31] 	avg_time[31] 	0.005133749681
scalar tree_4_3_u03_r14_network.client[32] 	hdistance[32] 	3.2083818393481
scalar tree_4_3_u03_r14_network.client[32] 	downloads[32] 	12026
scalar tree_4_3_u03_r14_network.client[32] 	avg_time[32] 	0.005101904254
scalar tree_4_3_u03_r14_network.client[33] 	hdistance[33] 	3.2041261321704
scalar tree_4_3_u03_r14_network.client[33] 	downloads[33] 	11924
scalar tree_4_3_u03_r14_network.client[33] 	avg_time[33] 	0.00508050691
scalar tree_4_3_u03_r14_network.client[34] 	hdistance[34] 	3.1285985317166
scalar tree_4_3_u03_r14_network.client[34] 	downloads[34] 	12123
scalar tree_4_3_u03_r14_network.client[34] 	avg_time[34] 	0.005037071848
scalar tree_4_3_u03_r14_network.client[35] 	hdistance[35] 	3.146641916976
scalar tree_4_3_u03_r14_network.client[35] 	downloads[35] 	11852
scalar tree_4_3_u03_r14_network.client[35] 	avg_time[35] 	0.005076950148
scalar tree_4_3_u03_r14_network.client[36] 	hdistance[36] 	3.1580347493557
scalar tree_4_3_u03_r14_network.client[36] 	downloads[36] 	12029
scalar tree_4_3_u03_r14_network.client[36] 	avg_time[36] 	0.00508712967
scalar tree_4_3_u03_r14_network.client[37] 	hdistance[37] 	3.2282240052941
scalar tree_4_3_u03_r14_network.client[37] 	downloads[37] 	12089
scalar tree_4_3_u03_r14_network.client[37] 	avg_time[37] 	0.005117503911
scalar tree_4_3_u03_r14_network.client[38] 	hdistance[38] 	3.0886687203397
scalar tree_4_3_u03_r14_network.client[38] 	downloads[38] 	12011
scalar tree_4_3_u03_r14_network.client[38] 	avg_time[38] 	0.004944304824
scalar tree_4_3_u03_r14_network.client[39] 	hdistance[39] 	3.1774166804842
scalar tree_4_3_u03_r14_network.client[39] 	downloads[39] 	12062
scalar tree_4_3_u03_r14_network.client[39] 	avg_time[39] 	0.005046196149
