version 2
run General-29-20160826-10:35:11-19693
attr D fix0.005
attr F nrr
attr R lru
attr a 0.9
attr configname General
attr datetime 20160826-10:35:11
attr experiment General
attr inifile hw5115/scenario_C/omnetp.ini
attr iterationvars "$net=tiger, $rep=4, $a=0.9, $F=nrr, $D=fix0.005, $R=lru, $window=60, $variance=0.05, $mytime=600"
attr iterationvars2 "$net=tiger, $rep=4, $a=0.9, $F=nrr, $D=fix0.005, $R=lru, $window=60, $variance=0.05, $mytime=600, $repetition=0"
attr measurement "$net=tiger, $rep=4, $a=0.9, $F=nrr, $D=fix0.005, $R=lru, $window=60, $variance=0.05, $mytime=600"
attr mytime 600
attr net tiger
attr network networks.${net=tiger}_network
attr processid 19693
attr rep 4
attr repetition 0
attr replication #0
attr resultdir results
attr runnumber 29
attr seedset 4
attr variance 0.05
attr window 60

scalar . 	a 	0.9
scalar . 	mytime 	600
scalar . 	rep 	4
scalar . 	variance 	0.05
scalar . 	window 	60
scalar tiger_network.content_distribution 	repo-0 	18
scalar tiger_network.content_distribution 	repo-1 	16
scalar tiger_network.content_distribution 	repo-2 	10
scalar tiger_network.content_distribution 	repo-3 	6
scalar tiger_network.content_distribution 	repo-4 	2
scalar tiger_network.content_distribution 	repo-5 	20
scalar tiger_network.content_distribution 	repo-6 	12
scalar tiger_network.content_distribution 	repo-7 	3
scalar tiger_network.content_distribution 	repo-8 	14
scalar tiger_network.content_distribution 	repo-9 	5
scalar tiger_network.content_distribution 	repo-10 	13
scalar tiger_network.content_distribution 	repo-11 	9
scalar tiger_network.content_distribution 	repo-12 	11
scalar tiger_network.content_distribution 	repo-13 	0
scalar tiger_network.content_distribution 	repo-14 	19
scalar tiger_network.content_distribution 	repo-15 	21
scalar tiger_network.content_distribution 	client-0 	21
scalar tiger_network.content_distribution 	client-1 	9
scalar tiger_network.content_distribution 	client-2 	6
scalar tiger_network.content_distribution 	client-3 	2
scalar tiger_network.content_distribution 	client-4 	14
scalar tiger_network.content_distribution 	client-5 	8
scalar tiger_network.content_distribution 	client-6 	17
scalar tiger_network.content_distribution 	client-7 	0
scalar tiger_network.content_distribution 	client-8 	19
scalar tiger_network.content_distribution 	client-9 	10
scalar tiger_network.content_distribution 	client-10 	13
scalar tiger_network.content_distribution 	client-11 	1
scalar tiger_network.content_distribution 	client-12 	3
scalar tiger_network.content_distribution 	client-13 	18
scalar tiger_network.content_distribution 	client-14 	15
scalar tiger_network.content_distribution 	client-15 	16
scalar tiger_network.content_distribution 	client-16 	12
scalar tiger_network.content_distribution 	client-17 	11
scalar tiger_network.content_distribution 	client-18 	7
scalar tiger_network.content_distribution 	client-19 	4
scalar tiger_network.content_distribution 	client-20 	5
scalar tiger_network.content_distribution 	client-21 	20
scalar tiger_network.content_distribution 	repo-0_card 	6113
scalar tiger_network.content_distribution 	repo-0_price 	0
scalar tiger_network.content_distribution 	repo-1_card 	6294
scalar tiger_network.content_distribution 	repo-1_price 	0
scalar tiger_network.content_distribution 	repo-2_card 	6315
scalar tiger_network.content_distribution 	repo-2_price 	0
scalar tiger_network.content_distribution 	repo-3_card 	6169
scalar tiger_network.content_distribution 	repo-3_price 	0
scalar tiger_network.content_distribution 	repo-4_card 	6306
scalar tiger_network.content_distribution 	repo-4_price 	0
scalar tiger_network.content_distribution 	repo-5_card 	6221
scalar tiger_network.content_distribution 	repo-5_price 	0
scalar tiger_network.content_distribution 	repo-6_card 	6389
scalar tiger_network.content_distribution 	repo-6_price 	0
scalar tiger_network.content_distribution 	repo-7_card 	6226
scalar tiger_network.content_distribution 	repo-7_price 	0
scalar tiger_network.content_distribution 	repo-8_card 	6293
scalar tiger_network.content_distribution 	repo-8_price 	0
scalar tiger_network.content_distribution 	repo-9_card 	6212
scalar tiger_network.content_distribution 	repo-9_price 	0
scalar tiger_network.content_distribution 	repo-10_card 	6328
scalar tiger_network.content_distribution 	repo-10_price 	0
scalar tiger_network.content_distribution 	repo-11_card 	6234
scalar tiger_network.content_distribution 	repo-11_price 	0
scalar tiger_network.content_distribution 	repo-12_card 	6163
scalar tiger_network.content_distribution 	repo-12_price 	0
scalar tiger_network.content_distribution 	repo-13_card 	6137
scalar tiger_network.content_distribution 	repo-13_price 	0
scalar tiger_network.content_distribution 	repo-14_card 	6292
scalar tiger_network.content_distribution 	repo-14_price 	0
scalar tiger_network.content_distribution 	repo-15_card 	6308
scalar tiger_network.content_distribution 	repo-15_price 	0
scalar tiger_network.statistics 	stabilization_time 	1469.8
scalar tiger_network.statistics 	p_hit 	0.15678539139507
scalar tiger_network.statistics 	interests 	33944.909090909
scalar tiger_network.statistics 	data 	21964.681818182
scalar tiger_network.statistics 	hdistance 	2.4068672204155
scalar tiger_network.statistics 	avg_time 	0.000669666618
scalar tiger_network.statistics 	downloads 	263562
scalar tiger_network.statistics 	total_cost 	0
scalar tiger_network.statistics 	total_replicas 	100000
scalar tiger_network.statistics 	inner_hit 	0.42644614929315
scalar tiger_network.node[0].core_layer 	interests[0] 	48355
scalar tiger_network.node[0].core_layer 	repo_load[0] 	9215
scalar tiger_network.node[0].core_layer 	data[0] 	33330
scalar tiger_network.node[0].core_layer 	repo_int[0] 	151167
scalar tiger_network.node[0].content_store 	p_hit[0] 	0.12015303484645
scalar tiger_network.node[0].content_store 	hits[0] 	5810
scalar tiger_network.node[0].content_store 	misses[0] 	42545
scalar tiger_network.node[0].content_store 	decision_yes[0] 	203
scalar tiger_network.node[0].content_store 	decision_no[0] 	42342
scalar tiger_network.node[0].content_store 	decision_ratio[0] 	0.0047714184980609
scalar tiger_network.node[1].core_layer 	interests[1] 	39793
scalar tiger_network.node[1].core_layer 	data[1] 	33900
scalar tiger_network.node[1].content_store 	p_hit[1] 	0.14806624280652
scalar tiger_network.node[1].content_store 	hits[1] 	5892
scalar tiger_network.node[1].content_store 	misses[1] 	33901
scalar tiger_network.node[1].content_store 	decision_yes[1] 	168
scalar tiger_network.node[1].content_store 	decision_no[1] 	33732
scalar tiger_network.node[1].content_store 	decision_ratio[1] 	0.0049557522123894
scalar tiger_network.node[2].core_layer 	interests[2] 	53893
scalar tiger_network.node[2].core_layer 	repo_load[2] 	10432
scalar tiger_network.node[2].core_layer 	data[2] 	37989
scalar tiger_network.node[2].content_store 	p_hit[2] 	0.10153452210862
scalar tiger_network.node[2].content_store 	hits[2] 	5472
scalar tiger_network.node[2].content_store 	misses[2] 	48421
scalar tiger_network.node[2].content_store 	decision_yes[2] 	264
scalar tiger_network.node[2].content_store 	decision_no[2] 	48157
scalar tiger_network.node[2].content_store 	decision_ratio[2] 	0.0054521798393259
scalar tiger_network.node[3].core_layer 	interests[3] 	47041
scalar tiger_network.node[3].core_layer 	repo_load[3] 	9785
scalar tiger_network.node[3].core_layer 	data[3] 	31526
scalar tiger_network.node[3].content_store 	p_hit[3] 	0.12180863502051
scalar tiger_network.node[3].content_store 	hits[3] 	5730
scalar tiger_network.node[3].content_store 	misses[3] 	41311
scalar tiger_network.node[3].content_store 	decision_yes[3] 	217
scalar tiger_network.node[3].content_store 	decision_no[3] 	41094
scalar tiger_network.node[3].content_store 	decision_ratio[3] 	0.0052528382271066
scalar tiger_network.node[4].core_layer 	interests[4] 	31088
scalar tiger_network.node[4].core_layer 	data[4] 	25517
scalar tiger_network.node[4].content_store 	p_hit[4] 	0.17920097786927
scalar tiger_network.node[4].content_store 	hits[4] 	5571
scalar tiger_network.node[4].content_store 	misses[4] 	25517
scalar tiger_network.node[4].content_store 	decision_yes[4] 	128
scalar tiger_network.node[4].content_store 	decision_no[4] 	25389
scalar tiger_network.node[4].content_store 	decision_ratio[4] 	0.005016263667359
scalar tiger_network.node[5].core_layer 	interests[5] 	25162
scalar tiger_network.node[5].core_layer 	repo_load[5] 	8992
scalar tiger_network.node[5].core_layer 	data[5] 	11902
scalar tiger_network.node[5].content_store 	p_hit[5] 	0.16962085684763
scalar tiger_network.node[5].content_store 	hits[5] 	4268
scalar tiger_network.node[5].content_store 	misses[5] 	20894
scalar tiger_network.node[5].content_store 	decision_yes[5] 	108
scalar tiger_network.node[5].content_store 	decision_no[5] 	20786
scalar tiger_network.node[5].content_store 	decision_ratio[5] 	0.005168948023356
scalar tiger_network.node[6].core_layer 	interests[6] 	33708
scalar tiger_network.node[6].core_layer 	repo_load[6] 	9318
scalar tiger_network.node[6].core_layer 	data[6] 	19430
scalar tiger_network.node[6].content_store 	p_hit[6] 	0.14714607808235
scalar tiger_network.node[6].content_store 	hits[6] 	4960
scalar tiger_network.node[6].content_store 	misses[6] 	28748
scalar tiger_network.node[6].content_store 	decision_yes[6] 	147
scalar tiger_network.node[6].content_store 	decision_no[6] 	28601
scalar tiger_network.node[6].content_store 	decision_ratio[6] 	0.0051133991929873
scalar tiger_network.node[7].core_layer 	interests[7] 	32459
scalar tiger_network.node[7].core_layer 	data[7] 	27511
scalar tiger_network.node[7].content_store 	p_hit[7] 	0.15243846082751
scalar tiger_network.node[7].content_store 	hits[7] 	4948
scalar tiger_network.node[7].content_store 	misses[7] 	27511
scalar tiger_network.node[7].content_store 	decision_yes[7] 	129
scalar tiger_network.node[7].content_store 	decision_no[7] 	27382
scalar tiger_network.node[7].content_store 	decision_ratio[7] 	0.0046890334775181
scalar tiger_network.node[8].core_layer 	interests[8] 	40605
scalar tiger_network.node[8].core_layer 	data[8] 	35145
scalar tiger_network.node[8].content_store 	p_hit[8] 	0.13444157123507
scalar tiger_network.node[8].content_store 	hits[8] 	5459
scalar tiger_network.node[8].content_store 	misses[8] 	35146
scalar tiger_network.node[8].content_store 	decision_yes[8] 	179
scalar tiger_network.node[8].content_store 	decision_no[8] 	34966
scalar tiger_network.node[8].content_store 	decision_ratio[8] 	0.0050931853748755
scalar tiger_network.node[9].core_layer 	interests[9] 	24262
scalar tiger_network.node[9].core_layer 	repo_load[9] 	8931
scalar tiger_network.node[9].core_layer 	data[9] 	11294
scalar tiger_network.node[9].content_store 	p_hit[9] 	0.16639188855
scalar tiger_network.node[9].content_store 	hits[9] 	4037
scalar tiger_network.node[9].content_store 	misses[9] 	20225
scalar tiger_network.node[9].content_store 	decision_yes[9] 	98
scalar tiger_network.node[9].content_store 	decision_no[9] 	20127
scalar tiger_network.node[9].content_store 	decision_ratio[9] 	0.0048454882571075
scalar tiger_network.node[10].core_layer 	interests[10] 	28748
scalar tiger_network.node[10].core_layer 	repo_load[10] 	9455
scalar tiger_network.node[10].core_layer 	data[10] 	14682
scalar tiger_network.node[10].content_store 	p_hit[10] 	0.16039376652289
scalar tiger_network.node[10].content_store 	hits[10] 	4611
scalar tiger_network.node[10].content_store 	misses[10] 	24137
scalar tiger_network.node[10].content_store 	decision_yes[10] 	136
scalar tiger_network.node[10].content_store 	decision_no[10] 	24001
scalar tiger_network.node[10].content_store 	decision_ratio[10] 	0.0056345030451175
scalar tiger_network.node[11].core_layer 	interests[11] 	30312
scalar tiger_network.node[11].core_layer 	repo_load[11] 	9217
scalar tiger_network.node[11].core_layer 	data[11] 	16181
scalar tiger_network.node[11].content_store 	p_hit[11] 	0.16211401425178
scalar tiger_network.node[11].content_store 	hits[11] 	4914
scalar tiger_network.node[11].content_store 	misses[11] 	25398
scalar tiger_network.node[11].content_store 	decision_yes[11] 	122
scalar tiger_network.node[11].content_store 	decision_no[11] 	25276
scalar tiger_network.node[11].content_store 	decision_ratio[11] 	0.0048035278368375
scalar tiger_network.node[12].core_layer 	interests[12] 	41073
scalar tiger_network.node[12].core_layer 	repo_load[12] 	10287
scalar tiger_network.node[12].core_layer 	data[12] 	25056
scalar tiger_network.node[12].content_store 	p_hit[12] 	0.13950770579213
scalar tiger_network.node[12].content_store 	hits[12] 	5730
scalar tiger_network.node[12].content_store 	misses[12] 	35343
scalar tiger_network.node[12].content_store 	decision_yes[12] 	177
scalar tiger_network.node[12].content_store 	decision_no[12] 	35166
scalar tiger_network.node[12].content_store 	decision_ratio[12] 	0.0050080638315932
scalar tiger_network.node[13].core_layer 	interests[13] 	27232
scalar tiger_network.node[13].core_layer 	repo_load[13] 	9410
scalar tiger_network.node[13].core_layer 	data[13] 	13284
scalar tiger_network.node[13].content_store 	p_hit[13] 	0.16664218566392
scalar tiger_network.node[13].content_store 	hits[13] 	4538
scalar tiger_network.node[13].content_store 	misses[13] 	22694
scalar tiger_network.node[13].content_store 	decision_yes[13] 	104
scalar tiger_network.node[13].content_store 	decision_no[13] 	22590
scalar tiger_network.node[13].content_store 	decision_ratio[13] 	0.0045827090861021
scalar tiger_network.node[14].core_layer 	interests[14] 	25275
scalar tiger_network.node[14].core_layer 	repo_load[14] 	9282
scalar tiger_network.node[14].core_layer 	data[14] 	11562
scalar tiger_network.node[14].content_store 	p_hit[14] 	0.1753115727003
scalar tiger_network.node[14].content_store 	hits[14] 	4431
scalar tiger_network.node[14].content_store 	misses[14] 	20844
scalar tiger_network.node[14].content_store 	decision_yes[14] 	89
scalar tiger_network.node[14].content_store 	decision_no[14] 	20755
scalar tiger_network.node[14].content_store 	decision_ratio[14] 	0.0042698138553061
scalar tiger_network.node[15].core_layer 	interests[15] 	18592
scalar tiger_network.node[15].core_layer 	data[15] 	14642
scalar tiger_network.node[15].content_store 	p_hit[15] 	0.2124569707401
scalar tiger_network.node[15].content_store 	hits[15] 	3950
scalar tiger_network.node[15].content_store 	misses[15] 	14642
scalar tiger_network.node[15].content_store 	decision_yes[15] 	55
scalar tiger_network.node[15].content_store 	decision_no[15] 	14587
scalar tiger_network.node[15].content_store 	decision_ratio[15] 	0.0037563174429723
scalar tiger_network.node[16].core_layer 	interests[16] 	30052
scalar tiger_network.node[16].core_layer 	repo_load[16] 	9416
scalar tiger_network.node[16].core_layer 	data[16] 	14958
scalar tiger_network.node[16].content_store 	p_hit[16] 	0.18893917210169
scalar tiger_network.node[16].content_store 	hits[16] 	5678
scalar tiger_network.node[16].content_store 	misses[16] 	24374
scalar tiger_network.node[16].content_store 	decision_yes[16] 	126
scalar tiger_network.node[16].content_store 	decision_no[16] 	24248
scalar tiger_network.node[16].content_store 	decision_ratio[16] 	0.0051694428489374
scalar tiger_network.node[17].core_layer 	interests[17] 	35373
scalar tiger_network.node[17].core_layer 	data[17] 	29480
scalar tiger_network.node[17].content_store 	p_hit[17] 	0.16659599129279
scalar tiger_network.node[17].content_store 	hits[17] 	5893
scalar tiger_network.node[17].content_store 	misses[17] 	29480
scalar tiger_network.node[17].content_store 	decision_yes[17] 	125
scalar tiger_network.node[17].content_store 	decision_no[17] 	29355
scalar tiger_network.node[17].content_store 	decision_ratio[17] 	0.0042401628222524
scalar tiger_network.node[18].core_layer 	interests[18] 	47519
scalar tiger_network.node[18].core_layer 	repo_load[18] 	9352
scalar tiger_network.node[18].core_layer 	data[18] 	32527
scalar tiger_network.node[18].content_store 	p_hit[18] 	0.11868936635872
scalar tiger_network.node[18].content_store 	hits[18] 	5640
scalar tiger_network.node[18].content_store 	misses[18] 	41879
scalar tiger_network.node[18].content_store 	decision_yes[18] 	177
scalar tiger_network.node[18].content_store 	decision_no[18] 	41702
scalar tiger_network.node[18].content_store 	decision_ratio[18] 	0.0042264619499033
scalar tiger_network.node[19].core_layer 	interests[19] 	32171
scalar tiger_network.node[19].core_layer 	repo_load[19] 	9682
scalar tiger_network.node[19].core_layer 	data[19] 	17081
scalar tiger_network.node[19].content_store 	p_hit[19] 	0.16810170650586
scalar tiger_network.node[19].content_store 	hits[19] 	5408
scalar tiger_network.node[19].content_store 	misses[19] 	26763
scalar tiger_network.node[19].content_store 	decision_yes[19] 	126
scalar tiger_network.node[19].content_store 	decision_no[19] 	26637
scalar tiger_network.node[19].content_store 	decision_ratio[19] 	0.0047079923775362
scalar tiger_network.node[20].core_layer 	interests[20] 	25789
scalar tiger_network.node[20].core_layer 	repo_load[20] 	8789
scalar tiger_network.node[20].core_layer 	data[20] 	12494
scalar tiger_network.node[20].content_store 	p_hit[20] 	0.17472565822638
scalar tiger_network.node[20].content_store 	hits[20] 	4506
scalar tiger_network.node[20].content_store 	misses[20] 	21283
scalar tiger_network.node[20].content_store 	decision_yes[20] 	114
scalar tiger_network.node[20].content_store 	decision_no[20] 	21169
scalar tiger_network.node[20].content_store 	decision_ratio[20] 	0.0053563877272941
scalar tiger_network.node[21].core_layer 	interests[21] 	28286
scalar tiger_network.node[21].core_layer 	repo_load[21] 	9604
scalar tiger_network.node[21].core_layer 	data[21] 	13732
scalar tiger_network.node[21].content_store 	p_hit[21] 	0.17499823234109
scalar tiger_network.node[21].content_store 	hits[21] 	4950
scalar tiger_network.node[21].content_store 	misses[21] 	23336
scalar tiger_network.node[21].content_store 	decision_yes[21] 	133
scalar tiger_network.node[21].content_store 	decision_no[21] 	23203
scalar tiger_network.node[21].content_store 	decision_ratio[21] 	0.005699348645869
scalar tiger_network.client[0] 	hdistance[0] 	2.0547301267523
scalar tiger_network.client[0] 	downloads[0] 	11913
scalar tiger_network.client[0] 	avg_time[0] 	0.000437618276
scalar tiger_network.client[1] 	hdistance[1] 	2.3540030085241
scalar tiger_network.client[1] 	downloads[1] 	11966
scalar tiger_network.client[1] 	avg_time[1] 	0.000779262582
scalar tiger_network.client[2] 	hdistance[2] 	2.2023365647527
scalar tiger_network.client[2] 	downloads[2] 	12069
scalar tiger_network.client[2] 	avg_time[2] 	0.000860389899
scalar tiger_network.client[3] 	hdistance[3] 	2.3688025997833
scalar tiger_network.client[3] 	downloads[3] 	12001
scalar tiger_network.client[3] 	avg_time[3] 	0.000954295965
scalar tiger_network.client[4] 	hdistance[4] 	2.4237902545945
scalar tiger_network.client[4] 	downloads[4] 	11862
scalar tiger_network.client[4] 	avg_time[4] 	0.000954946112
scalar tiger_network.client[5] 	hdistance[5] 	2.6135915955351
scalar tiger_network.client[5] 	downloads[5] 	12184
scalar tiger_network.client[5] 	avg_time[5] 	0.00105746399
scalar tiger_network.client[6] 	hdistance[6] 	2.535404865045
scalar tiger_network.client[6] 	downloads[6] 	12004
scalar tiger_network.client[6] 	avg_time[6] 	0.000743218573
scalar tiger_network.client[7] 	hdistance[7] 	2.5149586776859
scalar tiger_network.client[7] 	downloads[7] 	12100
scalar tiger_network.client[7] 	avg_time[7] 	0.000766450037
scalar tiger_network.client[8] 	hdistance[8] 	2.401942723162
scalar tiger_network.client[8] 	downloads[8] 	11942
scalar tiger_network.client[8] 	avg_time[8] 	0.000736580506
scalar tiger_network.client[9] 	hdistance[9] 	2.6230291848373
scalar tiger_network.client[9] 	downloads[9] 	11924
scalar tiger_network.client[9] 	avg_time[9] 	0.000610938158
scalar tiger_network.client[10] 	hdistance[10] 	2.551999327957
scalar tiger_network.client[10] 	downloads[10] 	11904
scalar tiger_network.client[10] 	avg_time[10] 	0.000700534314
scalar tiger_network.client[11] 	hdistance[11] 	2.2790171083529
scalar tiger_network.client[11] 	downloads[11] 	11924
scalar tiger_network.client[11] 	avg_time[11] 	0.000336847253
scalar tiger_network.client[12] 	hdistance[12] 	2.1287128712871
scalar tiger_network.client[12] 	downloads[12] 	11918
scalar tiger_network.client[12] 	avg_time[12] 	0.000581011437
scalar tiger_network.client[13] 	hdistance[13] 	2.3977635782748
scalar tiger_network.client[13] 	downloads[13] 	11894
scalar tiger_network.client[13] 	avg_time[13] 	0.000614696899
scalar tiger_network.client[14] 	hdistance[14] 	2.637667862207
scalar tiger_network.client[14] 	downloads[14] 	11989
scalar tiger_network.client[14] 	avg_time[14] 	0.00062400185
scalar tiger_network.client[15] 	hdistance[15] 	2.6402659708779
scalar tiger_network.client[15] 	downloads[15] 	11881
scalar tiger_network.client[15] 	avg_time[15] 	0.000644064691
scalar tiger_network.client[16] 	hdistance[16] 	2.4988816170988
scalar tiger_network.client[16] 	downloads[16] 	12071
scalar tiger_network.client[16] 	avg_time[16] 	0.000638538307
scalar tiger_network.client[17] 	hdistance[17] 	2.3051674802222
scalar tiger_network.client[17] 	downloads[17] 	11882
scalar tiger_network.client[17] 	avg_time[17] 	0.000621654171
scalar tiger_network.client[18] 	hdistance[18] 	2.1338022341746
scalar tiger_network.client[18] 	downloads[18] 	12085
scalar tiger_network.client[18] 	avg_time[18] 	0.000448945104
scalar tiger_network.client[19] 	hdistance[19] 	2.2171637451192
scalar tiger_network.client[19] 	downloads[19] 	12037
scalar tiger_network.client[19] 	avg_time[19] 	0.000375308952
scalar tiger_network.client[20] 	hdistance[20] 	2.5733422081704
scalar tiger_network.client[20] 	downloads[20] 	12019
scalar tiger_network.client[20] 	avg_time[20] 	0.000650730147
scalar tiger_network.client[21] 	hdistance[21] 	2.4947052447261
scalar tiger_network.client[21] 	downloads[21] 	11993
scalar tiger_network.client[21] 	avg_time[21] 	0.000595168373
