version 2
run General-83-20160826-12:28:46-19693
attr D fix0.005
attr F nrr
attr R lru
attr a 0.9
attr configname General
attr datetime 20160826-12:28:46
attr experiment General
attr inifile hw5115/scenario_C/omnetp.ini
attr iterationvars "$net=tiger, $rep=10, $a=0.9, $F=nrr, $D=fix0.005, $R=lru, $window=60, $variance=0.05, $mytime=600"
attr iterationvars2 "$net=tiger, $rep=10, $a=0.9, $F=nrr, $D=fix0.005, $R=lru, $window=60, $variance=0.05, $mytime=600, $repetition=0"
attr measurement "$net=tiger, $rep=10, $a=0.9, $F=nrr, $D=fix0.005, $R=lru, $window=60, $variance=0.05, $mytime=600"
attr mytime 600
attr net tiger
attr network networks.${net=tiger}_network
attr processid 19693
attr rep 10
attr repetition 0
attr replication #0
attr resultdir results
attr runnumber 83
attr seedset 10
attr variance 0.05
attr window 60

scalar . 	a 	0.9
scalar . 	mytime 	600
scalar . 	rep 	10
scalar . 	variance 	0.05
scalar . 	window 	60
scalar tiger_network.content_distribution 	repo-0 	18
scalar tiger_network.content_distribution 	repo-1 	16
scalar tiger_network.content_distribution 	repo-2 	2
scalar tiger_network.content_distribution 	repo-3 	6
scalar tiger_network.content_distribution 	repo-4 	10
scalar tiger_network.content_distribution 	repo-5 	14
scalar tiger_network.content_distribution 	repo-6 	17
scalar tiger_network.content_distribution 	repo-7 	11
scalar tiger_network.content_distribution 	repo-8 	20
scalar tiger_network.content_distribution 	repo-9 	12
scalar tiger_network.content_distribution 	repo-10 	3
scalar tiger_network.content_distribution 	repo-11 	7
scalar tiger_network.content_distribution 	repo-12 	15
scalar tiger_network.content_distribution 	repo-13 	1
scalar tiger_network.content_distribution 	repo-14 	9
scalar tiger_network.content_distribution 	repo-15 	0
scalar tiger_network.content_distribution 	client-0 	21
scalar tiger_network.content_distribution 	client-1 	9
scalar tiger_network.content_distribution 	client-2 	6
scalar tiger_network.content_distribution 	client-3 	2
scalar tiger_network.content_distribution 	client-4 	14
scalar tiger_network.content_distribution 	client-5 	8
scalar tiger_network.content_distribution 	client-6 	17
scalar tiger_network.content_distribution 	client-7 	0
scalar tiger_network.content_distribution 	client-8 	19
scalar tiger_network.content_distribution 	client-9 	10
scalar tiger_network.content_distribution 	client-10 	13
scalar tiger_network.content_distribution 	client-11 	1
scalar tiger_network.content_distribution 	client-12 	3
scalar tiger_network.content_distribution 	client-13 	18
scalar tiger_network.content_distribution 	client-14 	15
scalar tiger_network.content_distribution 	client-15 	16
scalar tiger_network.content_distribution 	client-16 	12
scalar tiger_network.content_distribution 	client-17 	11
scalar tiger_network.content_distribution 	client-18 	7
scalar tiger_network.content_distribution 	client-19 	4
scalar tiger_network.content_distribution 	client-20 	5
scalar tiger_network.content_distribution 	client-21 	20
scalar tiger_network.content_distribution 	repo-0_card 	6240
scalar tiger_network.content_distribution 	repo-0_price 	0
scalar tiger_network.content_distribution 	repo-1_card 	6299
scalar tiger_network.content_distribution 	repo-1_price 	0
scalar tiger_network.content_distribution 	repo-2_card 	6352
scalar tiger_network.content_distribution 	repo-2_price 	0
scalar tiger_network.content_distribution 	repo-3_card 	6070
scalar tiger_network.content_distribution 	repo-3_price 	0
scalar tiger_network.content_distribution 	repo-4_card 	6322
scalar tiger_network.content_distribution 	repo-4_price 	0
scalar tiger_network.content_distribution 	repo-5_card 	6183
scalar tiger_network.content_distribution 	repo-5_price 	0
scalar tiger_network.content_distribution 	repo-6_card 	6236
scalar tiger_network.content_distribution 	repo-6_price 	0
scalar tiger_network.content_distribution 	repo-7_card 	6222
scalar tiger_network.content_distribution 	repo-7_price 	0
scalar tiger_network.content_distribution 	repo-8_card 	6294
scalar tiger_network.content_distribution 	repo-8_price 	0
scalar tiger_network.content_distribution 	repo-9_card 	6270
scalar tiger_network.content_distribution 	repo-9_price 	0
scalar tiger_network.content_distribution 	repo-10_card 	6197
scalar tiger_network.content_distribution 	repo-10_price 	0
scalar tiger_network.content_distribution 	repo-11_card 	6132
scalar tiger_network.content_distribution 	repo-11_price 	0
scalar tiger_network.content_distribution 	repo-12_card 	6287
scalar tiger_network.content_distribution 	repo-12_price 	0
scalar tiger_network.content_distribution 	repo-13_card 	6301
scalar tiger_network.content_distribution 	repo-13_price 	0
scalar tiger_network.content_distribution 	repo-14_card 	6334
scalar tiger_network.content_distribution 	repo-14_price 	0
scalar tiger_network.content_distribution 	repo-15_card 	6261
scalar tiger_network.content_distribution 	repo-15_price 	0
scalar tiger_network.statistics 	stabilization_time 	1766.3
scalar tiger_network.statistics 	p_hit 	0.16536227057986
scalar tiger_network.statistics 	interests 	33560.818181818
scalar tiger_network.statistics 	data 	21553.454545455
scalar tiger_network.statistics 	hdistance 	2.3741739504724
scalar tiger_network.statistics 	avg_time 	0.000668909083
scalar tiger_network.statistics 	downloads 	264161
scalar tiger_network.statistics 	total_cost 	0
scalar tiger_network.statistics 	total_replicas 	100000
scalar tiger_network.statistics 	inner_hit 	0.42054656062023
scalar tiger_network.node[0].core_layer 	interests[0] 	44263
scalar tiger_network.node[0].core_layer 	repo_load[0] 	9664
scalar tiger_network.node[0].core_layer 	data[0] 	29300
scalar tiger_network.node[0].core_layer 	repo_int[0] 	153069
scalar tiger_network.node[0].content_store 	p_hit[0] 	0.11971624155615
scalar tiger_network.node[0].content_store 	hits[0] 	5299
scalar tiger_network.node[0].content_store 	misses[0] 	38964
scalar tiger_network.node[0].content_store 	decision_yes[0] 	199
scalar tiger_network.node[0].content_store 	decision_no[0] 	38765
scalar tiger_network.node[0].content_store 	decision_ratio[0] 	0.0051072785134996
scalar tiger_network.node[1].core_layer 	interests[1] 	46714
scalar tiger_network.node[1].core_layer 	repo_load[1] 	9387
scalar tiger_network.node[1].core_layer 	data[1] 	32196
scalar tiger_network.node[1].content_store 	p_hit[1] 	0.10983859228497
scalar tiger_network.node[1].content_store 	hits[1] 	5131
scalar tiger_network.node[1].content_store 	misses[1] 	41583
scalar tiger_network.node[1].content_store 	decision_yes[1] 	212
scalar tiger_network.node[1].content_store 	decision_no[1] 	41371
scalar tiger_network.node[1].content_store 	decision_ratio[1] 	0.0050982372604189
scalar tiger_network.node[2].core_layer 	interests[2] 	55042
scalar tiger_network.node[2].core_layer 	repo_load[2] 	9914
scalar tiger_network.node[2].core_layer 	data[2] 	39660
scalar tiger_network.node[2].content_store 	p_hit[2] 	0.099342320409869
scalar tiger_network.node[2].content_store 	hits[2] 	5468
scalar tiger_network.node[2].content_store 	misses[2] 	49574
scalar tiger_network.node[2].content_store 	decision_yes[2] 	270
scalar tiger_network.node[2].content_store 	decision_no[2] 	49304
scalar tiger_network.node[2].content_store 	decision_ratio[2] 	0.0054464033565982
scalar tiger_network.node[3].core_layer 	interests[3] 	49947
scalar tiger_network.node[3].core_layer 	repo_load[3] 	9705
scalar tiger_network.node[3].core_layer 	data[3] 	34724
scalar tiger_network.node[3].content_store 	p_hit[3] 	0.11047710573208
scalar tiger_network.node[3].content_store 	hits[3] 	5518
scalar tiger_network.node[3].content_store 	misses[3] 	44429
scalar tiger_network.node[3].content_store 	decision_yes[3] 	224
scalar tiger_network.node[3].content_store 	decision_no[3] 	44205
scalar tiger_network.node[3].content_store 	decision_ratio[3] 	0.0050417520088231
scalar tiger_network.node[4].core_layer 	interests[4] 	30147
scalar tiger_network.node[4].core_layer 	data[4] 	25277
scalar tiger_network.node[4].content_store 	p_hit[4] 	0.1615417786181
scalar tiger_network.node[4].content_store 	hits[4] 	4870
scalar tiger_network.node[4].content_store 	misses[4] 	25277
scalar tiger_network.node[4].content_store 	decision_yes[4] 	122
scalar tiger_network.node[4].content_store 	decision_no[4] 	25155
scalar tiger_network.node[4].content_store 	decision_ratio[4] 	0.004826522134747
scalar tiger_network.node[5].core_layer 	interests[5] 	17362
scalar tiger_network.node[5].core_layer 	data[5] 	12717
scalar tiger_network.node[5].content_store 	p_hit[5] 	0.26753830203894
scalar tiger_network.node[5].content_store 	hits[5] 	4645
scalar tiger_network.node[5].content_store 	misses[5] 	12717
scalar tiger_network.node[5].content_store 	decision_yes[5] 	67
scalar tiger_network.node[5].content_store 	decision_no[5] 	12650
scalar tiger_network.node[5].content_store 	decision_ratio[5] 	0.0052685381772431
scalar tiger_network.node[6].core_layer 	interests[6] 	36094
scalar tiger_network.node[6].core_layer 	repo_load[6] 	9361
scalar tiger_network.node[6].core_layer 	data[6] 	21721
scalar tiger_network.node[6].content_store 	p_hit[6] 	0.1388596442622
scalar tiger_network.node[6].content_store 	hits[6] 	5012
scalar tiger_network.node[6].content_store 	misses[6] 	31082
scalar tiger_network.node[6].content_store 	decision_yes[6] 	159
scalar tiger_network.node[6].content_store 	decision_no[6] 	30923
scalar tiger_network.node[6].content_store 	decision_ratio[6] 	0.0051155009330159
scalar tiger_network.node[7].core_layer 	interests[7] 	40923
scalar tiger_network.node[7].core_layer 	repo_load[7] 	9798
scalar tiger_network.node[7].core_layer 	data[7] 	26015
scalar tiger_network.node[7].content_store 	p_hit[7] 	0.12486865576815
scalar tiger_network.node[7].content_store 	hits[7] 	5110
scalar tiger_network.node[7].content_store 	misses[7] 	35813
scalar tiger_network.node[7].content_store 	decision_yes[7] 	175
scalar tiger_network.node[7].content_store 	decision_no[7] 	35638
scalar tiger_network.node[7].content_store 	decision_ratio[7] 	0.0048864937313266
scalar tiger_network.node[8].core_layer 	interests[8] 	40806
scalar tiger_network.node[8].core_layer 	data[8] 	35042
scalar tiger_network.node[8].content_store 	p_hit[8] 	0.14125373719551
scalar tiger_network.node[8].content_store 	hits[8] 	5764
scalar tiger_network.node[8].content_store 	misses[8] 	35042
scalar tiger_network.node[8].content_store 	decision_yes[8] 	175
scalar tiger_network.node[8].content_store 	decision_no[8] 	34867
scalar tiger_network.node[8].content_store 	decision_ratio[8] 	0.0049940071913704
scalar tiger_network.node[9].core_layer 	interests[9] 	24067
scalar tiger_network.node[9].core_layer 	repo_load[9] 	9400
scalar tiger_network.node[9].core_layer 	data[9] 	10120
scalar tiger_network.node[9].content_store 	p_hit[9] 	0.18893090123405
scalar tiger_network.node[9].content_store 	hits[9] 	4547
scalar tiger_network.node[9].content_store 	misses[9] 	19520
scalar tiger_network.node[9].content_store 	decision_yes[9] 	100
scalar tiger_network.node[9].content_store 	decision_no[9] 	19420
scalar tiger_network.node[9].content_store 	decision_ratio[9] 	0.0051229508196721
scalar tiger_network.node[10].core_layer 	interests[10] 	28956
scalar tiger_network.node[10].core_layer 	repo_load[10] 	9297
scalar tiger_network.node[10].core_layer 	data[10] 	15084
scalar tiger_network.node[10].content_store 	p_hit[10] 	0.15799834231247
scalar tiger_network.node[10].content_store 	hits[10] 	4575
scalar tiger_network.node[10].content_store 	misses[10] 	24381
scalar tiger_network.node[10].content_store 	decision_yes[10] 	131
scalar tiger_network.node[10].content_store 	decision_no[10] 	24250
scalar tiger_network.node[10].content_store 	decision_ratio[10] 	0.0053730363807883
scalar tiger_network.node[11].core_layer 	interests[11] 	29928
scalar tiger_network.node[11].core_layer 	repo_load[11] 	9245
scalar tiger_network.node[11].core_layer 	data[11] 	16048
scalar tiger_network.node[11].content_store 	p_hit[11] 	0.15487169206095
scalar tiger_network.node[11].content_store 	hits[11] 	4635
scalar tiger_network.node[11].content_store 	misses[11] 	25293
scalar tiger_network.node[11].content_store 	decision_yes[11] 	125
scalar tiger_network.node[11].content_store 	decision_no[11] 	25168
scalar tiger_network.node[11].content_store 	decision_ratio[11] 	0.0049420788360416
scalar tiger_network.node[12].core_layer 	interests[12] 	38386
scalar tiger_network.node[12].core_layer 	repo_load[12] 	9918
scalar tiger_network.node[12].core_layer 	data[12] 	22873
scalar tiger_network.node[12].content_store 	p_hit[12] 	0.14575626530506
scalar tiger_network.node[12].content_store 	hits[12] 	5595
scalar tiger_network.node[12].content_store 	misses[12] 	32791
scalar tiger_network.node[12].content_store 	decision_yes[12] 	180
scalar tiger_network.node[12].content_store 	decision_no[12] 	32611
scalar tiger_network.node[12].content_store 	decision_ratio[12] 	0.005489311091458
scalar tiger_network.node[13].core_layer 	interests[13] 	18545
scalar tiger_network.node[13].core_layer 	data[13] 	13668
scalar tiger_network.node[13].content_store 	p_hit[13] 	0.26298193583176
scalar tiger_network.node[13].content_store 	hits[13] 	4877
scalar tiger_network.node[13].content_store 	misses[13] 	13668
scalar tiger_network.node[13].content_store 	decision_yes[13] 	63
scalar tiger_network.node[13].content_store 	decision_no[13] 	13605
scalar tiger_network.node[13].content_store 	decision_ratio[13] 	0.0046093064091308
scalar tiger_network.node[14].core_layer 	interests[14] 	24341
scalar tiger_network.node[14].core_layer 	repo_load[14] 	9174
scalar tiger_network.node[14].core_layer 	data[14] 	10824
scalar tiger_network.node[14].content_store 	p_hit[14] 	0.17842323651452
scalar tiger_network.node[14].content_store 	hits[14] 	4343
scalar tiger_network.node[14].content_store 	misses[14] 	19998
scalar tiger_network.node[14].content_store 	decision_yes[14] 	110
scalar tiger_network.node[14].content_store 	decision_no[14] 	19888
scalar tiger_network.node[14].content_store 	decision_ratio[14] 	0.0055005500550055
scalar tiger_network.node[15].core_layer 	interests[15] 	27179
scalar tiger_network.node[15].core_layer 	repo_load[15] 	9550
scalar tiger_network.node[15].core_layer 	data[15] 	13207
scalar tiger_network.node[15].content_store 	p_hit[15] 	0.16269914272048
scalar tiger_network.node[15].content_store 	hits[15] 	4422
scalar tiger_network.node[15].content_store 	misses[15] 	22757
scalar tiger_network.node[15].content_store 	decision_yes[15] 	114
scalar tiger_network.node[15].content_store 	decision_no[15] 	22643
scalar tiger_network.node[15].content_store 	decision_ratio[15] 	0.0050094476424836
scalar tiger_network.node[16].core_layer 	interests[16] 	32837
scalar tiger_network.node[16].core_layer 	repo_load[16] 	9404
scalar tiger_network.node[16].core_layer 	data[16] 	17686
scalar tiger_network.node[16].content_store 	p_hit[16] 	0.17501598806225
scalar tiger_network.node[16].content_store 	hits[16] 	5747
scalar tiger_network.node[16].content_store 	misses[16] 	27090
scalar tiger_network.node[16].content_store 	decision_yes[16] 	132
scalar tiger_network.node[16].content_store 	decision_no[16] 	26958
scalar tiger_network.node[16].content_store 	decision_ratio[16] 	0.0048726467331118
scalar tiger_network.node[17].core_layer 	interests[17] 	40741
scalar tiger_network.node[17].core_layer 	repo_load[17] 	10109
scalar tiger_network.node[17].core_layer 	data[17] 	25372
scalar tiger_network.node[17].content_store 	p_hit[17] 	0.12910826931101
scalar tiger_network.node[17].content_store 	hits[17] 	5260
scalar tiger_network.node[17].content_store 	misses[17] 	35481
scalar tiger_network.node[17].content_store 	decision_yes[17] 	184
scalar tiger_network.node[17].content_store 	decision_no[17] 	35297
scalar tiger_network.node[17].content_store 	decision_ratio[17] 	0.005185874129816
scalar tiger_network.node[18].core_layer 	interests[18] 	46229
scalar tiger_network.node[18].core_layer 	repo_load[18] 	9686
scalar tiger_network.node[18].core_layer 	data[18] 	30952
scalar tiger_network.node[18].content_store 	p_hit[18] 	0.12094140041965
scalar tiger_network.node[18].content_store 	hits[18] 	5591
scalar tiger_network.node[18].content_store 	misses[18] 	40638
scalar tiger_network.node[18].content_store 	decision_yes[18] 	185
scalar tiger_network.node[18].content_store 	decision_no[18] 	40453
scalar tiger_network.node[18].content_store 	decision_ratio[18] 	0.0045523893892416
scalar tiger_network.node[19].core_layer 	interests[19] 	20479
scalar tiger_network.node[19].core_layer 	data[19] 	15377
scalar tiger_network.node[19].content_store 	p_hit[19] 	0.24913325845989
scalar tiger_network.node[19].content_store 	hits[19] 	5102
scalar tiger_network.node[19].content_store 	misses[19] 	15377
scalar tiger_network.node[19].content_store 	decision_yes[19] 	81
scalar tiger_network.node[19].content_store 	decision_no[19] 	15296
scalar tiger_network.node[19].content_store 	decision_ratio[19] 	0.0052676074656955
scalar tiger_network.node[20].core_layer 	interests[20] 	27227
scalar tiger_network.node[20].core_layer 	repo_load[20] 	9457
scalar tiger_network.node[20].core_layer 	data[20] 	12893
scalar tiger_network.node[20].content_store 	p_hit[20] 	0.17908693576229
scalar tiger_network.node[20].content_store 	hits[20] 	4876
scalar tiger_network.node[20].content_store 	misses[20] 	22351
scalar tiger_network.node[20].content_store 	decision_yes[20] 	123
scalar tiger_network.node[20].content_store 	decision_no[20] 	22227
scalar tiger_network.node[20].content_store 	decision_ratio[20] 	0.005503355704698
scalar tiger_network.node[21].core_layer 	interests[21] 	18125
scalar tiger_network.node[21].core_layer 	data[21] 	13420
scalar tiger_network.node[21].content_store 	p_hit[21] 	0.25958620689655
scalar tiger_network.node[21].content_store 	hits[21] 	4705
scalar tiger_network.node[21].content_store 	misses[21] 	13420
scalar tiger_network.node[21].content_store 	decision_yes[21] 	69
scalar tiger_network.node[21].content_store 	decision_no[21] 	13351
scalar tiger_network.node[21].content_store 	decision_ratio[21] 	0.0051415797317437
scalar tiger_network.client[0] 	hdistance[0] 	2.2049221496735
scalar tiger_network.client[0] 	downloads[0] 	11946
scalar tiger_network.client[0] 	avg_time[0] 	0.0005374782
scalar tiger_network.client[1] 	hdistance[1] 	2.3433842999914
scalar tiger_network.client[1] 	downloads[1] 	11707
scalar tiger_network.client[1] 	avg_time[1] 	0.000802544276
scalar tiger_network.client[2] 	hdistance[2] 	2.1471456277932
scalar tiger_network.client[2] 	downloads[2] 	11859
scalar tiger_network.client[2] 	avg_time[2] 	0.000837855826
scalar tiger_network.client[3] 	hdistance[3] 	2.2571428571429
scalar tiger_network.client[3] 	downloads[3] 	11970
scalar tiger_network.client[3] 	avg_time[3] 	0.000925511968
scalar tiger_network.client[4] 	hdistance[4] 	2.3910066006601
scalar tiger_network.client[4] 	downloads[4] 	12120
scalar tiger_network.client[4] 	avg_time[4] 	0.001009403754
scalar tiger_network.client[5] 	hdistance[5] 	2.4960052713945
scalar tiger_network.client[5] 	downloads[5] 	12141
scalar tiger_network.client[5] 	avg_time[5] 	0.001005850171
scalar tiger_network.client[6] 	hdistance[6] 	2.3313759073485
scalar tiger_network.client[6] 	downloads[6] 	12261
scalar tiger_network.client[6] 	avg_time[6] 	0.000704489232
scalar tiger_network.client[7] 	hdistance[7] 	2.3380223073081
scalar tiger_network.client[7] 	downloads[7] 	12014
scalar tiger_network.client[7] 	avg_time[7] 	0.000660047281
scalar tiger_network.client[8] 	hdistance[8] 	2.3022608125819
scalar tiger_network.client[8] 	downloads[8] 	12208
scalar tiger_network.client[8] 	avg_time[8] 	0.000715887529
scalar tiger_network.client[9] 	hdistance[9] 	2.6583222811671
scalar tiger_network.client[9] 	downloads[9] 	12064
scalar tiger_network.client[9] 	avg_time[9] 	0.000677519025
scalar tiger_network.client[10] 	hdistance[10] 	2.5068811142431
scalar tiger_network.client[10] 	downloads[10] 	12062
scalar tiger_network.client[10] 	avg_time[10] 	0.000654386832
scalar tiger_network.client[11] 	hdistance[11] 	2.3325022853819
scalar tiger_network.client[11] 	downloads[11] 	12033
scalar tiger_network.client[11] 	avg_time[11] 	0.000399394332
scalar tiger_network.client[12] 	hdistance[12] 	2.197432049358
scalar tiger_network.client[12] 	downloads[12] 	11994
scalar tiger_network.client[12] 	avg_time[12] 	0.000623065378
scalar tiger_network.client[13] 	hdistance[13] 	2.4592074592075
scalar tiger_network.client[13] 	downloads[13] 	12012
scalar tiger_network.client[13] 	avg_time[13] 	0.000652237762
scalar tiger_network.client[14] 	hdistance[14] 	2.6075130607845
scalar tiger_network.client[14] 	downloads[14] 	12059
scalar tiger_network.client[14] 	avg_time[14] 	0.000607800954
scalar tiger_network.client[15] 	hdistance[15] 	2.4574111334675
scalar tiger_network.client[15] 	downloads[15] 	11928
scalar tiger_network.client[15] 	avg_time[15] 	0.000609109886
scalar tiger_network.client[16] 	hdistance[16] 	2.3425651170458
scalar tiger_network.client[16] 	downloads[16] 	12132
scalar tiger_network.client[16] 	avg_time[16] 	0.000654083199
scalar tiger_network.client[17] 	hdistance[17] 	2.2241769288766
scalar tiger_network.client[17] 	downloads[17] 	11937
scalar tiger_network.client[17] 	avg_time[17] 	0.000613490145
scalar tiger_network.client[18] 	hdistance[18] 	2.1857813547954
scalar tiger_network.client[18] 	downloads[18] 	11928
scalar tiger_network.client[18] 	avg_time[18] 	0.000455294623
scalar tiger_network.client[19] 	hdistance[19] 	2.3560726542228
scalar tiger_network.client[19] 	downloads[19] 	11947
scalar tiger_network.client[19] 	avg_time[19] 	0.000351332737
scalar tiger_network.client[20] 	hdistance[20] 	2.513385293121
scalar tiger_network.client[20] 	downloads[20] 	11804
scalar tiger_network.client[20] 	avg_time[20] 	0.000634993392
scalar tiger_network.client[21] 	hdistance[21] 	2.5793103448276
scalar tiger_network.client[21] 	downloads[21] 	12035
scalar tiger_network.client[21] 	avg_time[21] 	0.000584223326
