version 2
run General-38-20160826-10:53:42-19693
attr D fix0.005
attr F nrr
attr R lru
attr a 0.9
attr configname General
attr datetime 20160826-10:53:42
attr experiment General
attr inifile hw5115/scenario_C/omnetp.ini
attr iterationvars "$net=tiger, $rep=5, $a=0.9, $F=nrr, $D=fix0.005, $R=lru, $window=60, $variance=0.05, $mytime=600"
attr iterationvars2 "$net=tiger, $rep=5, $a=0.9, $F=nrr, $D=fix0.005, $R=lru, $window=60, $variance=0.05, $mytime=600, $repetition=0"
attr measurement "$net=tiger, $rep=5, $a=0.9, $F=nrr, $D=fix0.005, $R=lru, $window=60, $variance=0.05, $mytime=600"
attr mytime 600
attr net tiger
attr network networks.${net=tiger}_network
attr processid 19693
attr rep 5
attr repetition 0
attr replication #0
attr resultdir results
attr runnumber 38
attr seedset 5
attr variance 0.05
attr window 60

scalar . 	a 	0.9
scalar . 	mytime 	600
scalar . 	rep 	5
scalar . 	variance 	0.05
scalar . 	window 	60
scalar tiger_network.content_distribution 	repo-0 	9
scalar tiger_network.content_distribution 	repo-1 	14
scalar tiger_network.content_distribution 	repo-2 	5
scalar tiger_network.content_distribution 	repo-3 	1
scalar tiger_network.content_distribution 	repo-4 	4
scalar tiger_network.content_distribution 	repo-5 	0
scalar tiger_network.content_distribution 	repo-6 	16
scalar tiger_network.content_distribution 	repo-7 	18
scalar tiger_network.content_distribution 	repo-8 	20
scalar tiger_network.content_distribution 	repo-9 	10
scalar tiger_network.content_distribution 	repo-10 	2
scalar tiger_network.content_distribution 	repo-11 	13
scalar tiger_network.content_distribution 	repo-12 	12
scalar tiger_network.content_distribution 	repo-13 	19
scalar tiger_network.content_distribution 	repo-14 	8
scalar tiger_network.content_distribution 	repo-15 	17
scalar tiger_network.content_distribution 	client-0 	21
scalar tiger_network.content_distribution 	client-1 	9
scalar tiger_network.content_distribution 	client-2 	6
scalar tiger_network.content_distribution 	client-3 	2
scalar tiger_network.content_distribution 	client-4 	14
scalar tiger_network.content_distribution 	client-5 	8
scalar tiger_network.content_distribution 	client-6 	17
scalar tiger_network.content_distribution 	client-7 	0
scalar tiger_network.content_distribution 	client-8 	19
scalar tiger_network.content_distribution 	client-9 	10
scalar tiger_network.content_distribution 	client-10 	13
scalar tiger_network.content_distribution 	client-11 	1
scalar tiger_network.content_distribution 	client-12 	3
scalar tiger_network.content_distribution 	client-13 	18
scalar tiger_network.content_distribution 	client-14 	15
scalar tiger_network.content_distribution 	client-15 	16
scalar tiger_network.content_distribution 	client-16 	12
scalar tiger_network.content_distribution 	client-17 	11
scalar tiger_network.content_distribution 	client-18 	7
scalar tiger_network.content_distribution 	client-19 	4
scalar tiger_network.content_distribution 	client-20 	5
scalar tiger_network.content_distribution 	client-21 	20
scalar tiger_network.content_distribution 	repo-0_card 	6289
scalar tiger_network.content_distribution 	repo-0_price 	0
scalar tiger_network.content_distribution 	repo-1_card 	6243
scalar tiger_network.content_distribution 	repo-1_price 	0
scalar tiger_network.content_distribution 	repo-2_card 	6284
scalar tiger_network.content_distribution 	repo-2_price 	0
scalar tiger_network.content_distribution 	repo-3_card 	6071
scalar tiger_network.content_distribution 	repo-3_price 	0
scalar tiger_network.content_distribution 	repo-4_card 	6173
scalar tiger_network.content_distribution 	repo-4_price 	0
scalar tiger_network.content_distribution 	repo-5_card 	6278
scalar tiger_network.content_distribution 	repo-5_price 	0
scalar tiger_network.content_distribution 	repo-6_card 	6354
scalar tiger_network.content_distribution 	repo-6_price 	0
scalar tiger_network.content_distribution 	repo-7_card 	6254
scalar tiger_network.content_distribution 	repo-7_price 	0
scalar tiger_network.content_distribution 	repo-8_card 	6276
scalar tiger_network.content_distribution 	repo-8_price 	0
scalar tiger_network.content_distribution 	repo-9_card 	6208
scalar tiger_network.content_distribution 	repo-9_price 	0
scalar tiger_network.content_distribution 	repo-10_card 	6278
scalar tiger_network.content_distribution 	repo-10_price 	0
scalar tiger_network.content_distribution 	repo-11_card 	6229
scalar tiger_network.content_distribution 	repo-11_price 	0
scalar tiger_network.content_distribution 	repo-12_card 	6192
scalar tiger_network.content_distribution 	repo-12_price 	0
scalar tiger_network.content_distribution 	repo-13_card 	6316
scalar tiger_network.content_distribution 	repo-13_price 	0
scalar tiger_network.content_distribution 	repo-14_card 	6239
scalar tiger_network.content_distribution 	repo-14_price 	0
scalar tiger_network.content_distribution 	repo-15_card 	6316
scalar tiger_network.content_distribution 	repo-15_price 	0
scalar tiger_network.statistics 	stabilization_time 	2199.6
scalar tiger_network.statistics 	p_hit 	0.1654040605532
scalar tiger_network.statistics 	interests 	33512.272727273
scalar tiger_network.statistics 	data 	21483.181818182
scalar tiger_network.statistics 	hdistance 	2.3628437836984
scalar tiger_network.statistics 	avg_time 	0.000684980123
scalar tiger_network.statistics 	downloads 	264637
scalar tiger_network.statistics 	total_cost 	0
scalar tiger_network.statistics 	total_replicas 	100000
scalar tiger_network.statistics 	inner_hit 	0.42332326923295
scalar tiger_network.node[0].core_layer 	interests[0] 	44319
scalar tiger_network.node[0].core_layer 	repo_load[0] 	10422
scalar tiger_network.node[0].core_layer 	data[0] 	28573
scalar tiger_network.node[0].core_layer 	repo_int[0] 	152610
scalar tiger_network.node[0].content_store 	p_hit[0] 	0.12012906428394
scalar tiger_network.node[0].content_store 	hits[0] 	5324
scalar tiger_network.node[0].content_store 	misses[0] 	38995
scalar tiger_network.node[0].content_store 	decision_yes[0] 	192
scalar tiger_network.node[0].content_store 	decision_no[0] 	38803
scalar tiger_network.node[0].content_store 	decision_ratio[0] 	0.0049237081677138
scalar tiger_network.node[1].core_layer 	interests[1] 	48116
scalar tiger_network.node[1].core_layer 	repo_load[1] 	9503
scalar tiger_network.node[1].core_layer 	data[1] 	33467
scalar tiger_network.node[1].content_store 	p_hit[1] 	0.10694987114473
scalar tiger_network.node[1].content_store 	hits[1] 	5146
scalar tiger_network.node[1].content_store 	misses[1] 	42970
scalar tiger_network.node[1].content_store 	decision_yes[1] 	203
scalar tiger_network.node[1].content_store 	decision_no[1] 	42767
scalar tiger_network.node[1].content_store 	decision_ratio[1] 	0.0047242262043286
scalar tiger_network.node[2].core_layer 	interests[2] 	57155
scalar tiger_network.node[2].core_layer 	repo_load[2] 	9835
scalar tiger_network.node[2].core_layer 	data[2] 	42032
scalar tiger_network.node[2].content_store 	p_hit[2] 	0.092520339427872
scalar tiger_network.node[2].content_store 	hits[2] 	5288
scalar tiger_network.node[2].content_store 	misses[2] 	51867
scalar tiger_network.node[2].content_store 	decision_yes[2] 	254
scalar tiger_network.node[2].content_store 	decision_no[2] 	51613
scalar tiger_network.node[2].content_store 	decision_ratio[2] 	0.0048971407638768
scalar tiger_network.node[3].core_layer 	interests[3] 	45239
scalar tiger_network.node[3].core_layer 	data[3] 	39948
scalar tiger_network.node[3].content_store 	p_hit[3] 	0.11693450341519
scalar tiger_network.node[3].content_store 	hits[3] 	5290
scalar tiger_network.node[3].content_store 	misses[3] 	39949
scalar tiger_network.node[3].content_store 	decision_yes[3] 	192
scalar tiger_network.node[3].content_store 	decision_no[3] 	39756
scalar tiger_network.node[3].content_store 	decision_ratio[3] 	0.0048062481225593
scalar tiger_network.node[4].core_layer 	interests[4] 	39122
scalar tiger_network.node[4].core_layer 	repo_load[4] 	9416
scalar tiger_network.node[4].core_layer 	data[4] 	24468
scalar tiger_network.node[4].content_store 	p_hit[4] 	0.13386329942232
scalar tiger_network.node[4].content_store 	hits[4] 	5237
scalar tiger_network.node[4].content_store 	misses[4] 	33885
scalar tiger_network.node[4].content_store 	decision_yes[4] 	164
scalar tiger_network.node[4].content_store 	decision_no[4] 	33720
scalar tiger_network.node[4].content_store 	decision_ratio[4] 	0.0048400424979341
scalar tiger_network.node[5].core_layer 	interests[5] 	24137
scalar tiger_network.node[5].core_layer 	repo_load[5] 	9318
scalar tiger_network.node[5].core_layer 	data[5] 	10086
scalar tiger_network.node[5].content_store 	p_hit[5] 	0.19608899200398
scalar tiger_network.node[5].content_store 	hits[5] 	4733
scalar tiger_network.node[5].content_store 	misses[5] 	19404
scalar tiger_network.node[5].content_store 	decision_yes[5] 	106
scalar tiger_network.node[5].content_store 	decision_no[5] 	19298
scalar tiger_network.node[5].content_store 	decision_ratio[5] 	0.0054627911770769
scalar tiger_network.node[6].core_layer 	interests[6] 	26582
scalar tiger_network.node[6].core_layer 	data[6] 	21631
scalar tiger_network.node[6].content_store 	p_hit[6] 	0.18625385599278
scalar tiger_network.node[6].content_store 	hits[6] 	4951
scalar tiger_network.node[6].content_store 	misses[6] 	21631
scalar tiger_network.node[6].content_store 	decision_yes[6] 	107
scalar tiger_network.node[6].content_store 	decision_no[6] 	21524
scalar tiger_network.node[6].content_store 	decision_ratio[6] 	0.004946604410337
scalar tiger_network.node[7].core_layer 	interests[7] 	31990
scalar tiger_network.node[7].core_layer 	data[7] 	27127
scalar tiger_network.node[7].content_store 	p_hit[7] 	0.15201625507971
scalar tiger_network.node[7].content_store 	hits[7] 	4863
scalar tiger_network.node[7].content_store 	misses[7] 	27127
scalar tiger_network.node[7].content_store 	decision_yes[7] 	137
scalar tiger_network.node[7].content_store 	decision_no[7] 	26990
scalar tiger_network.node[7].content_store 	decision_ratio[7] 	0.005050318870498
scalar tiger_network.node[8].core_layer 	interests[8] 	45257
scalar tiger_network.node[8].core_layer 	repo_load[8] 	9492
scalar tiger_network.node[8].core_layer 	data[8] 	30430
scalar tiger_network.node[8].content_store 	p_hit[8] 	0.11788231654772
scalar tiger_network.node[8].content_store 	hits[8] 	5335
scalar tiger_network.node[8].content_store 	misses[8] 	39922
scalar tiger_network.node[8].content_store 	decision_yes[8] 	236
scalar tiger_network.node[8].content_store 	decision_no[8] 	39686
scalar tiger_network.node[8].content_store 	decision_ratio[8] 	0.0059115274785832
scalar tiger_network.node[9].core_layer 	interests[9] 	23999
scalar tiger_network.node[9].core_layer 	repo_load[9] 	9551
scalar tiger_network.node[9].core_layer 	data[9] 	10028
scalar tiger_network.node[9].content_store 	p_hit[9] 	0.18417434059752
scalar tiger_network.node[9].content_store 	hits[9] 	4420
scalar tiger_network.node[9].content_store 	misses[9] 	19579
scalar tiger_network.node[9].content_store 	decision_yes[9] 	115
scalar tiger_network.node[9].content_store 	decision_no[9] 	19464
scalar tiger_network.node[9].content_store 	decision_ratio[9] 	0.0058736401246233
scalar tiger_network.node[10].core_layer 	interests[10] 	27775
scalar tiger_network.node[10].core_layer 	repo_load[10] 	9437
scalar tiger_network.node[10].core_layer 	data[10] 	13653
scalar tiger_network.node[10].content_store 	p_hit[10] 	0.16867686768677
scalar tiger_network.node[10].content_store 	hits[10] 	4685
scalar tiger_network.node[10].content_store 	misses[10] 	23090
scalar tiger_network.node[10].content_store 	decision_yes[10] 	128
scalar tiger_network.node[10].content_store 	decision_no[10] 	22962
scalar tiger_network.node[10].content_store 	decision_ratio[10] 	0.0055435253356431
scalar tiger_network.node[11].core_layer 	interests[11] 	21960
scalar tiger_network.node[11].core_layer 	data[11] 	16722
scalar tiger_network.node[11].content_store 	p_hit[11] 	0.23852459016393
scalar tiger_network.node[11].content_store 	hits[11] 	5238
scalar tiger_network.node[11].content_store 	misses[11] 	16722
scalar tiger_network.node[11].content_store 	decision_yes[11] 	94
scalar tiger_network.node[11].content_store 	decision_no[11] 	16628
scalar tiger_network.node[11].content_store 	decision_ratio[11] 	0.0056213371606267
scalar tiger_network.node[12].core_layer 	interests[12] 	38712
scalar tiger_network.node[12].core_layer 	repo_load[12] 	9623
scalar tiger_network.node[12].core_layer 	data[12] 	23206
scalar tiger_network.node[12].content_store 	p_hit[12] 	0.15196838189709
scalar tiger_network.node[12].content_store 	hits[12] 	5883
scalar tiger_network.node[12].content_store 	misses[12] 	32829
scalar tiger_network.node[12].content_store 	decision_yes[12] 	166
scalar tiger_network.node[12].content_store 	decision_no[12] 	32663
scalar tiger_network.node[12].content_store 	decision_ratio[12] 	0.005056504919431
scalar tiger_network.node[13].core_layer 	interests[13] 	27504
scalar tiger_network.node[13].core_layer 	repo_load[13] 	9804
scalar tiger_network.node[13].core_layer 	data[13] 	12815
scalar tiger_network.node[13].content_store 	p_hit[13] 	0.17761052937755
scalar tiger_network.node[13].content_store 	hits[13] 	4885
scalar tiger_network.node[13].content_store 	misses[13] 	22619
scalar tiger_network.node[13].content_store 	decision_yes[13] 	104
scalar tiger_network.node[13].content_store 	decision_no[13] 	22515
scalar tiger_network.node[13].content_store 	decision_ratio[13] 	0.0045979044166409
scalar tiger_network.node[14].core_layer 	interests[14] 	24915
scalar tiger_network.node[14].core_layer 	repo_load[14] 	9284
scalar tiger_network.node[14].core_layer 	data[14] 	11106
scalar tiger_network.node[14].content_store 	p_hit[14] 	0.18161749949829
scalar tiger_network.node[14].content_store 	hits[14] 	4525
scalar tiger_network.node[14].content_store 	misses[14] 	20390
scalar tiger_network.node[14].content_store 	decision_yes[14] 	106
scalar tiger_network.node[14].content_store 	decision_no[14] 	20284
scalar tiger_network.node[14].content_store 	decision_ratio[14] 	0.0051986267778323
scalar tiger_network.node[15].core_layer 	interests[15] 	18355
scalar tiger_network.node[15].core_layer 	data[15] 	13231
scalar tiger_network.node[15].content_store 	p_hit[15] 	0.27916099155543
scalar tiger_network.node[15].content_store 	hits[15] 	5124
scalar tiger_network.node[15].content_store 	misses[15] 	13231
scalar tiger_network.node[15].content_store 	decision_yes[15] 	63
scalar tiger_network.node[15].content_store 	decision_no[15] 	13168
scalar tiger_network.node[15].content_store 	decision_ratio[15] 	0.0047615448567758
scalar tiger_network.node[16].core_layer 	interests[16] 	29080
scalar tiger_network.node[16].core_layer 	repo_load[16] 	9804
scalar tiger_network.node[16].core_layer 	data[16] 	13874
scalar tiger_network.node[16].content_store 	p_hit[16] 	0.18576341127923
scalar tiger_network.node[16].content_store 	hits[16] 	5402
scalar tiger_network.node[16].content_store 	misses[16] 	23678
scalar tiger_network.node[16].content_store 	decision_yes[16] 	123
scalar tiger_network.node[16].content_store 	decision_no[16] 	23555
scalar tiger_network.node[16].content_store 	decision_ratio[16] 	0.0051946954979306
scalar tiger_network.node[17].core_layer 	interests[17] 	41157
scalar tiger_network.node[17].core_layer 	repo_load[17] 	9557
scalar tiger_network.node[17].core_layer 	data[17] 	26198
scalar tiger_network.node[17].content_store 	p_hit[17] 	0.13125349272299
scalar tiger_network.node[17].content_store 	hits[17] 	5402
scalar tiger_network.node[17].content_store 	misses[17] 	35755
scalar tiger_network.node[17].content_store 	decision_yes[17] 	171
scalar tiger_network.node[17].content_store 	decision_no[17] 	35584
scalar tiger_network.node[17].content_store 	decision_ratio[17] 	0.0047825478953992
scalar tiger_network.node[18].core_layer 	interests[18] 	46126
scalar tiger_network.node[18].core_layer 	repo_load[18] 	9125
scalar tiger_network.node[18].core_layer 	data[18] 	31687
scalar tiger_network.node[18].content_store 	p_hit[18] 	0.11520617439188
scalar tiger_network.node[18].content_store 	hits[18] 	5314
scalar tiger_network.node[18].content_store 	misses[18] 	40812
scalar tiger_network.node[18].content_store 	decision_yes[18] 	204
scalar tiger_network.node[18].content_store 	decision_no[18] 	40608
scalar tiger_network.node[18].content_store 	decision_ratio[18] 	0.0049985298441635
scalar tiger_network.node[19].core_layer 	interests[19] 	30078
scalar tiger_network.node[19].core_layer 	repo_load[19] 	9212
scalar tiger_network.node[19].core_layer 	data[19] 	15142
scalar tiger_network.node[19].content_store 	p_hit[19] 	0.1903052064632
scalar tiger_network.node[19].content_store 	hits[19] 	5724
scalar tiger_network.node[19].content_store 	misses[19] 	24354
scalar tiger_network.node[19].content_store 	decision_yes[19] 	121
scalar tiger_network.node[19].content_store 	decision_no[19] 	24233
scalar tiger_network.node[19].content_store 	decision_ratio[19] 	0.0049683830171635
scalar tiger_network.node[20].core_layer 	interests[20] 	25432
scalar tiger_network.node[20].core_layer 	repo_load[20] 	9227
scalar tiger_network.node[20].core_layer 	data[20] 	11720
scalar tiger_network.node[20].content_store 	p_hit[20] 	0.17635262661214
scalar tiger_network.node[20].content_store 	hits[20] 	4485
scalar tiger_network.node[20].content_store 	misses[20] 	20947
scalar tiger_network.node[20].content_store 	decision_yes[20] 	99
scalar tiger_network.node[20].content_store 	decision_no[20] 	20848
scalar tiger_network.node[20].content_store 	decision_ratio[20] 	0.0047262137776293
scalar tiger_network.node[21].core_layer 	interests[21] 	20260
scalar tiger_network.node[21].core_layer 	data[21] 	15486
scalar tiger_network.node[21].content_store 	p_hit[21] 	0.23563672260612
scalar tiger_network.node[21].content_store 	hits[21] 	4774
scalar tiger_network.node[21].content_store 	misses[21] 	15486
scalar tiger_network.node[21].content_store 	decision_yes[21] 	71
scalar tiger_network.node[21].content_store 	decision_no[21] 	15415
scalar tiger_network.node[21].content_store 	decision_ratio[21] 	0.0045847862585561
scalar tiger_network.client[0] 	hdistance[0] 	2.1250515548957
scalar tiger_network.client[0] 	downloads[0] 	12123
scalar tiger_network.client[0] 	avg_time[0] 	0.000467882801
scalar tiger_network.client[1] 	hdistance[1] 	2.3402129943036
scalar tiger_network.client[1] 	downloads[1] 	12113
scalar tiger_network.client[1] 	avg_time[1] 	0.000834870423
scalar tiger_network.client[2] 	hdistance[2] 	2.1495248507274
scalar tiger_network.client[2] 	downloads[2] 	11891
scalar tiger_network.client[2] 	avg_time[2] 	0.000861072479
scalar tiger_network.client[3] 	hdistance[3] 	2.2922709294661
scalar tiger_network.client[3] 	downloads[3] 	12136
scalar tiger_network.client[3] 	avg_time[3] 	0.000933386301
scalar tiger_network.client[4] 	hdistance[4] 	2.3411047046043
scalar tiger_network.client[4] 	downloads[4] 	11967
scalar tiger_network.client[4] 	avg_time[4] 	0.000947263314
scalar tiger_network.client[5] 	hdistance[5] 	2.4784757118928
scalar tiger_network.client[5] 	downloads[5] 	11940
scalar tiger_network.client[5] 	avg_time[5] 	0.001017064865
scalar tiger_network.client[6] 	hdistance[6] 	2.4295007180874
scalar tiger_network.client[6] 	downloads[6] 	11837
scalar tiger_network.client[6] 	avg_time[6] 	0.000717348913
scalar tiger_network.client[7] 	hdistance[7] 	2.3368304332992
scalar tiger_network.client[7] 	downloads[7] 	11724
scalar tiger_network.client[7] 	avg_time[7] 	0.000740551178
scalar tiger_network.client[8] 	hdistance[8] 	2.2935940099834
scalar tiger_network.client[8] 	downloads[8] 	12020
scalar tiger_network.client[8] 	avg_time[8] 	0.000727213444
scalar tiger_network.client[9] 	hdistance[9] 	2.620498385628
scalar tiger_network.client[9] 	downloads[9] 	12079
scalar tiger_network.client[9] 	avg_time[9] 	0.000690496004
scalar tiger_network.client[10] 	hdistance[10] 	2.5652246673918
scalar tiger_network.client[10] 	downloads[10] 	11951
scalar tiger_network.client[10] 	avg_time[10] 	0.00071721971
scalar tiger_network.client[11] 	hdistance[11] 	2.3070074196208
scalar tiger_network.client[11] 	downloads[11] 	12130
scalar tiger_network.client[11] 	avg_time[11] 	0.00038171486
scalar tiger_network.client[12] 	hdistance[12] 	2.1598614204405
scalar tiger_network.client[12] 	downloads[12] 	12123
scalar tiger_network.client[12] 	avg_time[12] 	0.0006529898
scalar tiger_network.client[13] 	hdistance[13] 	2.3886516669404
scalar tiger_network.client[13] 	downloads[13] 	12178
scalar tiger_network.client[13] 	avg_time[13] 	0.000741192722
scalar tiger_network.client[14] 	hdistance[14] 	2.6148068669528
scalar tiger_network.client[14] 	downloads[14] 	12116
scalar tiger_network.client[14] 	avg_time[14] 	0.000741571422
scalar tiger_network.client[15] 	hdistance[15] 	2.5581975390755
scalar tiger_network.client[15] 	downloads[15] 	12028
scalar tiger_network.client[15] 	avg_time[15] 	0.000643051541
scalar tiger_network.client[16] 	hdistance[16] 	2.4044953208556
scalar tiger_network.client[16] 	downloads[16] 	11968
scalar tiger_network.client[16] 	avg_time[16] 	0.00064640376
scalar tiger_network.client[17] 	hdistance[17] 	2.2483529313652
scalar tiger_network.client[17] 	downloads[17] 	11991
scalar tiger_network.client[17] 	avg_time[17] 	0.000677696284
scalar tiger_network.client[18] 	hdistance[18] 	2.1576077977862
scalar tiger_network.client[18] 	downloads[18] 	12106
scalar tiger_network.client[18] 	avg_time[18] 	0.000465063742
scalar tiger_network.client[19] 	hdistance[19] 	2.1728841413311
scalar tiger_network.client[19] 	downloads[19] 	12170
scalar tiger_network.client[19] 	avg_time[19] 	0.000307814898
scalar tiger_network.client[20] 	hdistance[20] 	2.4971647765177
scalar tiger_network.client[20] 	downloads[20] 	11992
scalar tiger_network.client[20] 	avg_time[20] 	0.000623335239
scalar tiger_network.client[21] 	hdistance[21] 	2.5012444001991
scalar tiger_network.client[21] 	downloads[21] 	12054
scalar tiger_network.client[21] 	avg_time[21] 	0.000534359007
