version 2
run General-163-20160831-23:21:10-8710
attr a 0.9
attr cd ffc0.25
attr configname General
attr cr lru
attr datetime 20160831-23:21:10
attr experiment General
attr fsize 1
attr inifile hw5115/scenario_Y/omnetp.ini
attr iterationvars "$name=tree_4_3, $un=02, $rep=15, $cd=ffc0.25, $cr=lru, $fsize=1, $a=0.9, $sl=nrr, $ttl=1000, $variance=0.05"
attr iterationvars2 "$name=tree_4_3, $un=02, $rep=15, $cd=ffc0.25, $cr=lru, $fsize=1, $a=0.9, $sl=nrr, $ttl=1000, $variance=0.05, $repetition=0"
attr measurement "$name=tree_4_3, $un=02, $rep=15, $cd=ffc0.25, $cr=lru, $fsize=1, $a=0.9, $sl=nrr, $ttl=1000, $variance=0.05"
attr name tree_4_3
attr network networks.${name}_u${un}_r${rep}_network
attr processid 8710
attr rep 15
attr repetition 0
attr replication #0
attr resultdir results
attr runnumber 163
attr seedset 15
attr sl nrr
attr ttl 1000
attr un 02
attr variance 0.05

scalar . 	a 	0.9
scalar . 	fsize 	1
scalar . 	rep 	15
scalar . 	ttl 	1000
scalar . 	un 	02
scalar . 	variance 	0.05
scalar tree_4_3_u02_r15_network.content_distribution 	repo-0 	0
scalar tree_4_3_u02_r15_network.content_distribution 	client-0 	13
scalar tree_4_3_u02_r15_network.content_distribution 	client-1 	14
scalar tree_4_3_u02_r15_network.content_distribution 	client-2 	15
scalar tree_4_3_u02_r15_network.content_distribution 	client-3 	16
scalar tree_4_3_u02_r15_network.content_distribution 	client-4 	17
scalar tree_4_3_u02_r15_network.content_distribution 	client-5 	18
scalar tree_4_3_u02_r15_network.content_distribution 	client-6 	19
scalar tree_4_3_u02_r15_network.content_distribution 	client-7 	20
scalar tree_4_3_u02_r15_network.content_distribution 	client-8 	21
scalar tree_4_3_u02_r15_network.content_distribution 	client-9 	22
scalar tree_4_3_u02_r15_network.content_distribution 	client-10 	23
scalar tree_4_3_u02_r15_network.content_distribution 	client-11 	24
scalar tree_4_3_u02_r15_network.content_distribution 	client-12 	25
scalar tree_4_3_u02_r15_network.content_distribution 	client-13 	26
scalar tree_4_3_u02_r15_network.content_distribution 	client-14 	27
scalar tree_4_3_u02_r15_network.content_distribution 	client-15 	28
scalar tree_4_3_u02_r15_network.content_distribution 	client-16 	29
scalar tree_4_3_u02_r15_network.content_distribution 	client-17 	30
scalar tree_4_3_u02_r15_network.content_distribution 	client-18 	31
scalar tree_4_3_u02_r15_network.content_distribution 	client-19 	32
scalar tree_4_3_u02_r15_network.content_distribution 	client-20 	33
scalar tree_4_3_u02_r15_network.content_distribution 	client-21 	34
scalar tree_4_3_u02_r15_network.content_distribution 	client-22 	35
scalar tree_4_3_u02_r15_network.content_distribution 	client-23 	36
scalar tree_4_3_u02_r15_network.content_distribution 	client-24 	37
scalar tree_4_3_u02_r15_network.content_distribution 	client-25 	38
scalar tree_4_3_u02_r15_network.content_distribution 	client-26 	39
scalar tree_4_3_u02_r15_network.content_distribution 	repo-0_card 	100000
scalar tree_4_3_u02_r15_network.content_distribution 	repo-0_price 	0
scalar tree_4_3_u02_r15_network.statistics 	stabilization_time 	2242
scalar tree_4_3_u02_r15_network.statistics 	p_hit 	0.22553257826349
scalar tree_4_3_u02_r15_network.statistics 	interests 	24807.825
scalar tree_4_3_u02_r15_network.statistics 	data 	16695.925
scalar tree_4_3_u02_r15_network.statistics 	hdistance 	2.6432140995809
scalar tree_4_3_u02_r15_network.statistics 	avg_time 	0.004116460324
scalar tree_4_3_u02_r15_network.statistics 	downloads 	324480
scalar tree_4_3_u02_r15_network.statistics 	total_cost 	0
scalar tree_4_3_u02_r15_network.statistics 	total_replicas 	100000
scalar tree_4_3_u02_r15_network.statistics 	inner_hit 	0.41504561143984
scalar tree_4_3_u02_r15_network.node[0].core_layer 	interests[0] 	193568
scalar tree_4_3_u02_r15_network.node[0].core_layer 	repo_load[0] 	189806
scalar tree_4_3_u02_r15_network.node[0].core_layer 	data[0] 	0
scalar tree_4_3_u02_r15_network.node[0].core_layer 	repo_int[0] 	189806
scalar tree_4_3_u02_r15_network.node[0].content_store 	p_hit[0] 	0.019435030583568
scalar tree_4_3_u02_r15_network.node[0].content_store 	hits[0] 	3762
scalar tree_4_3_u02_r15_network.node[0].content_store 	misses[0] 	189806
scalar tree_4_3_u02_r15_network.node[0].content_store 	decision_yes[0] 	223
scalar tree_4_3_u02_r15_network.node[0].content_store 	decision_no[0] 	189583
scalar tree_4_3_u02_r15_network.node[0].content_store 	decision_ratio[0] 	0.0011748838287515
scalar tree_4_3_u02_r15_network.node[1].core_layer 	interests[1] 	93294
scalar tree_4_3_u02_r15_network.node[1].core_layer 	data[1] 	90528
scalar tree_4_3_u02_r15_network.node[1].content_store 	p_hit[1] 	0.029648208888031
scalar tree_4_3_u02_r15_network.node[1].content_store 	hits[1] 	2766
scalar tree_4_3_u02_r15_network.node[1].content_store 	misses[1] 	90528
scalar tree_4_3_u02_r15_network.node[1].content_store 	decision_yes[1] 	155
scalar tree_4_3_u02_r15_network.node[1].content_store 	decision_no[1] 	90373
scalar tree_4_3_u02_r15_network.node[1].content_store 	decision_ratio[1] 	0.0017121774478614
scalar tree_4_3_u02_r15_network.node[2].core_layer 	interests[2] 	48101
scalar tree_4_3_u02_r15_network.node[2].core_layer 	data[2] 	46014
scalar tree_4_3_u02_r15_network.node[2].content_store 	p_hit[2] 	0.043387871354026
scalar tree_4_3_u02_r15_network.node[2].content_store 	hits[2] 	2087
scalar tree_4_3_u02_r15_network.node[2].content_store 	misses[2] 	46014
scalar tree_4_3_u02_r15_network.node[2].content_store 	decision_yes[2] 	87
scalar tree_4_3_u02_r15_network.node[2].content_store 	decision_no[2] 	45927
scalar tree_4_3_u02_r15_network.node[2].content_store 	decision_ratio[2] 	0.001890728908593
scalar tree_4_3_u02_r15_network.node[3].core_layer 	interests[3] 	70883
scalar tree_4_3_u02_r15_network.node[3].core_layer 	data[3] 	68403
scalar tree_4_3_u02_r15_network.node[3].content_store 	p_hit[3] 	0.034973124726662
scalar tree_4_3_u02_r15_network.node[3].content_store 	hits[3] 	2479
scalar tree_4_3_u02_r15_network.node[3].content_store 	misses[3] 	68404
scalar tree_4_3_u02_r15_network.node[3].content_store 	decision_yes[3] 	95
scalar tree_4_3_u02_r15_network.node[3].content_store 	decision_no[3] 	68308
scalar tree_4_3_u02_r15_network.node[3].content_store 	decision_ratio[3] 	0.0013888279753812
scalar tree_4_3_u02_r15_network.node[4].core_layer 	interests[4] 	27407
scalar tree_4_3_u02_r15_network.node[4].core_layer 	data[4] 	25228
scalar tree_4_3_u02_r15_network.node[4].content_store 	p_hit[4] 	0.079505235888642
scalar tree_4_3_u02_r15_network.node[4].content_store 	hits[4] 	2179
scalar tree_4_3_u02_r15_network.node[4].content_store 	misses[4] 	25228
scalar tree_4_3_u02_r15_network.node[4].content_store 	decision_yes[4] 	73
scalar tree_4_3_u02_r15_network.node[4].content_store 	decision_no[4] 	25155
scalar tree_4_3_u02_r15_network.node[4].content_store 	decision_ratio[4] 	0.0028936102742984
scalar tree_4_3_u02_r15_network.node[5].core_layer 	interests[5] 	27448
scalar tree_4_3_u02_r15_network.node[5].core_layer 	data[5] 	25028
scalar tree_4_3_u02_r15_network.node[5].content_store 	p_hit[5] 	0.088130282716409
scalar tree_4_3_u02_r15_network.node[5].content_store 	hits[5] 	2419
scalar tree_4_3_u02_r15_network.node[5].content_store 	misses[5] 	25029
scalar tree_4_3_u02_r15_network.node[5].content_store 	decision_yes[5] 	65
scalar tree_4_3_u02_r15_network.node[5].content_store 	decision_no[5] 	24963
scalar tree_4_3_u02_r15_network.node[5].content_store 	decision_ratio[5] 	0.0025970912577913
scalar tree_4_3_u02_r15_network.node[6].core_layer 	interests[6] 	28157
scalar tree_4_3_u02_r15_network.node[6].core_layer 	data[6] 	25174
scalar tree_4_3_u02_r15_network.node[6].content_store 	p_hit[6] 	0.1060127144227
scalar tree_4_3_u02_r15_network.node[6].content_store 	hits[6] 	2985
scalar tree_4_3_u02_r15_network.node[6].content_store 	misses[6] 	25172
scalar tree_4_3_u02_r15_network.node[6].content_store 	decision_yes[6] 	57
scalar tree_4_3_u02_r15_network.node[6].content_store 	decision_no[6] 	25117
scalar tree_4_3_u02_r15_network.node[6].content_store 	decision_ratio[6] 	0.0022642408834512
scalar tree_4_3_u02_r15_network.node[7].core_layer 	interests[7] 	28348
scalar tree_4_3_u02_r15_network.node[7].core_layer 	data[7] 	25238
scalar tree_4_3_u02_r15_network.node[7].content_store 	p_hit[7] 	0.10970791590236
scalar tree_4_3_u02_r15_network.node[7].content_store 	hits[7] 	3110
scalar tree_4_3_u02_r15_network.node[7].content_store 	misses[7] 	25238
scalar tree_4_3_u02_r15_network.node[7].content_store 	decision_yes[7] 	76
scalar tree_4_3_u02_r15_network.node[7].content_store 	decision_no[7] 	25162
scalar tree_4_3_u02_r15_network.node[7].content_store 	decision_ratio[7] 	0.0030113321182344
scalar tree_4_3_u02_r15_network.node[8].core_layer 	interests[8] 	27482
scalar tree_4_3_u02_r15_network.node[8].core_layer 	data[8] 	25128
scalar tree_4_3_u02_r15_network.node[8].content_store 	p_hit[8] 	0.085656065788516
scalar tree_4_3_u02_r15_network.node[8].content_store 	hits[8] 	2354
scalar tree_4_3_u02_r15_network.node[8].content_store 	misses[8] 	25128
scalar tree_4_3_u02_r15_network.node[8].content_store 	decision_yes[8] 	64
scalar tree_4_3_u02_r15_network.node[8].content_store 	decision_no[8] 	25064
scalar tree_4_3_u02_r15_network.node[8].content_store 	decision_ratio[8] 	0.0025469595670169
scalar tree_4_3_u02_r15_network.node[9].core_layer 	interests[9] 	27351
scalar tree_4_3_u02_r15_network.node[9].core_layer 	data[9] 	24816
scalar tree_4_3_u02_r15_network.node[9].content_store 	p_hit[9] 	0.092647435194326
scalar tree_4_3_u02_r15_network.node[9].content_store 	hits[9] 	2534
scalar tree_4_3_u02_r15_network.node[9].content_store 	misses[9] 	24817
scalar tree_4_3_u02_r15_network.node[9].content_store 	decision_yes[9] 	56
scalar tree_4_3_u02_r15_network.node[9].content_store 	decision_no[9] 	24760
scalar tree_4_3_u02_r15_network.node[9].content_store 	decision_ratio[9] 	0.0022566086395874
scalar tree_4_3_u02_r15_network.node[10].core_layer 	interests[10] 	35958
scalar tree_4_3_u02_r15_network.node[10].core_layer 	data[10] 	33394
scalar tree_4_3_u02_r15_network.node[10].content_store 	p_hit[10] 	0.071305411869403
scalar tree_4_3_u02_r15_network.node[10].content_store 	hits[10] 	2564
scalar tree_4_3_u02_r15_network.node[10].content_store 	misses[10] 	33394
scalar tree_4_3_u02_r15_network.node[10].content_store 	decision_yes[10] 	96
scalar tree_4_3_u02_r15_network.node[10].content_store 	decision_no[10] 	33298
scalar tree_4_3_u02_r15_network.node[10].content_store 	decision_ratio[10] 	0.0028747679223813
scalar tree_4_3_u02_r15_network.node[11].core_layer 	interests[11] 	27548
scalar tree_4_3_u02_r15_network.node[11].core_layer 	data[11] 	25287
scalar tree_4_3_u02_r15_network.node[11].content_store 	p_hit[11] 	0.082111224045303
scalar tree_4_3_u02_r15_network.node[11].content_store 	hits[11] 	2262
scalar tree_4_3_u02_r15_network.node[11].content_store 	misses[11] 	25286
scalar tree_4_3_u02_r15_network.node[11].content_store 	decision_yes[11] 	62
scalar tree_4_3_u02_r15_network.node[11].content_store 	decision_no[11] 	25225
scalar tree_4_3_u02_r15_network.node[11].content_store 	decision_ratio[11] 	0.0024518527306521
scalar tree_4_3_u02_r15_network.node[12].core_layer 	interests[12] 	18716
scalar tree_4_3_u02_r15_network.node[12].core_layer 	data[12] 	16559
scalar tree_4_3_u02_r15_network.node[12].content_store 	p_hit[12] 	0.11514212438555
scalar tree_4_3_u02_r15_network.node[12].content_store 	hits[12] 	2155
scalar tree_4_3_u02_r15_network.node[12].content_store 	misses[12] 	16561
scalar tree_4_3_u02_r15_network.node[12].content_store 	decision_yes[12] 	39
scalar tree_4_3_u02_r15_network.node[12].content_store 	decision_no[12] 	16520
scalar tree_4_3_u02_r15_network.node[12].content_store 	decision_ratio[12] 	0.0023552146868772
scalar tree_4_3_u02_r15_network.node[13].core_layer 	interests[13] 	12486
scalar tree_4_3_u02_r15_network.node[13].core_layer 	data[13] 	8686
scalar tree_4_3_u02_r15_network.node[13].content_store 	p_hit[13] 	0.30434086176518
scalar tree_4_3_u02_r15_network.node[13].content_store 	hits[13] 	3800
scalar tree_4_3_u02_r15_network.node[13].content_store 	misses[13] 	8686
scalar tree_4_3_u02_r15_network.node[13].content_store 	decision_yes[13] 	28
scalar tree_4_3_u02_r15_network.node[13].content_store 	decision_no[13] 	8658
scalar tree_4_3_u02_r15_network.node[13].content_store 	decision_ratio[13] 	0.0032235781717707
scalar tree_4_3_u02_r15_network.node[14].core_layer 	interests[14] 	12430
scalar tree_4_3_u02_r15_network.node[14].core_layer 	data[14] 	8667
scalar tree_4_3_u02_r15_network.node[14].content_store 	p_hit[14] 	0.30273531777957
scalar tree_4_3_u02_r15_network.node[14].content_store 	hits[14] 	3763
scalar tree_4_3_u02_r15_network.node[14].content_store 	misses[14] 	8667
scalar tree_4_3_u02_r15_network.node[14].content_store 	decision_yes[14] 	31
scalar tree_4_3_u02_r15_network.node[14].content_store 	decision_no[14] 	8636
scalar tree_4_3_u02_r15_network.node[14].content_store 	decision_ratio[14] 	0.0035767855082497
scalar tree_4_3_u02_r15_network.node[15].core_layer 	interests[15] 	12575
scalar tree_4_3_u02_r15_network.node[15].core_layer 	data[15] 	8819
scalar tree_4_3_u02_r15_network.node[15].content_store 	p_hit[15] 	0.29868787276342
scalar tree_4_3_u02_r15_network.node[15].content_store 	hits[15] 	3756
scalar tree_4_3_u02_r15_network.node[15].content_store 	misses[15] 	8819
scalar tree_4_3_u02_r15_network.node[15].content_store 	decision_yes[15] 	38
scalar tree_4_3_u02_r15_network.node[15].content_store 	decision_no[15] 	8781
scalar tree_4_3_u02_r15_network.node[15].content_store 	decision_ratio[15] 	0.0043088785576596
scalar tree_4_3_u02_r15_network.node[16].core_layer 	interests[16] 	12561
scalar tree_4_3_u02_r15_network.node[16].core_layer 	data[16] 	8841
scalar tree_4_3_u02_r15_network.node[16].content_store 	p_hit[16] 	0.29615476474803
scalar tree_4_3_u02_r15_network.node[16].content_store 	hits[16] 	3720
scalar tree_4_3_u02_r15_network.node[16].content_store 	misses[16] 	8841
scalar tree_4_3_u02_r15_network.node[16].content_store 	decision_yes[16] 	22
scalar tree_4_3_u02_r15_network.node[16].content_store 	decision_no[16] 	8819
scalar tree_4_3_u02_r15_network.node[16].content_store 	decision_ratio[16] 	0.0024884062888813
scalar tree_4_3_u02_r15_network.node[17].core_layer 	interests[17] 	12454
scalar tree_4_3_u02_r15_network.node[17].core_layer 	data[17] 	8911
scalar tree_4_3_u02_r15_network.node[17].content_store 	p_hit[17] 	0.28448691183555
scalar tree_4_3_u02_r15_network.node[17].content_store 	hits[17] 	3543
scalar tree_4_3_u02_r15_network.node[17].content_store 	misses[17] 	8911
scalar tree_4_3_u02_r15_network.node[17].content_store 	decision_yes[17] 	32
scalar tree_4_3_u02_r15_network.node[17].content_store 	decision_no[17] 	8879
scalar tree_4_3_u02_r15_network.node[17].content_store 	decision_ratio[17] 	0.0035910672202895
scalar tree_4_3_u02_r15_network.node[18].core_layer 	interests[18] 	12999
scalar tree_4_3_u02_r15_network.node[18].core_layer 	data[18] 	8914
scalar tree_4_3_u02_r15_network.node[18].content_store 	p_hit[18] 	0.3142549426879
scalar tree_4_3_u02_r15_network.node[18].content_store 	hits[18] 	4085
scalar tree_4_3_u02_r15_network.node[18].content_store 	misses[18] 	8914
scalar tree_4_3_u02_r15_network.node[18].content_store 	decision_yes[18] 	36
scalar tree_4_3_u02_r15_network.node[18].content_store 	decision_no[18] 	8878
scalar tree_4_3_u02_r15_network.node[18].content_store 	decision_ratio[18] 	0.0040385909804801
scalar tree_4_3_u02_r15_network.node[19].core_layer 	interests[19] 	12363
scalar tree_4_3_u02_r15_network.node[19].core_layer 	data[19] 	8639
scalar tree_4_3_u02_r15_network.node[19].content_store 	p_hit[19] 	0.30130227291111
scalar tree_4_3_u02_r15_network.node[19].content_store 	hits[19] 	3725
scalar tree_4_3_u02_r15_network.node[19].content_store 	misses[19] 	8638
scalar tree_4_3_u02_r15_network.node[19].content_store 	decision_yes[19] 	21
scalar tree_4_3_u02_r15_network.node[19].content_store 	decision_no[19] 	8618
scalar tree_4_3_u02_r15_network.node[19].content_store 	decision_ratio[19] 	0.0024308369024193
scalar tree_4_3_u02_r15_network.node[20].core_layer 	interests[20] 	12272
scalar tree_4_3_u02_r15_network.node[20].core_layer 	data[20] 	8706
scalar tree_4_3_u02_r15_network.node[20].content_store 	p_hit[20] 	0.29058018252934
scalar tree_4_3_u02_r15_network.node[20].content_store 	hits[20] 	3566
scalar tree_4_3_u02_r15_network.node[20].content_store 	misses[20] 	8706
scalar tree_4_3_u02_r15_network.node[20].content_store 	decision_yes[20] 	23
scalar tree_4_3_u02_r15_network.node[20].content_store 	decision_no[20] 	8683
scalar tree_4_3_u02_r15_network.node[20].content_store 	decision_ratio[20] 	0.0026418561911326
scalar tree_4_3_u02_r15_network.node[21].core_layer 	interests[21] 	12726
scalar tree_4_3_u02_r15_network.node[21].core_layer 	data[21] 	8822
scalar tree_4_3_u02_r15_network.node[21].content_store 	p_hit[21] 	0.30685211378281
scalar tree_4_3_u02_r15_network.node[21].content_store 	hits[21] 	3905
scalar tree_4_3_u02_r15_network.node[21].content_store 	misses[21] 	8821
scalar tree_4_3_u02_r15_network.node[21].content_store 	decision_yes[21] 	37
scalar tree_4_3_u02_r15_network.node[21].content_store 	decision_no[21] 	8785
scalar tree_4_3_u02_r15_network.node[21].content_store 	decision_ratio[21] 	0.004194060303786
scalar tree_4_3_u02_r15_network.node[22].core_layer 	interests[22] 	12481
scalar tree_4_3_u02_r15_network.node[22].core_layer 	data[22] 	8788
scalar tree_4_3_u02_r15_network.node[22].content_store 	p_hit[22] 	0.29588975242368
scalar tree_4_3_u02_r15_network.node[22].content_store 	hits[22] 	3693
scalar tree_4_3_u02_r15_network.node[22].content_store 	misses[22] 	8788
scalar tree_4_3_u02_r15_network.node[22].content_store 	decision_yes[22] 	27
scalar tree_4_3_u02_r15_network.node[22].content_store 	decision_no[22] 	8761
scalar tree_4_3_u02_r15_network.node[22].content_store 	decision_ratio[22] 	0.0030723714155667
scalar tree_4_3_u02_r15_network.node[23].core_layer 	interests[23] 	13086
scalar tree_4_3_u02_r15_network.node[23].core_layer 	data[23] 	8881
scalar tree_4_3_u02_r15_network.node[23].content_store 	p_hit[23] 	0.32133577869479
scalar tree_4_3_u02_r15_network.node[23].content_store 	hits[23] 	4205
scalar tree_4_3_u02_r15_network.node[23].content_store 	misses[23] 	8881
scalar tree_4_3_u02_r15_network.node[23].content_store 	decision_yes[23] 	23
scalar tree_4_3_u02_r15_network.node[23].content_store 	decision_no[23] 	8858
scalar tree_4_3_u02_r15_network.node[23].content_store 	decision_ratio[23] 	0.0025897984461209
scalar tree_4_3_u02_r15_network.node[24].core_layer 	interests[24] 	12310
scalar tree_4_3_u02_r15_network.node[24].core_layer 	data[24] 	8665
scalar tree_4_3_u02_r15_network.node[24].content_store 	p_hit[24] 	0.29610073111292
scalar tree_4_3_u02_r15_network.node[24].content_store 	hits[24] 	3645
scalar tree_4_3_u02_r15_network.node[24].content_store 	misses[24] 	8665
scalar tree_4_3_u02_r15_network.node[24].content_store 	decision_yes[24] 	26
scalar tree_4_3_u02_r15_network.node[24].content_store 	decision_no[24] 	8639
scalar tree_4_3_u02_r15_network.node[24].content_store 	decision_ratio[24] 	0.003000577034045
scalar tree_4_3_u02_r15_network.node[25].core_layer 	interests[25] 	12658
scalar tree_4_3_u02_r15_network.node[25].core_layer 	data[25] 	8993
scalar tree_4_3_u02_r15_network.node[25].content_store 	p_hit[25] 	0.28954021172381
scalar tree_4_3_u02_r15_network.node[25].content_store 	hits[25] 	3665
scalar tree_4_3_u02_r15_network.node[25].content_store 	misses[25] 	8993
scalar tree_4_3_u02_r15_network.node[25].content_store 	decision_yes[25] 	31
scalar tree_4_3_u02_r15_network.node[25].content_store 	decision_no[25] 	8962
scalar tree_4_3_u02_r15_network.node[25].content_store 	decision_ratio[25] 	0.0034471255420883
scalar tree_4_3_u02_r15_network.node[26].core_layer 	interests[26] 	12430
scalar tree_4_3_u02_r15_network.node[26].core_layer 	data[26] 	8674
scalar tree_4_3_u02_r15_network.node[26].content_store 	p_hit[26] 	0.30217216411907
scalar tree_4_3_u02_r15_network.node[26].content_store 	hits[26] 	3756
scalar tree_4_3_u02_r15_network.node[26].content_store 	misses[26] 	8674
scalar tree_4_3_u02_r15_network.node[26].content_store 	decision_yes[26] 	29
scalar tree_4_3_u02_r15_network.node[26].content_store 	decision_no[26] 	8645
scalar tree_4_3_u02_r15_network.node[26].content_store 	decision_ratio[26] 	0.0033433248789486
scalar tree_4_3_u02_r15_network.node[27].core_layer 	interests[27] 	12805
scalar tree_4_3_u02_r15_network.node[27].core_layer 	data[27] 	8826
scalar tree_4_3_u02_r15_network.node[27].content_store 	p_hit[27] 	0.3107379929715
scalar tree_4_3_u02_r15_network.node[27].content_store 	hits[27] 	3979
scalar tree_4_3_u02_r15_network.node[27].content_store 	misses[27] 	8826
scalar tree_4_3_u02_r15_network.node[27].content_store 	decision_yes[27] 	28
scalar tree_4_3_u02_r15_network.node[27].content_store 	decision_no[27] 	8798
scalar tree_4_3_u02_r15_network.node[27].content_store 	decision_ratio[27] 	0.0031724450487197
scalar tree_4_3_u02_r15_network.node[28].core_layer 	interests[28] 	12298
scalar tree_4_3_u02_r15_network.node[28].core_layer 	data[28] 	8629
scalar tree_4_3_u02_r15_network.node[28].content_store 	p_hit[28] 	0.29834119369003
scalar tree_4_3_u02_r15_network.node[28].content_store 	hits[28] 	3669
scalar tree_4_3_u02_r15_network.node[28].content_store 	misses[28] 	8629
scalar tree_4_3_u02_r15_network.node[28].content_store 	decision_yes[28] 	25
scalar tree_4_3_u02_r15_network.node[28].content_store 	decision_no[28] 	8604
scalar tree_4_3_u02_r15_network.node[28].content_store 	decision_ratio[28] 	0.002897207092363
scalar tree_4_3_u02_r15_network.node[29].core_layer 	interests[29] 	12223
scalar tree_4_3_u02_r15_network.node[29].core_layer 	data[29] 	8698
scalar tree_4_3_u02_r15_network.node[29].content_store 	p_hit[29] 	0.28839073877117
scalar tree_4_3_u02_r15_network.node[29].content_store 	hits[29] 	3525
scalar tree_4_3_u02_r15_network.node[29].content_store 	misses[29] 	8698
scalar tree_4_3_u02_r15_network.node[29].content_store 	decision_yes[29] 	14
scalar tree_4_3_u02_r15_network.node[29].content_store 	decision_no[29] 	8684
scalar tree_4_3_u02_r15_network.node[29].content_store 	decision_ratio[29] 	0.0016095654173373
scalar tree_4_3_u02_r15_network.node[30].core_layer 	interests[30] 	12323
scalar tree_4_3_u02_r15_network.node[30].core_layer 	data[30] 	8730
scalar tree_4_3_u02_r15_network.node[30].content_store 	p_hit[30] 	0.2915686115394
scalar tree_4_3_u02_r15_network.node[30].content_store 	hits[30] 	3593
scalar tree_4_3_u02_r15_network.node[30].content_store 	misses[30] 	8730
scalar tree_4_3_u02_r15_network.node[30].content_store 	decision_yes[30] 	30
scalar tree_4_3_u02_r15_network.node[30].content_store 	decision_no[30] 	8700
scalar tree_4_3_u02_r15_network.node[30].content_store 	decision_ratio[30] 	0.0034364261168385
scalar tree_4_3_u02_r15_network.node[31].core_layer 	interests[31] 	12592
scalar tree_4_3_u02_r15_network.node[31].core_layer 	data[31] 	8812
scalar tree_4_3_u02_r15_network.node[31].content_store 	p_hit[31] 	0.30019059720457
scalar tree_4_3_u02_r15_network.node[31].content_store 	hits[31] 	3780
scalar tree_4_3_u02_r15_network.node[31].content_store 	misses[31] 	8812
scalar tree_4_3_u02_r15_network.node[31].content_store 	decision_yes[31] 	21
scalar tree_4_3_u02_r15_network.node[31].content_store 	decision_no[31] 	8791
scalar tree_4_3_u02_r15_network.node[31].content_store 	decision_ratio[31] 	0.0023831139355424
scalar tree_4_3_u02_r15_network.node[32].core_layer 	interests[32] 	12498
scalar tree_4_3_u02_r15_network.node[32].core_layer 	data[32] 	8798
scalar tree_4_3_u02_r15_network.node[32].content_store 	p_hit[32] 	0.29604736757881
scalar tree_4_3_u02_r15_network.node[32].content_store 	hits[32] 	3700
scalar tree_4_3_u02_r15_network.node[32].content_store 	misses[32] 	8798
scalar tree_4_3_u02_r15_network.node[32].content_store 	decision_yes[32] 	36
scalar tree_4_3_u02_r15_network.node[32].content_store 	decision_no[32] 	8762
scalar tree_4_3_u02_r15_network.node[32].content_store 	decision_ratio[32] 	0.0040918390543305
scalar tree_4_3_u02_r15_network.node[33].core_layer 	interests[33] 	12478
scalar tree_4_3_u02_r15_network.node[33].core_layer 	data[33] 	8824
scalar tree_4_3_u02_r15_network.node[33].content_store 	p_hit[33] 	0.2928353902869
scalar tree_4_3_u02_r15_network.node[33].content_store 	hits[33] 	3654
scalar tree_4_3_u02_r15_network.node[33].content_store 	misses[33] 	8824
scalar tree_4_3_u02_r15_network.node[33].content_store 	decision_yes[33] 	29
scalar tree_4_3_u02_r15_network.node[33].content_store 	decision_no[33] 	8795
scalar tree_4_3_u02_r15_network.node[33].content_store 	decision_ratio[33] 	0.003286491387126
scalar tree_4_3_u02_r15_network.node[34].core_layer 	interests[34] 	12678
scalar tree_4_3_u02_r15_network.node[34].core_layer 	data[34] 	8952
scalar tree_4_3_u02_r15_network.node[34].content_store 	p_hit[34] 	0.29397381290424
scalar tree_4_3_u02_r15_network.node[34].content_store 	hits[34] 	3727
scalar tree_4_3_u02_r15_network.node[34].content_store 	misses[34] 	8951
scalar tree_4_3_u02_r15_network.node[34].content_store 	decision_yes[34] 	26
scalar tree_4_3_u02_r15_network.node[34].content_store 	decision_no[34] 	8926
scalar tree_4_3_u02_r15_network.node[34].content_store 	decision_ratio[34] 	0.0029043789097408
scalar tree_4_3_u02_r15_network.node[35].core_layer 	interests[35] 	12554
scalar tree_4_3_u02_r15_network.node[35].core_layer 	data[35] 	8833
scalar tree_4_3_u02_r15_network.node[35].content_store 	p_hit[35] 	0.29631989804047
scalar tree_4_3_u02_r15_network.node[35].content_store 	hits[35] 	3720
scalar tree_4_3_u02_r15_network.node[35].content_store 	misses[35] 	8834
scalar tree_4_3_u02_r15_network.node[35].content_store 	decision_yes[35] 	31
scalar tree_4_3_u02_r15_network.node[35].content_store 	decision_no[35] 	8802
scalar tree_4_3_u02_r15_network.node[35].content_store 	decision_ratio[35] 	0.003509566398732
scalar tree_4_3_u02_r15_network.node[36].core_layer 	interests[36] 	12423
scalar tree_4_3_u02_r15_network.node[36].core_layer 	data[36] 	8708
scalar tree_4_3_u02_r15_network.node[36].content_store 	p_hit[36] 	0.29904209933188
scalar tree_4_3_u02_r15_network.node[36].content_store 	hits[36] 	3715
scalar tree_4_3_u02_r15_network.node[36].content_store 	misses[36] 	8708
scalar tree_4_3_u02_r15_network.node[36].content_store 	decision_yes[36] 	30
scalar tree_4_3_u02_r15_network.node[36].content_store 	decision_no[36] 	8678
scalar tree_4_3_u02_r15_network.node[36].content_store 	decision_ratio[36] 	0.0034451079467157
scalar tree_4_3_u02_r15_network.node[37].core_layer 	interests[37] 	13127
scalar tree_4_3_u02_r15_network.node[37].core_layer 	data[37] 	8956
scalar tree_4_3_u02_r15_network.node[37].content_store 	p_hit[37] 	0.31766587948503
scalar tree_4_3_u02_r15_network.node[37].content_store 	hits[37] 	4170
scalar tree_4_3_u02_r15_network.node[37].content_store 	misses[37] 	8957
scalar tree_4_3_u02_r15_network.node[37].content_store 	decision_yes[37] 	34
scalar tree_4_3_u02_r15_network.node[37].content_store 	decision_no[37] 	8922
scalar tree_4_3_u02_r15_network.node[37].content_store 	decision_ratio[37] 	0.0037963376507369
scalar tree_4_3_u02_r15_network.node[38].core_layer 	interests[38] 	12012
scalar tree_4_3_u02_r15_network.node[38].core_layer 	data[38] 	8512
scalar tree_4_3_u02_r15_network.node[38].content_store 	p_hit[38] 	0.29129204129204
scalar tree_4_3_u02_r15_network.node[38].content_store 	hits[38] 	3499
scalar tree_4_3_u02_r15_network.node[38].content_store 	misses[38] 	8513
scalar tree_4_3_u02_r15_network.node[38].content_store 	decision_yes[38] 	31
scalar tree_4_3_u02_r15_network.node[38].content_store 	decision_no[38] 	8481
scalar tree_4_3_u02_r15_network.node[38].content_store 	decision_ratio[38] 	0.0036419172932331
scalar tree_4_3_u02_r15_network.node[39].core_layer 	interests[39] 	12210
scalar tree_4_3_u02_r15_network.node[39].core_layer 	data[39] 	8756
scalar tree_4_3_u02_r15_network.node[39].content_store 	p_hit[39] 	0.28280098280098
scalar tree_4_3_u02_r15_network.node[39].content_store 	hits[39] 	3453
scalar tree_4_3_u02_r15_network.node[39].content_store 	misses[39] 	8757
scalar tree_4_3_u02_r15_network.node[39].content_store 	decision_yes[39] 	28
scalar tree_4_3_u02_r15_network.node[39].content_store 	decision_no[39] 	8728
scalar tree_4_3_u02_r15_network.node[39].content_store 	decision_ratio[39] 	0.0031978072179077
scalar tree_4_3_u02_r15_network.client[13] 	hdistance[13] 	2.6334744004647
scalar tree_4_3_u02_r15_network.client[13] 	downloads[13] 	12051
scalar tree_4_3_u02_r15_network.client[13] 	avg_time[13] 	0.004115837988
scalar tree_4_3_u02_r15_network.client[14] 	hdistance[14] 	2.6647083508183
scalar tree_4_3_u02_r15_network.client[14] 	downloads[14] 	11915
scalar tree_4_3_u02_r15_network.client[14] 	avg_time[14] 	0.004154759897
scalar tree_4_3_u02_r15_network.client[15] 	hdistance[15] 	2.6689312344656
scalar tree_4_3_u02_r15_network.client[15] 	downloads[15] 	12070
scalar tree_4_3_u02_r15_network.client[15] 	avg_time[15] 	0.004165199989
scalar tree_4_3_u02_r15_network.client[16] 	hdistance[16] 	2.6611372451927
scalar tree_4_3_u02_r15_network.client[16] 	downloads[16] 	12117
scalar tree_4_3_u02_r15_network.client[16] 	avg_time[16] 	0.004156141277
scalar tree_4_3_u02_r15_network.client[17] 	hdistance[17] 	2.6757203005036
scalar tree_4_3_u02_r15_network.client[17] 	downloads[17] 	12113
scalar tree_4_3_u02_r15_network.client[17] 	avg_time[17] 	0.004188059388
scalar tree_4_3_u02_r15_network.client[18] 	hdistance[18] 	2.5959362352358
scalar tree_4_3_u02_r15_network.client[18] 	downloads[18] 	12107
scalar tree_4_3_u02_r15_network.client[18] 	avg_time[18] 	0.004035348414
scalar tree_4_3_u02_r15_network.client[19] 	hdistance[19] 	2.6180811808118
scalar tree_4_3_u02_r15_network.client[19] 	downloads[19] 	11924
scalar tree_4_3_u02_r15_network.client[19] 	avg_time[19] 	0.004086712873
scalar tree_4_3_u02_r15_network.client[20] 	hdistance[20] 	2.6532006409716
scalar tree_4_3_u02_r15_network.client[20] 	downloads[20] 	11857
scalar tree_4_3_u02_r15_network.client[20] 	avg_time[20] 	0.004142622839
scalar tree_4_3_u02_r15_network.client[21] 	hdistance[21] 	2.6033382425135
scalar tree_4_3_u02_r15_network.client[21] 	downloads[21] 	12222
scalar tree_4_3_u02_r15_network.client[21] 	avg_time[21] 	0.004060707139
scalar tree_4_3_u02_r15_network.client[22] 	hdistance[22] 	2.6558376482378
scalar tree_4_3_u02_r15_network.client[22] 	downloads[22] 	11974
scalar tree_4_3_u02_r15_network.client[22] 	avg_time[22] 	0.004168528848
scalar tree_4_3_u02_r15_network.client[23] 	hdistance[23] 	2.5727730537439
scalar tree_4_3_u02_r15_network.client[23] 	downloads[23] 	12113
scalar tree_4_3_u02_r15_network.client[23] 	avg_time[23] 	0.004022452204
scalar tree_4_3_u02_r15_network.client[24] 	hdistance[24] 	2.6545423786161
scalar tree_4_3_u02_r15_network.client[24] 	downloads[24] 	11822
scalar tree_4_3_u02_r15_network.client[24] 	avg_time[24] 	0.004169514997
scalar tree_4_3_u02_r15_network.client[25] 	hdistance[25] 	2.6774851178342
scalar tree_4_3_u02_r15_network.client[25] 	downloads[25] 	12263
scalar tree_4_3_u02_r15_network.client[25] 	avg_time[25] 	0.004159174937
scalar tree_4_3_u02_r15_network.client[26] 	hdistance[26] 	2.625521615757
scalar tree_4_3_u02_r15_network.client[26] 	downloads[26] 	11982
scalar tree_4_3_u02_r15_network.client[26] 	avg_time[26] 	0.004084623958
scalar tree_4_3_u02_r15_network.client[27] 	hdistance[27] 	2.6109130110291
scalar tree_4_3_u02_r15_network.client[27] 	downloads[27] 	12059
scalar tree_4_3_u02_r15_network.client[27] 	avg_time[27] 	0.004035654977
scalar tree_4_3_u02_r15_network.client[28] 	hdistance[28] 	2.6271172158085
scalar tree_4_3_u02_r15_network.client[28] 	downloads[28] 	11867
scalar tree_4_3_u02_r15_network.client[28] 	avg_time[28] 	0.004083758744
scalar tree_4_3_u02_r15_network.client[29] 	hdistance[29] 	2.6631844987363
scalar tree_4_3_u02_r15_network.client[29] 	downloads[29] 	11870
scalar tree_4_3_u02_r15_network.client[29] 	avg_time[29] 	0.004133142897
scalar tree_4_3_u02_r15_network.client[30] 	hdistance[30] 	2.653630349217
scalar tree_4_3_u02_r15_network.client[30] 	downloads[30] 	11941
scalar tree_4_3_u02_r15_network.client[30] 	avg_time[30] 	0.00412209736
scalar tree_4_3_u02_r15_network.client[31] 	hdistance[31] 	2.6333443489756
scalar tree_4_3_u02_r15_network.client[31] 	downloads[31] 	12104
scalar tree_4_3_u02_r15_network.client[31] 	avg_time[31] 	0.00409335455
scalar tree_4_3_u02_r15_network.client[32] 	hdistance[32] 	2.6512014633741
scalar tree_4_3_u02_r15_network.client[32] 	downloads[32] 	12027
scalar tree_4_3_u02_r15_network.client[32] 	avg_time[32] 	0.004122554609
scalar tree_4_3_u02_r15_network.client[33] 	hdistance[33] 	2.6825423304696
scalar tree_4_3_u02_r15_network.client[33] 	downloads[33] 	11989
scalar tree_4_3_u02_r15_network.client[33] 	avg_time[33] 	0.004162145644
scalar tree_4_3_u02_r15_network.client[34] 	hdistance[34] 	2.6678709253633
scalar tree_4_3_u02_r15_network.client[34] 	downloads[34] 	12179
scalar tree_4_3_u02_r15_network.client[34] 	avg_time[34] 	0.004144343792
scalar tree_4_3_u02_r15_network.client[35] 	hdistance[35] 	2.6665007053357
scalar tree_4_3_u02_r15_network.client[35] 	downloads[35] 	12051
scalar tree_4_3_u02_r15_network.client[35] 	avg_time[35] 	0.004144881238
scalar tree_4_3_u02_r15_network.client[36] 	hdistance[36] 	2.6481992145065
scalar tree_4_3_u02_r15_network.client[36] 	downloads[36] 	11967
scalar tree_4_3_u02_r15_network.client[36] 	avg_time[36] 	0.004117486735
scalar tree_4_3_u02_r15_network.client[37] 	hdistance[37] 	2.601246105919
scalar tree_4_3_u02_r15_network.client[37] 	downloads[37] 	12198
scalar tree_4_3_u02_r15_network.client[37] 	avg_time[37] 	0.004026432756
scalar tree_4_3_u02_r15_network.client[38] 	hdistance[38] 	2.6297999148574
scalar tree_4_3_u02_r15_network.client[38] 	downloads[38] 	11745
scalar tree_4_3_u02_r15_network.client[38] 	avg_time[38] 	0.004089937797
scalar tree_4_3_u02_r15_network.client[39] 	hdistance[39] 	2.6705429599264
scalar tree_4_3_u02_r15_network.client[39] 	downloads[39] 	11953
scalar tree_4_3_u02_r15_network.client[39] 	avg_time[39] 	0.004158952915
