version 2
run General-178-20160831-23:52:59-8710
attr a 0.9
attr cd ffc0.25
attr configname General
attr cr lru
attr datetime 20160831-23:52:59
attr experiment General
attr fsize 1
attr inifile hw5115/scenario_Y/omnetp.ini
attr iterationvars "$name=tree_4_3, $un=02, $rep=20, $cd=ffc0.25, $cr=lru, $fsize=1, $a=0.9, $sl=nrr, $ttl=1000, $variance=0.05"
attr iterationvars2 "$name=tree_4_3, $un=02, $rep=20, $cd=ffc0.25, $cr=lru, $fsize=1, $a=0.9, $sl=nrr, $ttl=1000, $variance=0.05, $repetition=0"
attr measurement "$name=tree_4_3, $un=02, $rep=20, $cd=ffc0.25, $cr=lru, $fsize=1, $a=0.9, $sl=nrr, $ttl=1000, $variance=0.05"
attr name tree_4_3
attr network networks.${name}_u${un}_r${rep}_network
attr processid 8710
attr rep 20
attr repetition 0
attr replication #0
attr resultdir results
attr runnumber 178
attr seedset 20
attr sl nrr
attr ttl 1000
attr un 02
attr variance 0.05

scalar . 	a 	0.9
scalar . 	fsize 	1
scalar . 	rep 	20
scalar . 	ttl 	1000
scalar . 	un 	02
scalar . 	variance 	0.05
scalar tree_4_3_u02_r20_network.content_distribution 	repo-0 	0
scalar tree_4_3_u02_r20_network.content_distribution 	client-0 	13
scalar tree_4_3_u02_r20_network.content_distribution 	client-1 	14
scalar tree_4_3_u02_r20_network.content_distribution 	client-2 	15
scalar tree_4_3_u02_r20_network.content_distribution 	client-3 	16
scalar tree_4_3_u02_r20_network.content_distribution 	client-4 	17
scalar tree_4_3_u02_r20_network.content_distribution 	client-5 	18
scalar tree_4_3_u02_r20_network.content_distribution 	client-6 	19
scalar tree_4_3_u02_r20_network.content_distribution 	client-7 	20
scalar tree_4_3_u02_r20_network.content_distribution 	client-8 	21
scalar tree_4_3_u02_r20_network.content_distribution 	client-9 	22
scalar tree_4_3_u02_r20_network.content_distribution 	client-10 	23
scalar tree_4_3_u02_r20_network.content_distribution 	client-11 	24
scalar tree_4_3_u02_r20_network.content_distribution 	client-12 	25
scalar tree_4_3_u02_r20_network.content_distribution 	client-13 	26
scalar tree_4_3_u02_r20_network.content_distribution 	client-14 	27
scalar tree_4_3_u02_r20_network.content_distribution 	client-15 	28
scalar tree_4_3_u02_r20_network.content_distribution 	client-16 	29
scalar tree_4_3_u02_r20_network.content_distribution 	client-17 	30
scalar tree_4_3_u02_r20_network.content_distribution 	client-18 	31
scalar tree_4_3_u02_r20_network.content_distribution 	client-19 	32
scalar tree_4_3_u02_r20_network.content_distribution 	client-20 	33
scalar tree_4_3_u02_r20_network.content_distribution 	client-21 	34
scalar tree_4_3_u02_r20_network.content_distribution 	client-22 	35
scalar tree_4_3_u02_r20_network.content_distribution 	client-23 	36
scalar tree_4_3_u02_r20_network.content_distribution 	client-24 	37
scalar tree_4_3_u02_r20_network.content_distribution 	client-25 	38
scalar tree_4_3_u02_r20_network.content_distribution 	client-26 	39
scalar tree_4_3_u02_r20_network.content_distribution 	repo-0_card 	100000
scalar tree_4_3_u02_r20_network.content_distribution 	repo-0_price 	0
scalar tree_4_3_u02_r20_network.statistics 	stabilization_time 	1729.4
scalar tree_4_3_u02_r20_network.statistics 	p_hit 	0.2247123812625
scalar tree_4_3_u02_r20_network.statistics 	interests 	24811.875
scalar tree_4_3_u02_r20_network.statistics 	data 	16705.475
scalar tree_4_3_u02_r20_network.statistics 	hdistance 	2.6470891043467
scalar tree_4_3_u02_r20_network.statistics 	avg_time 	0.004121524849
scalar tree_4_3_u02_r20_network.statistics 	downloads 	324253
scalar tree_4_3_u02_r20_network.statistics 	total_cost 	0
scalar tree_4_3_u02_r20_network.statistics 	total_replicas 	100000
scalar tree_4_3_u02_r20_network.statistics 	inner_hit 	0.41369239451909
scalar tree_4_3_u02_r20_network.node[0].core_layer 	interests[0] 	193994
scalar tree_4_3_u02_r20_network.node[0].core_layer 	repo_load[0] 	190112
scalar tree_4_3_u02_r20_network.node[0].core_layer 	data[0] 	0
scalar tree_4_3_u02_r20_network.node[0].core_layer 	repo_int[0] 	190112
scalar tree_4_3_u02_r20_network.node[0].content_store 	p_hit[0] 	0.020010928173036
scalar tree_4_3_u02_r20_network.node[0].content_store 	hits[0] 	3882
scalar tree_4_3_u02_r20_network.node[0].content_store 	misses[0] 	190112
scalar tree_4_3_u02_r20_network.node[0].content_store 	decision_yes[0] 	215
scalar tree_4_3_u02_r20_network.node[0].content_store 	decision_no[0] 	189897
scalar tree_4_3_u02_r20_network.node[0].content_store 	decision_ratio[0] 	0.0011309123043259
scalar tree_4_3_u02_r20_network.node[1].core_layer 	interests[1] 	69126
scalar tree_4_3_u02_r20_network.node[1].core_layer 	data[1] 	66965
scalar tree_4_3_u02_r20_network.node[1].content_store 	p_hit[1] 	0.031247287561844
scalar tree_4_3_u02_r20_network.node[1].content_store 	hits[1] 	2160
scalar tree_4_3_u02_r20_network.node[1].content_store 	misses[1] 	66966
scalar tree_4_3_u02_r20_network.node[1].content_store 	decision_yes[1] 	94
scalar tree_4_3_u02_r20_network.node[1].content_store 	decision_no[1] 	66871
scalar tree_4_3_u02_r20_network.node[1].content_store 	decision_ratio[1] 	0.0014037183603375
scalar tree_4_3_u02_r20_network.node[2].core_layer 	interests[2] 	70983
scalar tree_4_3_u02_r20_network.node[2].core_layer 	data[2] 	68571
scalar tree_4_3_u02_r20_network.node[2].content_store 	p_hit[2] 	0.033965879154164
scalar tree_4_3_u02_r20_network.node[2].content_store 	hits[2] 	2411
scalar tree_4_3_u02_r20_network.node[2].content_store 	misses[2] 	68572
scalar tree_4_3_u02_r20_network.node[2].content_store 	decision_yes[2] 	101
scalar tree_4_3_u02_r20_network.node[2].content_store 	decision_no[2] 	68470
scalar tree_4_3_u02_r20_network.node[2].content_store 	decision_ratio[2] 	0.0014729258724534
scalar tree_4_3_u02_r20_network.node[3].core_layer 	interests[3] 	72258
scalar tree_4_3_u02_r20_network.node[3].core_layer 	data[3] 	69301
scalar tree_4_3_u02_r20_network.node[3].content_store 	p_hit[3] 	0.04090896509729
scalar tree_4_3_u02_r20_network.node[3].content_store 	hits[3] 	2956
scalar tree_4_3_u02_r20_network.node[3].content_store 	misses[3] 	69302
scalar tree_4_3_u02_r20_network.node[3].content_store 	decision_yes[3] 	108
scalar tree_4_3_u02_r20_network.node[3].content_store 	decision_no[3] 	69193
scalar tree_4_3_u02_r20_network.node[3].content_store 	decision_ratio[3] 	0.0015584190704319
scalar tree_4_3_u02_r20_network.node[4].core_layer 	interests[4] 	35244
scalar tree_4_3_u02_r20_network.node[4].core_layer 	data[4] 	32804
scalar tree_4_3_u02_r20_network.node[4].content_store 	p_hit[4] 	0.069203268641471
scalar tree_4_3_u02_r20_network.node[4].content_store 	hits[4] 	2439
scalar tree_4_3_u02_r20_network.node[4].content_store 	misses[4] 	32805
scalar tree_4_3_u02_r20_network.node[4].content_store 	decision_yes[4] 	78
scalar tree_4_3_u02_r20_network.node[4].content_store 	decision_no[4] 	32726
scalar tree_4_3_u02_r20_network.node[4].content_store 	decision_ratio[4] 	0.0023777588099012
scalar tree_4_3_u02_r20_network.node[5].core_layer 	interests[5] 	18905
scalar tree_4_3_u02_r20_network.node[5].core_layer 	data[5] 	16859
scalar tree_4_3_u02_r20_network.node[5].content_store 	p_hit[5] 	0.10822533721238
scalar tree_4_3_u02_r20_network.node[5].content_store 	hits[5] 	2046
scalar tree_4_3_u02_r20_network.node[5].content_store 	misses[5] 	16859
scalar tree_4_3_u02_r20_network.node[5].content_store 	decision_yes[5] 	43
scalar tree_4_3_u02_r20_network.node[5].content_store 	decision_no[5] 	16816
scalar tree_4_3_u02_r20_network.node[5].content_store 	decision_ratio[5] 	0.0025505664630168
scalar tree_4_3_u02_r20_network.node[6].core_layer 	interests[6] 	28834
scalar tree_4_3_u02_r20_network.node[6].core_layer 	data[6] 	25726
scalar tree_4_3_u02_r20_network.node[6].content_store 	p_hit[6] 	0.10778941527364
scalar tree_4_3_u02_r20_network.node[6].content_store 	hits[6] 	3108
scalar tree_4_3_u02_r20_network.node[6].content_store 	misses[6] 	25726
scalar tree_4_3_u02_r20_network.node[6].content_store 	decision_yes[6] 	96
scalar tree_4_3_u02_r20_network.node[6].content_store 	decision_no[6] 	25630
scalar tree_4_3_u02_r20_network.node[6].content_store 	decision_ratio[6] 	0.0037316333670217
scalar tree_4_3_u02_r20_network.node[7].core_layer 	interests[7] 	26668
scalar tree_4_3_u02_r20_network.node[7].core_layer 	data[7] 	24601
scalar tree_4_3_u02_r20_network.node[7].content_store 	p_hit[7] 	0.077508624568772
scalar tree_4_3_u02_r20_network.node[7].content_store 	hits[7] 	2067
scalar tree_4_3_u02_r20_network.node[7].content_store 	misses[7] 	24601
scalar tree_4_3_u02_r20_network.node[7].content_store 	decision_yes[7] 	55
scalar tree_4_3_u02_r20_network.node[7].content_store 	decision_no[7] 	24546
scalar tree_4_3_u02_r20_network.node[7].content_store 	decision_ratio[7] 	0.0022356814763627
scalar tree_4_3_u02_r20_network.node[8].core_layer 	interests[8] 	27558
scalar tree_4_3_u02_r20_network.node[8].core_layer 	data[8] 	25367
scalar tree_4_3_u02_r20_network.node[8].content_store 	p_hit[8] 	0.079505043907395
scalar tree_4_3_u02_r20_network.node[8].content_store 	hits[8] 	2191
scalar tree_4_3_u02_r20_network.node[8].content_store 	misses[8] 	25367
scalar tree_4_3_u02_r20_network.node[8].content_store 	decision_yes[8] 	68
scalar tree_4_3_u02_r20_network.node[8].content_store 	decision_no[8] 	25299
scalar tree_4_3_u02_r20_network.node[8].content_store 	decision_ratio[8] 	0.0026806480860961
scalar tree_4_3_u02_r20_network.node[9].core_layer 	interests[9] 	28133
scalar tree_4_3_u02_r20_network.node[9].core_layer 	data[9] 	25519
scalar tree_4_3_u02_r20_network.node[9].content_store 	p_hit[9] 	0.092915792841147
scalar tree_4_3_u02_r20_network.node[9].content_store 	hits[9] 	2614
scalar tree_4_3_u02_r20_network.node[9].content_store 	misses[9] 	25519
scalar tree_4_3_u02_r20_network.node[9].content_store 	decision_yes[9] 	69
scalar tree_4_3_u02_r20_network.node[9].content_store 	decision_no[9] 	25450
scalar tree_4_3_u02_r20_network.node[9].content_store 	decision_ratio[9] 	0.0027038677064148
scalar tree_4_3_u02_r20_network.node[10].core_layer 	interests[10] 	35928
scalar tree_4_3_u02_r20_network.node[10].core_layer 	data[10] 	33277
scalar tree_4_3_u02_r20_network.node[10].content_store 	p_hit[10] 	0.073786461812514
scalar tree_4_3_u02_r20_network.node[10].content_store 	hits[10] 	2651
scalar tree_4_3_u02_r20_network.node[10].content_store 	misses[10] 	33277
scalar tree_4_3_u02_r20_network.node[10].content_store 	decision_yes[10] 	75
scalar tree_4_3_u02_r20_network.node[10].content_store 	decision_no[10] 	33202
scalar tree_4_3_u02_r20_network.node[10].content_store 	decision_ratio[10] 	0.0022538089371037
scalar tree_4_3_u02_r20_network.node[11].core_layer 	interests[11] 	26993
scalar tree_4_3_u02_r20_network.node[11].core_layer 	data[11] 	24591
scalar tree_4_3_u02_r20_network.node[11].content_store 	p_hit[11] 	0.088948986774349
scalar tree_4_3_u02_r20_network.node[11].content_store 	hits[11] 	2401
scalar tree_4_3_u02_r20_network.node[11].content_store 	misses[11] 	24592
scalar tree_4_3_u02_r20_network.node[11].content_store 	decision_yes[11] 	60
scalar tree_4_3_u02_r20_network.node[11].content_store 	decision_no[11] 	24531
scalar tree_4_3_u02_r20_network.node[11].content_store 	decision_ratio[11] 	0.0024399170428205
scalar tree_4_3_u02_r20_network.node[12].core_layer 	interests[12] 	19968
scalar tree_4_3_u02_r20_network.node[12].core_layer 	data[12] 	17251
scalar tree_4_3_u02_r20_network.node[12].content_store 	p_hit[12] 	0.13606770833333
scalar tree_4_3_u02_r20_network.node[12].content_store 	hits[12] 	2717
scalar tree_4_3_u02_r20_network.node[12].content_store 	misses[12] 	17251
scalar tree_4_3_u02_r20_network.node[12].content_store 	decision_yes[12] 	60
scalar tree_4_3_u02_r20_network.node[12].content_store 	decision_no[12] 	17191
scalar tree_4_3_u02_r20_network.node[12].content_store 	decision_ratio[12] 	0.0034780592429424
scalar tree_4_3_u02_r20_network.node[13].core_layer 	interests[13] 	12377
scalar tree_4_3_u02_r20_network.node[13].core_layer 	data[13] 	8849
scalar tree_4_3_u02_r20_network.node[13].content_store 	p_hit[13] 	0.28504484123778
scalar tree_4_3_u02_r20_network.node[13].content_store 	hits[13] 	3528
scalar tree_4_3_u02_r20_network.node[13].content_store 	misses[13] 	8849
scalar tree_4_3_u02_r20_network.node[13].content_store 	decision_yes[13] 	28
scalar tree_4_3_u02_r20_network.node[13].content_store 	decision_no[13] 	8821
scalar tree_4_3_u02_r20_network.node[13].content_store 	decision_ratio[13] 	0.0031641993445587
scalar tree_4_3_u02_r20_network.node[14].core_layer 	interests[14] 	12357
scalar tree_4_3_u02_r20_network.node[14].core_layer 	data[14] 	8587
scalar tree_4_3_u02_r20_network.node[14].content_store 	p_hit[14] 	0.30509023225702
scalar tree_4_3_u02_r20_network.node[14].content_store 	hits[14] 	3770
scalar tree_4_3_u02_r20_network.node[14].content_store 	misses[14] 	8587
scalar tree_4_3_u02_r20_network.node[14].content_store 	decision_yes[14] 	23
scalar tree_4_3_u02_r20_network.node[14].content_store 	decision_no[14] 	8564
scalar tree_4_3_u02_r20_network.node[14].content_store 	decision_ratio[14] 	0.0026784674507977
scalar tree_4_3_u02_r20_network.node[15].core_layer 	interests[15] 	12357
scalar tree_4_3_u02_r20_network.node[15].core_layer 	data[15] 	8756
scalar tree_4_3_u02_r20_network.node[15].content_store 	p_hit[15] 	0.29141377356964
scalar tree_4_3_u02_r20_network.node[15].content_store 	hits[15] 	3601
scalar tree_4_3_u02_r20_network.node[15].content_store 	misses[15] 	8756
scalar tree_4_3_u02_r20_network.node[15].content_store 	decision_yes[15] 	30
scalar tree_4_3_u02_r20_network.node[15].content_store 	decision_no[15] 	8726
scalar tree_4_3_u02_r20_network.node[15].content_store 	decision_ratio[15] 	0.0034262220191868
scalar tree_4_3_u02_r20_network.node[16].core_layer 	interests[16] 	12635
scalar tree_4_3_u02_r20_network.node[16].core_layer 	data[16] 	8759
scalar tree_4_3_u02_r20_network.node[16].content_store 	p_hit[16] 	0.30676691729323
scalar tree_4_3_u02_r20_network.node[16].content_store 	hits[16] 	3876
scalar tree_4_3_u02_r20_network.node[16].content_store 	misses[16] 	8759
scalar tree_4_3_u02_r20_network.node[16].content_store 	decision_yes[16] 	21
scalar tree_4_3_u02_r20_network.node[16].content_store 	decision_no[16] 	8738
scalar tree_4_3_u02_r20_network.node[16].content_store 	decision_ratio[16] 	0.0023975339650645
scalar tree_4_3_u02_r20_network.node[17].core_layer 	interests[17] 	12373
scalar tree_4_3_u02_r20_network.node[17].core_layer 	data[17] 	8719
scalar tree_4_3_u02_r20_network.node[17].content_store 	p_hit[17] 	0.29532045583125
scalar tree_4_3_u02_r20_network.node[17].content_store 	hits[17] 	3654
scalar tree_4_3_u02_r20_network.node[17].content_store 	misses[17] 	8719
scalar tree_4_3_u02_r20_network.node[17].content_store 	decision_yes[17] 	19
scalar tree_4_3_u02_r20_network.node[17].content_store 	decision_no[17] 	8700
scalar tree_4_3_u02_r20_network.node[17].content_store 	decision_ratio[17] 	0.0021791489849753
scalar tree_4_3_u02_r20_network.node[18].core_layer 	interests[18] 	12317
scalar tree_4_3_u02_r20_network.node[18].core_layer 	data[18] 	8758
scalar tree_4_3_u02_r20_network.node[18].content_store 	p_hit[18] 	0.28886904278639
scalar tree_4_3_u02_r20_network.node[18].content_store 	hits[18] 	3558
scalar tree_4_3_u02_r20_network.node[18].content_store 	misses[18] 	8759
scalar tree_4_3_u02_r20_network.node[18].content_store 	decision_yes[18] 	26
scalar tree_4_3_u02_r20_network.node[18].content_store 	decision_no[18] 	8732
scalar tree_4_3_u02_r20_network.node[18].content_store 	decision_ratio[18] 	0.0029687143183375
scalar tree_4_3_u02_r20_network.node[19].core_layer 	interests[19] 	12596
scalar tree_4_3_u02_r20_network.node[19].core_layer 	data[19] 	8828
scalar tree_4_3_u02_r20_network.node[19].content_store 	p_hit[19] 	0.2991425849476
scalar tree_4_3_u02_r20_network.node[19].content_store 	hits[19] 	3768
scalar tree_4_3_u02_r20_network.node[19].content_store 	misses[19] 	8828
scalar tree_4_3_u02_r20_network.node[19].content_store 	decision_yes[19] 	26
scalar tree_4_3_u02_r20_network.node[19].content_store 	decision_no[19] 	8802
scalar tree_4_3_u02_r20_network.node[19].content_store 	decision_ratio[19] 	0.0029451744449479
scalar tree_4_3_u02_r20_network.node[20].core_layer 	interests[20] 	12590
scalar tree_4_3_u02_r20_network.node[20].core_layer 	data[20] 	8760
scalar tree_4_3_u02_r20_network.node[20].content_store 	p_hit[20] 	0.30420969023034
scalar tree_4_3_u02_r20_network.node[20].content_store 	hits[20] 	3830
scalar tree_4_3_u02_r20_network.node[20].content_store 	misses[20] 	8760
scalar tree_4_3_u02_r20_network.node[20].content_store 	decision_yes[20] 	30
scalar tree_4_3_u02_r20_network.node[20].content_store 	decision_no[20] 	8730
scalar tree_4_3_u02_r20_network.node[20].content_store 	decision_ratio[20] 	0.0034246575342466
scalar tree_4_3_u02_r20_network.node[21].core_layer 	interests[21] 	12630
scalar tree_4_3_u02_r20_network.node[21].core_layer 	data[21] 	8803
scalar tree_4_3_u02_r20_network.node[21].content_store 	p_hit[21] 	0.30300870942201
scalar tree_4_3_u02_r20_network.node[21].content_store 	hits[21] 	3827
scalar tree_4_3_u02_r20_network.node[21].content_store 	misses[21] 	8803
scalar tree_4_3_u02_r20_network.node[21].content_store 	decision_yes[21] 	28
scalar tree_4_3_u02_r20_network.node[21].content_store 	decision_no[21] 	8775
scalar tree_4_3_u02_r20_network.node[21].content_store 	decision_ratio[21] 	0.0031807338407361
scalar tree_4_3_u02_r20_network.node[22].core_layer 	interests[22] 	12382
scalar tree_4_3_u02_r20_network.node[22].core_layer 	data[22] 	8842
scalar tree_4_3_u02_r20_network.node[22].content_store 	p_hit[22] 	0.28589888547892
scalar tree_4_3_u02_r20_network.node[22].content_store 	hits[22] 	3540
scalar tree_4_3_u02_r20_network.node[22].content_store 	misses[22] 	8842
scalar tree_4_3_u02_r20_network.node[22].content_store 	decision_yes[22] 	34
scalar tree_4_3_u02_r20_network.node[22].content_store 	decision_no[22] 	8808
scalar tree_4_3_u02_r20_network.node[22].content_store 	decision_ratio[22] 	0.0038452838724271
scalar tree_4_3_u02_r20_network.node[23].core_layer 	interests[23] 	12303
scalar tree_4_3_u02_r20_network.node[23].core_layer 	data[23] 	8640
scalar tree_4_3_u02_r20_network.node[23].content_store 	p_hit[23] 	0.29773226042429
scalar tree_4_3_u02_r20_network.node[23].content_store 	hits[23] 	3663
scalar tree_4_3_u02_r20_network.node[23].content_store 	misses[23] 	8640
scalar tree_4_3_u02_r20_network.node[23].content_store 	decision_yes[23] 	18
scalar tree_4_3_u02_r20_network.node[23].content_store 	decision_no[23] 	8622
scalar tree_4_3_u02_r20_network.node[23].content_store 	decision_ratio[23] 	0.0020833333333333
scalar tree_4_3_u02_r20_network.node[24].core_layer 	interests[24] 	12915
scalar tree_4_3_u02_r20_network.node[24].core_layer 	data[24] 	8772
scalar tree_4_3_u02_r20_network.node[24].content_store 	p_hit[24] 	0.32078977932636
scalar tree_4_3_u02_r20_network.node[24].content_store 	hits[24] 	4143
scalar tree_4_3_u02_r20_network.node[24].content_store 	misses[24] 	8772
scalar tree_4_3_u02_r20_network.node[24].content_store 	decision_yes[24] 	24
scalar tree_4_3_u02_r20_network.node[24].content_store 	decision_no[24] 	8748
scalar tree_4_3_u02_r20_network.node[24].content_store 	decision_ratio[24] 	0.0027359781121751
scalar tree_4_3_u02_r20_network.node[25].core_layer 	interests[25] 	12512
scalar tree_4_3_u02_r20_network.node[25].core_layer 	data[25] 	8776
scalar tree_4_3_u02_r20_network.node[25].content_store 	p_hit[25] 	0.29859335038363
scalar tree_4_3_u02_r20_network.node[25].content_store 	hits[25] 	3736
scalar tree_4_3_u02_r20_network.node[25].content_store 	misses[25] 	8776
scalar tree_4_3_u02_r20_network.node[25].content_store 	decision_yes[25] 	30
scalar tree_4_3_u02_r20_network.node[25].content_store 	decision_no[25] 	8746
scalar tree_4_3_u02_r20_network.node[25].content_store 	decision_ratio[25] 	0.0034184138559708
scalar tree_4_3_u02_r20_network.node[26].core_layer 	interests[26] 	12490
scalar tree_4_3_u02_r20_network.node[26].core_layer 	data[26] 	8757
scalar tree_4_3_u02_r20_network.node[26].content_store 	p_hit[26] 	0.29887910328263
scalar tree_4_3_u02_r20_network.node[26].content_store 	hits[26] 	3733
scalar tree_4_3_u02_r20_network.node[26].content_store 	misses[26] 	8757
scalar tree_4_3_u02_r20_network.node[26].content_store 	decision_yes[26] 	26
scalar tree_4_3_u02_r20_network.node[26].content_store 	decision_no[26] 	8731
scalar tree_4_3_u02_r20_network.node[26].content_store 	decision_ratio[26] 	0.0029690533287656
scalar tree_4_3_u02_r20_network.node[27].core_layer 	interests[27] 	12618
scalar tree_4_3_u02_r20_network.node[27].core_layer 	data[27] 	8878
scalar tree_4_3_u02_r20_network.node[27].content_store 	p_hit[27] 	0.29640196544619
scalar tree_4_3_u02_r20_network.node[27].content_store 	hits[27] 	3740
scalar tree_4_3_u02_r20_network.node[27].content_store 	misses[27] 	8878
scalar tree_4_3_u02_r20_network.node[27].content_store 	decision_yes[27] 	29
scalar tree_4_3_u02_r20_network.node[27].content_store 	decision_no[27] 	8849
scalar tree_4_3_u02_r20_network.node[27].content_store 	decision_ratio[27] 	0.0032665014642938
scalar tree_4_3_u02_r20_network.node[28].core_layer 	interests[28] 	12557
scalar tree_4_3_u02_r20_network.node[28].core_layer 	data[28] 	8854
scalar tree_4_3_u02_r20_network.node[28].content_store 	p_hit[28] 	0.29489527753444
scalar tree_4_3_u02_r20_network.node[28].content_store 	hits[28] 	3703
scalar tree_4_3_u02_r20_network.node[28].content_store 	misses[28] 	8854
scalar tree_4_3_u02_r20_network.node[28].content_store 	decision_yes[28] 	30
scalar tree_4_3_u02_r20_network.node[28].content_store 	decision_no[28] 	8824
scalar tree_4_3_u02_r20_network.node[28].content_store 	decision_ratio[28] 	0.0033882990738649
scalar tree_4_3_u02_r20_network.node[29].core_layer 	interests[29] 	12471
scalar tree_4_3_u02_r20_network.node[29].core_layer 	data[29] 	8707
scalar tree_4_3_u02_r20_network.node[29].content_store 	p_hit[29] 	0.30182022291717
scalar tree_4_3_u02_r20_network.node[29].content_store 	hits[29] 	3764
scalar tree_4_3_u02_r20_network.node[29].content_store 	misses[29] 	8707
scalar tree_4_3_u02_r20_network.node[29].content_store 	decision_yes[29] 	28
scalar tree_4_3_u02_r20_network.node[29].content_store 	decision_no[29] 	8679
scalar tree_4_3_u02_r20_network.node[29].content_store 	decision_ratio[29] 	0.0032158033765935
scalar tree_4_3_u02_r20_network.node[30].core_layer 	interests[30] 	12578
scalar tree_4_3_u02_r20_network.node[30].core_layer 	data[30] 	8907
scalar tree_4_3_u02_r20_network.node[30].content_store 	p_hit[30] 	0.29185880108125
scalar tree_4_3_u02_r20_network.node[30].content_store 	hits[30] 	3671
scalar tree_4_3_u02_r20_network.node[30].content_store 	misses[30] 	8907
scalar tree_4_3_u02_r20_network.node[30].content_store 	decision_yes[30] 	35
scalar tree_4_3_u02_r20_network.node[30].content_store 	decision_no[30] 	8872
scalar tree_4_3_u02_r20_network.node[30].content_store 	decision_ratio[30] 	0.0039294936566745
scalar tree_4_3_u02_r20_network.node[31].core_layer 	interests[31] 	12500
scalar tree_4_3_u02_r20_network.node[31].core_layer 	data[31] 	8846
scalar tree_4_3_u02_r20_network.node[31].content_store 	p_hit[31] 	0.29232
scalar tree_4_3_u02_r20_network.node[31].content_store 	hits[31] 	3654
scalar tree_4_3_u02_r20_network.node[31].content_store 	misses[31] 	8846
scalar tree_4_3_u02_r20_network.node[31].content_store 	decision_yes[31] 	28
scalar tree_4_3_u02_r20_network.node[31].content_store 	decision_no[31] 	8818
scalar tree_4_3_u02_r20_network.node[31].content_store 	decision_ratio[31] 	0.0031652724395207
scalar tree_4_3_u02_r20_network.node[32].core_layer 	interests[32] 	12391
scalar tree_4_3_u02_r20_network.node[32].core_layer 	data[32] 	8751
scalar tree_4_3_u02_r20_network.node[32].content_store 	p_hit[32] 	0.29376160116213
scalar tree_4_3_u02_r20_network.node[32].content_store 	hits[32] 	3640
scalar tree_4_3_u02_r20_network.node[32].content_store 	misses[32] 	8751
scalar tree_4_3_u02_r20_network.node[32].content_store 	decision_yes[32] 	26
scalar tree_4_3_u02_r20_network.node[32].content_store 	decision_no[32] 	8725
scalar tree_4_3_u02_r20_network.node[32].content_store 	decision_ratio[32] 	0.0029710890183979
scalar tree_4_3_u02_r20_network.node[33].core_layer 	interests[33] 	12620
scalar tree_4_3_u02_r20_network.node[33].core_layer 	data[33] 	8995
scalar tree_4_3_u02_r20_network.node[33].content_store 	p_hit[33] 	0.28724247226624
scalar tree_4_3_u02_r20_network.node[33].content_store 	hits[33] 	3625
scalar tree_4_3_u02_r20_network.node[33].content_store 	misses[33] 	8995
scalar tree_4_3_u02_r20_network.node[33].content_store 	decision_yes[33] 	28
scalar tree_4_3_u02_r20_network.node[33].content_store 	decision_no[33] 	8967
scalar tree_4_3_u02_r20_network.node[33].content_store 	decision_ratio[33] 	0.0031128404669261
scalar tree_4_3_u02_r20_network.node[34].core_layer 	interests[34] 	12476
scalar tree_4_3_u02_r20_network.node[34].core_layer 	data[34] 	8827
scalar tree_4_3_u02_r20_network.node[34].content_store 	p_hit[34] 	0.29248156460404
scalar tree_4_3_u02_r20_network.node[34].content_store 	hits[34] 	3649
scalar tree_4_3_u02_r20_network.node[34].content_store 	misses[34] 	8827
scalar tree_4_3_u02_r20_network.node[34].content_store 	decision_yes[34] 	22
scalar tree_4_3_u02_r20_network.node[34].content_store 	decision_no[34] 	8805
scalar tree_4_3_u02_r20_network.node[34].content_store 	decision_ratio[34] 	0.0024923530078169
scalar tree_4_3_u02_r20_network.node[35].core_layer 	interests[35] 	12374
scalar tree_4_3_u02_r20_network.node[35].core_layer 	data[35] 	8673
scalar tree_4_3_u02_r20_network.node[35].content_store 	p_hit[35] 	0.29909487635364
scalar tree_4_3_u02_r20_network.node[35].content_store 	hits[35] 	3701
scalar tree_4_3_u02_r20_network.node[35].content_store 	misses[35] 	8673
scalar tree_4_3_u02_r20_network.node[35].content_store 	decision_yes[35] 	27
scalar tree_4_3_u02_r20_network.node[35].content_store 	decision_no[35] 	8646
scalar tree_4_3_u02_r20_network.node[35].content_store 	decision_ratio[35] 	0.0031131096506399
scalar tree_4_3_u02_r20_network.node[36].core_layer 	interests[36] 	12624
scalar tree_4_3_u02_r20_network.node[36].core_layer 	data[36] 	8804
scalar tree_4_3_u02_r20_network.node[36].content_store 	p_hit[36] 	0.30251901140684
scalar tree_4_3_u02_r20_network.node[36].content_store 	hits[36] 	3819
scalar tree_4_3_u02_r20_network.node[36].content_store 	misses[36] 	8805
scalar tree_4_3_u02_r20_network.node[36].content_store 	decision_yes[36] 	29
scalar tree_4_3_u02_r20_network.node[36].content_store 	decision_no[36] 	8775
scalar tree_4_3_u02_r20_network.node[36].content_store 	decision_ratio[36] 	0.0032939572921399
scalar tree_4_3_u02_r20_network.node[37].core_layer 	interests[37] 	13000
scalar tree_4_3_u02_r20_network.node[37].core_layer 	data[37] 	8899
scalar tree_4_3_u02_r20_network.node[37].content_store 	p_hit[37] 	0.31546153846154
scalar tree_4_3_u02_r20_network.node[37].content_store 	hits[37] 	4101
scalar tree_4_3_u02_r20_network.node[37].content_store 	misses[37] 	8899
scalar tree_4_3_u02_r20_network.node[37].content_store 	decision_yes[37] 	40
scalar tree_4_3_u02_r20_network.node[37].content_store 	decision_no[37] 	8859
scalar tree_4_3_u02_r20_network.node[37].content_store 	decision_ratio[37] 	0.0044948870659625
scalar tree_4_3_u02_r20_network.node[38].core_layer 	interests[38] 	12528
scalar tree_4_3_u02_r20_network.node[38].core_layer 	data[38] 	8957
scalar tree_4_3_u02_r20_network.node[38].content_store 	p_hit[38] 	0.28504150702427
scalar tree_4_3_u02_r20_network.node[38].content_store 	hits[38] 	3571
scalar tree_4_3_u02_r20_network.node[38].content_store 	misses[38] 	8957
scalar tree_4_3_u02_r20_network.node[38].content_store 	decision_yes[38] 	24
scalar tree_4_3_u02_r20_network.node[38].content_store 	decision_no[38] 	8933
scalar tree_4_3_u02_r20_network.node[38].content_store 	decision_ratio[38] 	0.0026794685720665
scalar tree_4_3_u02_r20_network.node[39].core_layer 	interests[39] 	12312
scalar tree_4_3_u02_r20_network.node[39].core_layer 	data[39] 	8683
scalar tree_4_3_u02_r20_network.node[39].content_store 	p_hit[39] 	0.29475308641975
scalar tree_4_3_u02_r20_network.node[39].content_store 	hits[39] 	3629
scalar tree_4_3_u02_r20_network.node[39].content_store 	misses[39] 	8683
scalar tree_4_3_u02_r20_network.node[39].content_store 	decision_yes[39] 	29
scalar tree_4_3_u02_r20_network.node[39].content_store 	decision_no[39] 	8654
scalar tree_4_3_u02_r20_network.node[39].content_store 	decision_ratio[39] 	0.003339859495566
scalar tree_4_3_u02_r20_network.client[13] 	hdistance[13] 	2.6828511530398
scalar tree_4_3_u02_r20_network.client[13] 	downloads[13] 	11925
scalar tree_4_3_u02_r20_network.client[13] 	avg_time[13] 	0.004171066196
scalar tree_4_3_u02_r20_network.client[14] 	hdistance[14] 	2.6333836351442
scalar tree_4_3_u02_r20_network.client[14] 	downloads[14] 	11928
scalar tree_4_3_u02_r20_network.client[14] 	avg_time[14] 	0.004083498034
scalar tree_4_3_u02_r20_network.client[15] 	hdistance[15] 	2.6696533244013
scalar tree_4_3_u02_r20_network.client[15] 	downloads[15] 	11942
scalar tree_4_3_u02_r20_network.client[15] 	avg_time[15] 	0.004150851077
scalar tree_4_3_u02_r20_network.client[16] 	hdistance[16] 	2.6196458684654
scalar tree_4_3_u02_r20_network.client[16] 	downloads[16] 	11860
scalar tree_4_3_u02_r20_network.client[16] 	avg_time[16] 	0.004045528264
scalar tree_4_3_u02_r20_network.client[17] 	hdistance[17] 	2.6477830463356
scalar tree_4_3_u02_r20_network.client[17] 	downloads[17] 	12021
scalar tree_4_3_u02_r20_network.client[17] 	avg_time[17] 	0.004117458115
scalar tree_4_3_u02_r20_network.client[18] 	hdistance[18] 	2.6590474607265
scalar tree_4_3_u02_r20_network.client[18] 	downloads[18] 	12031
scalar tree_4_3_u02_r20_network.client[18] 	avg_time[18] 	0.004133651699
scalar tree_4_3_u02_r20_network.client[19] 	hdistance[19] 	2.6455463728191
scalar tree_4_3_u02_r20_network.client[19] 	downloads[19] 	11979
scalar tree_4_3_u02_r20_network.client[19] 	avg_time[19] 	0.00415660439
scalar tree_4_3_u02_r20_network.client[20] 	hdistance[20] 	2.6203996669442
scalar tree_4_3_u02_r20_network.client[20] 	downloads[20] 	12010
scalar tree_4_3_u02_r20_network.client[20] 	avg_time[20] 	0.004113902075
scalar tree_4_3_u02_r20_network.client[21] 	hdistance[21] 	2.6421629703464
scalar tree_4_3_u02_r20_network.client[21] 	downloads[21] 	12039
scalar tree_4_3_u02_r20_network.client[21] 	avg_time[21] 	0.004147703823
scalar tree_4_3_u02_r20_network.client[22] 	hdistance[22] 	2.6946087826014
scalar tree_4_3_u02_r20_network.client[22] 	downloads[22] 	12001
scalar tree_4_3_u02_r20_network.client[22] 	avg_time[22] 	0.004191814359
scalar tree_4_3_u02_r20_network.client[23] 	hdistance[23] 	2.6473049882826
scalar tree_4_3_u02_r20_network.client[23] 	downloads[23] 	11948
scalar tree_4_3_u02_r20_network.client[23] 	avg_time[23] 	0.00411315404
scalar tree_4_3_u02_r20_network.client[24] 	hdistance[24] 	2.5873870887545
scalar tree_4_3_u02_r20_network.client[24] 	downloads[24] 	12067
scalar tree_4_3_u02_r20_network.client[24] 	avg_time[24] 	0.004002767593
scalar tree_4_3_u02_r20_network.client[25] 	hdistance[25] 	2.6567139282735
scalar tree_4_3_u02_r20_network.client[25] 	downloads[25] 	11990
scalar tree_4_3_u02_r20_network.client[25] 	avg_time[25] 	0.00413577683
scalar tree_4_3_u02_r20_network.client[26] 	hdistance[26] 	2.6684407484408
scalar tree_4_3_u02_r20_network.client[26] 	downloads[26] 	12025
scalar tree_4_3_u02_r20_network.client[26] 	avg_time[26] 	0.004144695516
scalar tree_4_3_u02_r20_network.client[27] 	hdistance[27] 	2.6664455133521
scalar tree_4_3_u02_r20_network.client[27] 	downloads[27] 	12058
scalar tree_4_3_u02_r20_network.client[27] 	avg_time[27] 	0.004147782673
scalar tree_4_3_u02_r20_network.client[28] 	hdistance[28] 	2.6572603866722
scalar tree_4_3_u02_r20_network.client[28] 	downloads[28] 	12155
scalar tree_4_3_u02_r20_network.client[28] 	avg_time[28] 	0.004129820089
scalar tree_4_3_u02_r20_network.client[29] 	hdistance[29] 	2.6368654344735
scalar tree_4_3_u02_r20_network.client[29] 	downloads[29] 	11957
scalar tree_4_3_u02_r20_network.client[29] 	avg_time[29] 	0.004095505958
scalar tree_4_3_u02_r20_network.client[30] 	hdistance[30] 	2.64903885818
scalar tree_4_3_u02_r20_network.client[30] 	downloads[30] 	12121
scalar tree_4_3_u02_r20_network.client[30] 	avg_time[30] 	0.004126884185
scalar tree_4_3_u02_r20_network.client[31] 	hdistance[31] 	2.6713478477647
scalar tree_4_3_u02_r20_network.client[31] 	downloads[31] 	12034
scalar tree_4_3_u02_r20_network.client[31] 	avg_time[31] 	0.004150071795
scalar tree_4_3_u02_r20_network.client[32] 	hdistance[32] 	2.6414396232762
scalar tree_4_3_u02_r20_network.client[32] 	downloads[32] 	11892
scalar tree_4_3_u02_r20_network.client[32] 	avg_time[32] 	0.004131345838
scalar tree_4_3_u02_r20_network.client[33] 	hdistance[33] 	2.6708933717579
scalar tree_4_3_u02_r20_network.client[33] 	downloads[33] 	12145
scalar tree_4_3_u02_r20_network.client[33] 	avg_time[33] 	0.004162862333
scalar tree_4_3_u02_r20_network.client[34] 	hdistance[34] 	2.6446280991736
scalar tree_4_3_u02_r20_network.client[34] 	downloads[34] 	12100
scalar tree_4_3_u02_r20_network.client[34] 	avg_time[34] 	0.004134048814
scalar tree_4_3_u02_r20_network.client[35] 	hdistance[35] 	2.6336311263255
scalar tree_4_3_u02_r20_network.client[35] 	downloads[35] 	11977
scalar tree_4_3_u02_r20_network.client[35] 	avg_time[35] 	0.004106534551
scalar tree_4_3_u02_r20_network.client[36] 	hdistance[36] 	2.6310084033613
scalar tree_4_3_u02_r20_network.client[36] 	downloads[36] 	11900
scalar tree_4_3_u02_r20_network.client[36] 	avg_time[36] 	0.004082109425
scalar tree_4_3_u02_r20_network.client[37] 	hdistance[37] 	2.6033078457447
scalar tree_4_3_u02_r20_network.client[37] 	downloads[37] 	12032
scalar tree_4_3_u02_r20_network.client[37] 	avg_time[37] 	0.004045708414
scalar tree_4_3_u02_r20_network.client[38] 	hdistance[38] 	2.659150541161
scalar tree_4_3_u02_r20_network.client[38] 	downloads[38] 	12196
scalar tree_4_3_u02_r20_network.client[38] 	avg_time[38] 	0.004147094322
scalar tree_4_3_u02_r20_network.client[39] 	hdistance[39] 	2.6314597315436
scalar tree_4_3_u02_r20_network.client[39] 	downloads[39] 	11920
scalar tree_4_3_u02_r20_network.client[39] 	avg_time[39] 	0.004112930537
