version 2
run General-169-20160831-23:33:19-8710
attr a 0.9
attr cd ffc0.25
attr configname General
attr cr lru
attr datetime 20160831-23:33:19
attr experiment General
attr fsize 1
attr inifile hw5115/scenario_Y/omnetp.ini
attr iterationvars "$name=tree_4_3, $un=02, $rep=17, $cd=ffc0.25, $cr=lru, $fsize=1, $a=0.9, $sl=nrr, $ttl=1000, $variance=0.05"
attr iterationvars2 "$name=tree_4_3, $un=02, $rep=17, $cd=ffc0.25, $cr=lru, $fsize=1, $a=0.9, $sl=nrr, $ttl=1000, $variance=0.05, $repetition=0"
attr measurement "$name=tree_4_3, $un=02, $rep=17, $cd=ffc0.25, $cr=lru, $fsize=1, $a=0.9, $sl=nrr, $ttl=1000, $variance=0.05"
attr name tree_4_3
attr network networks.${name}_u${un}_r${rep}_network
attr processid 8710
attr rep 17
attr repetition 0
attr replication #0
attr resultdir results
attr runnumber 169
attr seedset 17
attr sl nrr
attr ttl 1000
attr un 02
attr variance 0.05

scalar . 	a 	0.9
scalar . 	fsize 	1
scalar . 	rep 	17
scalar . 	ttl 	1000
scalar . 	un 	02
scalar . 	variance 	0.05
scalar tree_4_3_u02_r17_network.content_distribution 	repo-0 	0
scalar tree_4_3_u02_r17_network.content_distribution 	client-0 	13
scalar tree_4_3_u02_r17_network.content_distribution 	client-1 	14
scalar tree_4_3_u02_r17_network.content_distribution 	client-2 	15
scalar tree_4_3_u02_r17_network.content_distribution 	client-3 	16
scalar tree_4_3_u02_r17_network.content_distribution 	client-4 	17
scalar tree_4_3_u02_r17_network.content_distribution 	client-5 	18
scalar tree_4_3_u02_r17_network.content_distribution 	client-6 	19
scalar tree_4_3_u02_r17_network.content_distribution 	client-7 	20
scalar tree_4_3_u02_r17_network.content_distribution 	client-8 	21
scalar tree_4_3_u02_r17_network.content_distribution 	client-9 	22
scalar tree_4_3_u02_r17_network.content_distribution 	client-10 	23
scalar tree_4_3_u02_r17_network.content_distribution 	client-11 	24
scalar tree_4_3_u02_r17_network.content_distribution 	client-12 	25
scalar tree_4_3_u02_r17_network.content_distribution 	client-13 	26
scalar tree_4_3_u02_r17_network.content_distribution 	client-14 	27
scalar tree_4_3_u02_r17_network.content_distribution 	client-15 	28
scalar tree_4_3_u02_r17_network.content_distribution 	client-16 	29
scalar tree_4_3_u02_r17_network.content_distribution 	client-17 	30
scalar tree_4_3_u02_r17_network.content_distribution 	client-18 	31
scalar tree_4_3_u02_r17_network.content_distribution 	client-19 	32
scalar tree_4_3_u02_r17_network.content_distribution 	client-20 	33
scalar tree_4_3_u02_r17_network.content_distribution 	client-21 	34
scalar tree_4_3_u02_r17_network.content_distribution 	client-22 	35
scalar tree_4_3_u02_r17_network.content_distribution 	client-23 	36
scalar tree_4_3_u02_r17_network.content_distribution 	client-24 	37
scalar tree_4_3_u02_r17_network.content_distribution 	client-25 	38
scalar tree_4_3_u02_r17_network.content_distribution 	client-26 	39
scalar tree_4_3_u02_r17_network.content_distribution 	repo-0_card 	100000
scalar tree_4_3_u02_r17_network.content_distribution 	repo-0_price 	0
scalar tree_4_3_u02_r17_network.statistics 	stabilization_time 	3304.7
scalar tree_4_3_u02_r17_network.statistics 	p_hit 	0.23047488444362
scalar tree_4_3_u02_r17_network.statistics 	interests 	24754.55
scalar tree_4_3_u02_r17_network.statistics 	data 	16661.35
scalar tree_4_3_u02_r17_network.statistics 	hdistance 	2.6321690269892
scalar tree_4_3_u02_r17_network.statistics 	avg_time 	0.004117433923
scalar tree_4_3_u02_r17_network.statistics 	downloads 	323720
scalar tree_4_3_u02_r17_network.statistics 	total_cost 	0
scalar tree_4_3_u02_r17_network.statistics 	total_replicas 	100000
scalar tree_4_3_u02_r17_network.statistics 	inner_hit 	0.42655999011491
scalar tree_4_3_u02_r17_network.node[0].core_layer 	interests[0] 	189309
scalar tree_4_3_u02_r17_network.node[0].core_layer 	repo_load[0] 	185634
scalar tree_4_3_u02_r17_network.node[0].core_layer 	data[0] 	0
scalar tree_4_3_u02_r17_network.node[0].core_layer 	repo_int[0] 	185634
scalar tree_4_3_u02_r17_network.node[0].content_store 	p_hit[0] 	0.019412706210481
scalar tree_4_3_u02_r17_network.node[0].content_store 	hits[0] 	3675
scalar tree_4_3_u02_r17_network.node[0].content_store 	misses[0] 	185634
scalar tree_4_3_u02_r17_network.node[0].content_store 	decision_yes[0] 	197
scalar tree_4_3_u02_r17_network.node[0].content_store 	decision_no[0] 	185437
scalar tree_4_3_u02_r17_network.node[0].content_store 	decision_ratio[0] 	0.0010612280078003
scalar tree_4_3_u02_r17_network.node[1].core_layer 	interests[1] 	130460
scalar tree_4_3_u02_r17_network.node[1].core_layer 	data[1] 	126558
scalar tree_4_3_u02_r17_network.node[1].content_store 	p_hit[1] 	0.029901885635444
scalar tree_4_3_u02_r17_network.node[1].content_store 	hits[1] 	3901
scalar tree_4_3_u02_r17_network.node[1].content_store 	misses[1] 	126559
scalar tree_4_3_u02_r17_network.node[1].content_store 	decision_yes[1] 	177
scalar tree_4_3_u02_r17_network.node[1].content_store 	decision_no[1] 	126381
scalar tree_4_3_u02_r17_network.node[1].content_store 	decision_ratio[1] 	0.0013985682453895
scalar tree_4_3_u02_r17_network.node[2].core_layer 	interests[2] 	41553
scalar tree_4_3_u02_r17_network.node[2].core_layer 	data[2] 	39205
scalar tree_4_3_u02_r17_network.node[2].content_store 	p_hit[2] 	0.056482083122759
scalar tree_4_3_u02_r17_network.node[2].content_store 	hits[2] 	2347
scalar tree_4_3_u02_r17_network.node[2].content_store 	misses[2] 	39206
scalar tree_4_3_u02_r17_network.node[2].content_store 	decision_yes[2] 	70
scalar tree_4_3_u02_r17_network.node[2].content_store 	decision_no[2] 	39135
scalar tree_4_3_u02_r17_network.node[2].content_store 	decision_ratio[2] 	0.0017854865450835
scalar tree_4_3_u02_r17_network.node[3].core_layer 	interests[3] 	40230
scalar tree_4_3_u02_r17_network.node[3].core_layer 	data[3] 	38203
scalar tree_4_3_u02_r17_network.node[3].content_store 	p_hit[3] 	0.050385284613473
scalar tree_4_3_u02_r17_network.node[3].content_store 	hits[3] 	2027
scalar tree_4_3_u02_r17_network.node[3].content_store 	misses[3] 	38203
scalar tree_4_3_u02_r17_network.node[3].content_store 	decision_yes[3] 	75
scalar tree_4_3_u02_r17_network.node[3].content_store 	decision_no[3] 	38128
scalar tree_4_3_u02_r17_network.node[3].content_store 	decision_ratio[3] 	0.0019631966075963
scalar tree_4_3_u02_r17_network.node[4].core_layer 	interests[4] 	28144
scalar tree_4_3_u02_r17_network.node[4].core_layer 	data[4] 	25351
scalar tree_4_3_u02_r17_network.node[4].content_store 	p_hit[4] 	0.099239624786811
scalar tree_4_3_u02_r17_network.node[4].content_store 	hits[4] 	2793
scalar tree_4_3_u02_r17_network.node[4].content_store 	misses[4] 	25351
scalar tree_4_3_u02_r17_network.node[4].content_store 	decision_yes[4] 	61
scalar tree_4_3_u02_r17_network.node[4].content_store 	decision_no[4] 	25290
scalar tree_4_3_u02_r17_network.node[4].content_store 	decision_ratio[4] 	0.0024062167172893
scalar tree_4_3_u02_r17_network.node[5].core_layer 	interests[5] 	27903
scalar tree_4_3_u02_r17_network.node[5].core_layer 	data[5] 	25222
scalar tree_4_3_u02_r17_network.node[5].content_store 	p_hit[5] 	0.096082858473999
scalar tree_4_3_u02_r17_network.node[5].content_store 	hits[5] 	2681
scalar tree_4_3_u02_r17_network.node[5].content_store 	misses[5] 	25222
scalar tree_4_3_u02_r17_network.node[5].content_store 	decision_yes[5] 	61
scalar tree_4_3_u02_r17_network.node[5].content_store 	decision_no[5] 	25161
scalar tree_4_3_u02_r17_network.node[5].content_store 	decision_ratio[5] 	0.0024185235112204
scalar tree_4_3_u02_r17_network.node[6].core_layer 	interests[6] 	27905
scalar tree_4_3_u02_r17_network.node[6].core_layer 	data[6] 	25248
scalar tree_4_3_u02_r17_network.node[6].content_store 	p_hit[6] 	0.095144239383623
scalar tree_4_3_u02_r17_network.node[6].content_store 	hits[6] 	2655
scalar tree_4_3_u02_r17_network.node[6].content_store 	misses[6] 	25250
scalar tree_4_3_u02_r17_network.node[6].content_store 	decision_yes[6] 	75
scalar tree_4_3_u02_r17_network.node[6].content_store 	decision_no[6] 	25173
scalar tree_4_3_u02_r17_network.node[6].content_store 	decision_ratio[6] 	0.0029705323193916
scalar tree_4_3_u02_r17_network.node[7].core_layer 	interests[7] 	37962
scalar tree_4_3_u02_r17_network.node[7].core_layer 	data[7] 	33693
scalar tree_4_3_u02_r17_network.node[7].content_store 	p_hit[7] 	0.11242821769138
scalar tree_4_3_u02_r17_network.node[7].content_store 	hits[7] 	4268
scalar tree_4_3_u02_r17_network.node[7].content_store 	misses[7] 	33694
scalar tree_4_3_u02_r17_network.node[7].content_store 	decision_yes[7] 	104
scalar tree_4_3_u02_r17_network.node[7].content_store 	decision_no[7] 	33589
scalar tree_4_3_u02_r17_network.node[7].content_store 	decision_ratio[7] 	0.0030866945656368
scalar tree_4_3_u02_r17_network.node[8].core_layer 	interests[8] 	18803
scalar tree_4_3_u02_r17_network.node[8].core_layer 	data[8] 	16849
scalar tree_4_3_u02_r17_network.node[8].content_store 	p_hit[8] 	0.1039195872999
scalar tree_4_3_u02_r17_network.node[8].content_store 	hits[8] 	1954
scalar tree_4_3_u02_r17_network.node[8].content_store 	misses[8] 	16849
scalar tree_4_3_u02_r17_network.node[8].content_store 	decision_yes[8] 	50
scalar tree_4_3_u02_r17_network.node[8].content_store 	decision_no[8] 	16799
scalar tree_4_3_u02_r17_network.node[8].content_store 	decision_ratio[8] 	0.0029675351652917
scalar tree_4_3_u02_r17_network.node[9].core_layer 	interests[9] 	27106
scalar tree_4_3_u02_r17_network.node[9].core_layer 	data[9] 	25252
scalar tree_4_3_u02_r17_network.node[9].content_store 	p_hit[9] 	0.068361248432081
scalar tree_4_3_u02_r17_network.node[9].content_store 	hits[9] 	1853
scalar tree_4_3_u02_r17_network.node[9].content_store 	misses[9] 	25253
scalar tree_4_3_u02_r17_network.node[9].content_store 	decision_yes[9] 	71
scalar tree_4_3_u02_r17_network.node[9].content_store 	decision_no[9] 	25181
scalar tree_4_3_u02_r17_network.node[9].content_store 	decision_ratio[9] 	0.0028116584824964
scalar tree_4_3_u02_r17_network.node[10].core_layer 	interests[10] 	37559
scalar tree_4_3_u02_r17_network.node[10].core_layer 	data[10] 	33625
scalar tree_4_3_u02_r17_network.node[10].content_store 	p_hit[10] 	0.10474187278682
scalar tree_4_3_u02_r17_network.node[10].content_store 	hits[10] 	3934
scalar tree_4_3_u02_r17_network.node[10].content_store 	misses[10] 	33625
scalar tree_4_3_u02_r17_network.node[10].content_store 	decision_yes[10] 	96
scalar tree_4_3_u02_r17_network.node[10].content_store 	decision_no[10] 	33529
scalar tree_4_3_u02_r17_network.node[10].content_store 	decision_ratio[10] 	0.0028550185873606
scalar tree_4_3_u02_r17_network.node[11].core_layer 	interests[11] 	34819
scalar tree_4_3_u02_r17_network.node[11].core_layer 	data[11] 	32578
scalar tree_4_3_u02_r17_network.node[11].content_store 	p_hit[11] 	0.064361411872828
scalar tree_4_3_u02_r17_network.node[11].content_store 	hits[11] 	2241
scalar tree_4_3_u02_r17_network.node[11].content_store 	misses[11] 	32578
scalar tree_4_3_u02_r17_network.node[11].content_store 	decision_yes[11] 	79
scalar tree_4_3_u02_r17_network.node[11].content_store 	decision_no[11] 	32499
scalar tree_4_3_u02_r17_network.node[11].content_store 	decision_ratio[11] 	0.0024249493523237
scalar tree_4_3_u02_r17_network.node[12].core_layer 	interests[12] 	10563
scalar tree_4_3_u02_r17_network.node[12].core_layer 	data[12] 	8565
scalar tree_4_3_u02_r17_network.node[12].content_store 	p_hit[12] 	0.18915080942914
scalar tree_4_3_u02_r17_network.node[12].content_store 	hits[12] 	1998
scalar tree_4_3_u02_r17_network.node[12].content_store 	misses[12] 	8565
scalar tree_4_3_u02_r17_network.node[12].content_store 	decision_yes[12] 	30
scalar tree_4_3_u02_r17_network.node[12].content_store 	decision_no[12] 	8535
scalar tree_4_3_u02_r17_network.node[12].content_store 	decision_ratio[12] 	0.0035026269702277
scalar tree_4_3_u02_r17_network.node[13].core_layer 	interests[13] 	12508
scalar tree_4_3_u02_r17_network.node[13].core_layer 	data[13] 	8760
scalar tree_4_3_u02_r17_network.node[13].content_store 	p_hit[13] 	0.29964822513591
scalar tree_4_3_u02_r17_network.node[13].content_store 	hits[13] 	3748
scalar tree_4_3_u02_r17_network.node[13].content_store 	misses[13] 	8760
scalar tree_4_3_u02_r17_network.node[13].content_store 	decision_yes[13] 	29
scalar tree_4_3_u02_r17_network.node[13].content_store 	decision_no[13] 	8731
scalar tree_4_3_u02_r17_network.node[13].content_store 	decision_ratio[13] 	0.003310502283105
scalar tree_4_3_u02_r17_network.node[14].core_layer 	interests[14] 	12566
scalar tree_4_3_u02_r17_network.node[14].core_layer 	data[14] 	8713
scalar tree_4_3_u02_r17_network.node[14].content_store 	p_hit[14] 	0.30662104090403
scalar tree_4_3_u02_r17_network.node[14].content_store 	hits[14] 	3853
scalar tree_4_3_u02_r17_network.node[14].content_store 	misses[14] 	8713
scalar tree_4_3_u02_r17_network.node[14].content_store 	decision_yes[14] 	31
scalar tree_4_3_u02_r17_network.node[14].content_store 	decision_no[14] 	8682
scalar tree_4_3_u02_r17_network.node[14].content_store 	decision_ratio[14] 	0.0035579019855388
scalar tree_4_3_u02_r17_network.node[15].core_layer 	interests[15] 	12569
scalar tree_4_3_u02_r17_network.node[15].core_layer 	data[15] 	8815
scalar tree_4_3_u02_r17_network.node[15].content_store 	p_hit[15] 	0.29867133423502
scalar tree_4_3_u02_r17_network.node[15].content_store 	hits[15] 	3754
scalar tree_4_3_u02_r17_network.node[15].content_store 	misses[15] 	8815
scalar tree_4_3_u02_r17_network.node[15].content_store 	decision_yes[15] 	28
scalar tree_4_3_u02_r17_network.node[15].content_store 	decision_no[15] 	8787
scalar tree_4_3_u02_r17_network.node[15].content_store 	decision_ratio[15] 	0.0031764038570618
scalar tree_4_3_u02_r17_network.node[16].core_layer 	interests[16] 	12436
scalar tree_4_3_u02_r17_network.node[16].core_layer 	data[16] 	8732
scalar tree_4_3_u02_r17_network.node[16].content_store 	p_hit[16] 	0.29776455451914
scalar tree_4_3_u02_r17_network.node[16].content_store 	hits[16] 	3703
scalar tree_4_3_u02_r17_network.node[16].content_store 	misses[16] 	8733
scalar tree_4_3_u02_r17_network.node[16].content_store 	decision_yes[16] 	29
scalar tree_4_3_u02_r17_network.node[16].content_store 	decision_no[16] 	8703
scalar tree_4_3_u02_r17_network.node[16].content_store 	decision_ratio[16] 	0.0033211177278974
scalar tree_4_3_u02_r17_network.node[17].core_layer 	interests[17] 	12476
scalar tree_4_3_u02_r17_network.node[17].core_layer 	data[17] 	8656
scalar tree_4_3_u02_r17_network.node[17].content_store 	p_hit[17] 	0.306187880731
scalar tree_4_3_u02_r17_network.node[17].content_store 	hits[17] 	3820
scalar tree_4_3_u02_r17_network.node[17].content_store 	misses[17] 	8656
scalar tree_4_3_u02_r17_network.node[17].content_store 	decision_yes[17] 	27
scalar tree_4_3_u02_r17_network.node[17].content_store 	decision_no[17] 	8629
scalar tree_4_3_u02_r17_network.node[17].content_store 	decision_ratio[17] 	0.0031192236598891
scalar tree_4_3_u02_r17_network.node[18].core_layer 	interests[18] 	12547
scalar tree_4_3_u02_r17_network.node[18].core_layer 	data[18] 	8740
scalar tree_4_3_u02_r17_network.node[18].content_store 	p_hit[18] 	0.30341914401849
scalar tree_4_3_u02_r17_network.node[18].content_store 	hits[18] 	3807
scalar tree_4_3_u02_r17_network.node[18].content_store 	misses[18] 	8740
scalar tree_4_3_u02_r17_network.node[18].content_store 	decision_yes[18] 	30
scalar tree_4_3_u02_r17_network.node[18].content_store 	decision_no[18] 	8710
scalar tree_4_3_u02_r17_network.node[18].content_store 	decision_ratio[18] 	0.0034324942791762
scalar tree_4_3_u02_r17_network.node[19].core_layer 	interests[19] 	12490
scalar tree_4_3_u02_r17_network.node[19].core_layer 	data[19] 	8733
scalar tree_4_3_u02_r17_network.node[19].content_store 	p_hit[19] 	0.30080064051241
scalar tree_4_3_u02_r17_network.node[19].content_store 	hits[19] 	3757
scalar tree_4_3_u02_r17_network.node[19].content_store 	misses[19] 	8733
scalar tree_4_3_u02_r17_network.node[19].content_store 	decision_yes[19] 	22
scalar tree_4_3_u02_r17_network.node[19].content_store 	decision_no[19] 	8711
scalar tree_4_3_u02_r17_network.node[19].content_store 	decision_ratio[19] 	0.0025191801213787
scalar tree_4_3_u02_r17_network.node[20].core_layer 	interests[20] 	12402
scalar tree_4_3_u02_r17_network.node[20].core_layer 	data[20] 	8613
scalar tree_4_3_u02_r17_network.node[20].content_store 	p_hit[20] 	0.3055152394775
scalar tree_4_3_u02_r17_network.node[20].content_store 	hits[20] 	3789
scalar tree_4_3_u02_r17_network.node[20].content_store 	misses[20] 	8613
scalar tree_4_3_u02_r17_network.node[20].content_store 	decision_yes[20] 	33
scalar tree_4_3_u02_r17_network.node[20].content_store 	decision_no[20] 	8580
scalar tree_4_3_u02_r17_network.node[20].content_store 	decision_ratio[20] 	0.0038314176245211
scalar tree_4_3_u02_r17_network.node[21].core_layer 	interests[21] 	12541
scalar tree_4_3_u02_r17_network.node[21].core_layer 	data[21] 	8859
scalar tree_4_3_u02_r17_network.node[21].content_store 	p_hit[21] 	0.29359700183398
scalar tree_4_3_u02_r17_network.node[21].content_store 	hits[21] 	3682
scalar tree_4_3_u02_r17_network.node[21].content_store 	misses[21] 	8859
scalar tree_4_3_u02_r17_network.node[21].content_store 	decision_yes[21] 	27
scalar tree_4_3_u02_r17_network.node[21].content_store 	decision_no[21] 	8832
scalar tree_4_3_u02_r17_network.node[21].content_store 	decision_ratio[21] 	0.0030477480528276
scalar tree_4_3_u02_r17_network.node[22].core_layer 	interests[22] 	12578
scalar tree_4_3_u02_r17_network.node[22].core_layer 	data[22] 	8779
scalar tree_4_3_u02_r17_network.node[22].content_store 	p_hit[22] 	0.30203529972969
scalar tree_4_3_u02_r17_network.node[22].content_store 	hits[22] 	3799
scalar tree_4_3_u02_r17_network.node[22].content_store 	misses[22] 	8779
scalar tree_4_3_u02_r17_network.node[22].content_store 	decision_yes[22] 	22
scalar tree_4_3_u02_r17_network.node[22].content_store 	decision_no[22] 	8757
scalar tree_4_3_u02_r17_network.node[22].content_store 	decision_ratio[22] 	0.0025059801799749
scalar tree_4_3_u02_r17_network.node[23].core_layer 	interests[23] 	12705
scalar tree_4_3_u02_r17_network.node[23].core_layer 	data[23] 	8702
scalar tree_4_3_u02_r17_network.node[23].content_store 	p_hit[23] 	0.3150728059819
scalar tree_4_3_u02_r17_network.node[23].content_store 	hits[23] 	4003
scalar tree_4_3_u02_r17_network.node[23].content_store 	misses[23] 	8702
scalar tree_4_3_u02_r17_network.node[23].content_store 	decision_yes[23] 	22
scalar tree_4_3_u02_r17_network.node[23].content_store 	decision_no[23] 	8680
scalar tree_4_3_u02_r17_network.node[23].content_store 	decision_ratio[23] 	0.0025281544472535
scalar tree_4_3_u02_r17_network.node[24].core_layer 	interests[24] 	12667
scalar tree_4_3_u02_r17_network.node[24].core_layer 	data[24] 	8733
scalar tree_4_3_u02_r17_network.node[24].content_store 	p_hit[24] 	0.31049182916239
scalar tree_4_3_u02_r17_network.node[24].content_store 	hits[24] 	3933
scalar tree_4_3_u02_r17_network.node[24].content_store 	misses[24] 	8734
scalar tree_4_3_u02_r17_network.node[24].content_store 	decision_yes[24] 	35
scalar tree_4_3_u02_r17_network.node[24].content_store 	decision_no[24] 	8698
scalar tree_4_3_u02_r17_network.node[24].content_store 	decision_ratio[24] 	0.0040077865567388
scalar tree_4_3_u02_r17_network.node[25].core_layer 	interests[25] 	12744
scalar tree_4_3_u02_r17_network.node[25].core_layer 	data[25] 	8739
scalar tree_4_3_u02_r17_network.node[25].content_store 	p_hit[25] 	0.31418706842436
scalar tree_4_3_u02_r17_network.node[25].content_store 	hits[25] 	4004
scalar tree_4_3_u02_r17_network.node[25].content_store 	misses[25] 	8740
scalar tree_4_3_u02_r17_network.node[25].content_store 	decision_yes[25] 	27
scalar tree_4_3_u02_r17_network.node[25].content_store 	decision_no[25] 	8712
scalar tree_4_3_u02_r17_network.node[25].content_store 	decision_ratio[25] 	0.0030895983522142
scalar tree_4_3_u02_r17_network.node[26].core_layer 	interests[26] 	12456
scalar tree_4_3_u02_r17_network.node[26].core_layer 	data[26] 	8877
scalar tree_4_3_u02_r17_network.node[26].content_store 	p_hit[26] 	0.28733140655106
scalar tree_4_3_u02_r17_network.node[26].content_store 	hits[26] 	3579
scalar tree_4_3_u02_r17_network.node[26].content_store 	misses[26] 	8877
scalar tree_4_3_u02_r17_network.node[26].content_store 	decision_yes[26] 	31
scalar tree_4_3_u02_r17_network.node[26].content_store 	decision_no[26] 	8846
scalar tree_4_3_u02_r17_network.node[26].content_store 	decision_ratio[26] 	0.0034921707784161
scalar tree_4_3_u02_r17_network.node[27].core_layer 	interests[27] 	12127
scalar tree_4_3_u02_r17_network.node[27].core_layer 	data[27] 	8617
scalar tree_4_3_u02_r17_network.node[27].content_store 	p_hit[27] 	0.2894367939309
scalar tree_4_3_u02_r17_network.node[27].content_store 	hits[27] 	3510
scalar tree_4_3_u02_r17_network.node[27].content_store 	misses[27] 	8617
scalar tree_4_3_u02_r17_network.node[27].content_store 	decision_yes[27] 	36
scalar tree_4_3_u02_r17_network.node[27].content_store 	decision_no[27] 	8581
scalar tree_4_3_u02_r17_network.node[27].content_store 	decision_ratio[27] 	0.0041777880933039
scalar tree_4_3_u02_r17_network.node[28].core_layer 	interests[28] 	12700
scalar tree_4_3_u02_r17_network.node[28].core_layer 	data[28] 	8803
scalar tree_4_3_u02_r17_network.node[28].content_store 	p_hit[28] 	0.30685039370079
scalar tree_4_3_u02_r17_network.node[28].content_store 	hits[28] 	3897
scalar tree_4_3_u02_r17_network.node[28].content_store 	misses[28] 	8803
scalar tree_4_3_u02_r17_network.node[28].content_store 	decision_yes[28] 	23
scalar tree_4_3_u02_r17_network.node[28].content_store 	decision_no[28] 	8780
scalar tree_4_3_u02_r17_network.node[28].content_store 	decision_ratio[28] 	0.0026127456548904
scalar tree_4_3_u02_r17_network.node[29].core_layer 	interests[29] 	12455
scalar tree_4_3_u02_r17_network.node[29].core_layer 	data[29] 	8844
scalar tree_4_3_u02_r17_network.node[29].content_store 	p_hit[29] 	0.28984343637094
scalar tree_4_3_u02_r17_network.node[29].content_store 	hits[29] 	3610
scalar tree_4_3_u02_r17_network.node[29].content_store 	misses[29] 	8845
scalar tree_4_3_u02_r17_network.node[29].content_store 	decision_yes[29] 	30
scalar tree_4_3_u02_r17_network.node[29].content_store 	decision_no[29] 	8814
scalar tree_4_3_u02_r17_network.node[29].content_store 	decision_ratio[29] 	0.0033921302578019
scalar tree_4_3_u02_r17_network.node[30].core_layer 	interests[30] 	12436
scalar tree_4_3_u02_r17_network.node[30].core_layer 	data[30] 	8808
scalar tree_4_3_u02_r17_network.node[30].content_store 	p_hit[30] 	0.29173367642329
scalar tree_4_3_u02_r17_network.node[30].content_store 	hits[30] 	3628
scalar tree_4_3_u02_r17_network.node[30].content_store 	misses[30] 	8808
scalar tree_4_3_u02_r17_network.node[30].content_store 	decision_yes[30] 	17
scalar tree_4_3_u02_r17_network.node[30].content_store 	decision_no[30] 	8791
scalar tree_4_3_u02_r17_network.node[30].content_store 	decision_ratio[30] 	0.0019300635785649
scalar tree_4_3_u02_r17_network.node[31].core_layer 	interests[31] 	12563
scalar tree_4_3_u02_r17_network.node[31].core_layer 	data[31] 	8766
scalar tree_4_3_u02_r17_network.node[31].content_store 	p_hit[31] 	0.30223672689644
scalar tree_4_3_u02_r17_network.node[31].content_store 	hits[31] 	3797
scalar tree_4_3_u02_r17_network.node[31].content_store 	misses[31] 	8766
scalar tree_4_3_u02_r17_network.node[31].content_store 	decision_yes[31] 	29
scalar tree_4_3_u02_r17_network.node[31].content_store 	decision_no[31] 	8737
scalar tree_4_3_u02_r17_network.node[31].content_store 	decision_ratio[31] 	0.0033082363677846
scalar tree_4_3_u02_r17_network.node[32].core_layer 	interests[32] 	12668
scalar tree_4_3_u02_r17_network.node[32].core_layer 	data[32] 	8768
scalar tree_4_3_u02_r17_network.node[32].content_store 	p_hit[32] 	0.30786233028102
scalar tree_4_3_u02_r17_network.node[32].content_store 	hits[32] 	3900
scalar tree_4_3_u02_r17_network.node[32].content_store 	misses[32] 	8768
scalar tree_4_3_u02_r17_network.node[32].content_store 	decision_yes[32] 	20
scalar tree_4_3_u02_r17_network.node[32].content_store 	decision_no[32] 	8748
scalar tree_4_3_u02_r17_network.node[32].content_store 	decision_ratio[32] 	0.0022810218978102
scalar tree_4_3_u02_r17_network.node[33].core_layer 	interests[33] 	12584
scalar tree_4_3_u02_r17_network.node[33].core_layer 	data[33] 	8615
scalar tree_4_3_u02_r17_network.node[33].content_store 	p_hit[33] 	0.31540050858233
scalar tree_4_3_u02_r17_network.node[33].content_store 	hits[33] 	3969
scalar tree_4_3_u02_r17_network.node[33].content_store 	misses[33] 	8615
scalar tree_4_3_u02_r17_network.node[33].content_store 	decision_yes[33] 	23
scalar tree_4_3_u02_r17_network.node[33].content_store 	decision_no[33] 	8592
scalar tree_4_3_u02_r17_network.node[33].content_store 	decision_ratio[33] 	0.0026697620429483
scalar tree_4_3_u02_r17_network.node[34].core_layer 	interests[34] 	12459
scalar tree_4_3_u02_r17_network.node[34].core_layer 	data[34] 	8741
scalar tree_4_3_u02_r17_network.node[34].content_store 	p_hit[34] 	0.29841881370897
scalar tree_4_3_u02_r17_network.node[34].content_store 	hits[34] 	3718
scalar tree_4_3_u02_r17_network.node[34].content_store 	misses[34] 	8741
scalar tree_4_3_u02_r17_network.node[34].content_store 	decision_yes[34] 	28
scalar tree_4_3_u02_r17_network.node[34].content_store 	decision_no[34] 	8713
scalar tree_4_3_u02_r17_network.node[34].content_store 	decision_ratio[34] 	0.0032032948175266
scalar tree_4_3_u02_r17_network.node[35].core_layer 	interests[35] 	12330
scalar tree_4_3_u02_r17_network.node[35].core_layer 	data[35] 	8779
scalar tree_4_3_u02_r17_network.node[35].content_store 	p_hit[35] 	0.28799675587997
scalar tree_4_3_u02_r17_network.node[35].content_store 	hits[35] 	3551
scalar tree_4_3_u02_r17_network.node[35].content_store 	misses[35] 	8779
scalar tree_4_3_u02_r17_network.node[35].content_store 	decision_yes[35] 	20
scalar tree_4_3_u02_r17_network.node[35].content_store 	decision_no[35] 	8759
scalar tree_4_3_u02_r17_network.node[35].content_store 	decision_ratio[35] 	0.0022781637999772
scalar tree_4_3_u02_r17_network.node[36].core_layer 	interests[36] 	12272
scalar tree_4_3_u02_r17_network.node[36].core_layer 	data[36] 	8699
scalar tree_4_3_u02_r17_network.node[36].content_store 	p_hit[36] 	0.29115058670143
scalar tree_4_3_u02_r17_network.node[36].content_store 	hits[36] 	3573
scalar tree_4_3_u02_r17_network.node[36].content_store 	misses[36] 	8699
scalar tree_4_3_u02_r17_network.node[36].content_store 	decision_yes[36] 	26
scalar tree_4_3_u02_r17_network.node[36].content_store 	decision_no[36] 	8673
scalar tree_4_3_u02_r17_network.node[36].content_store 	decision_ratio[36] 	0.0029888492930222
scalar tree_4_3_u02_r17_network.node[37].core_layer 	interests[37] 	12862
scalar tree_4_3_u02_r17_network.node[37].core_layer 	data[37] 	8805
scalar tree_4_3_u02_r17_network.node[37].content_store 	p_hit[37] 	0.31542528378168
scalar tree_4_3_u02_r17_network.node[37].content_store 	hits[37] 	4057
scalar tree_4_3_u02_r17_network.node[37].content_store 	misses[37] 	8805
scalar tree_4_3_u02_r17_network.node[37].content_store 	decision_yes[37] 	25
scalar tree_4_3_u02_r17_network.node[37].content_store 	decision_no[37] 	8780
scalar tree_4_3_u02_r17_network.node[37].content_store 	decision_ratio[37] 	0.0028392958546281
scalar tree_4_3_u02_r17_network.node[38].core_layer 	interests[38] 	12418
scalar tree_4_3_u02_r17_network.node[38].core_layer 	data[38] 	8711
scalar tree_4_3_u02_r17_network.node[38].content_store 	p_hit[38] 	0.29851827991625
scalar tree_4_3_u02_r17_network.node[38].content_store 	hits[38] 	3707
scalar tree_4_3_u02_r17_network.node[38].content_store 	misses[38] 	8711
scalar tree_4_3_u02_r17_network.node[38].content_store 	decision_yes[38] 	35
scalar tree_4_3_u02_r17_network.node[38].content_store 	decision_no[38] 	8676
scalar tree_4_3_u02_r17_network.node[38].content_store 	decision_ratio[38] 	0.0040179083916887
scalar tree_4_3_u02_r17_network.node[39].core_layer 	interests[39] 	12307
scalar tree_4_3_u02_r17_network.node[39].core_layer 	data[39] 	8698
scalar tree_4_3_u02_r17_network.node[39].content_store 	p_hit[39] 	0.2931664906151
scalar tree_4_3_u02_r17_network.node[39].content_store 	hits[39] 	3608
scalar tree_4_3_u02_r17_network.node[39].content_store 	misses[39] 	8699
scalar tree_4_3_u02_r17_network.node[39].content_store 	decision_yes[39] 	23
scalar tree_4_3_u02_r17_network.node[39].content_store 	decision_no[39] 	8675
scalar tree_4_3_u02_r17_network.node[39].content_store 	decision_ratio[39] 	0.0026442860427685
scalar tree_4_3_u02_r17_network.client[13] 	hdistance[13] 	2.6266069503193
scalar tree_4_3_u02_r17_network.client[13] 	downloads[13] 	12057
scalar tree_4_3_u02_r17_network.client[13] 	avg_time[13] 	0.004131538818
scalar tree_4_3_u02_r17_network.client[14] 	hdistance[14] 	2.6151547846294
scalar tree_4_3_u02_r17_network.client[14] 	downloads[14] 	12049
scalar tree_4_3_u02_r17_network.client[14] 	avg_time[14] 	0.00410954967
scalar tree_4_3_u02_r17_network.client[15] 	hdistance[15] 	2.6659200265472
scalar tree_4_3_u02_r17_network.client[15] 	downloads[15] 	12054
scalar tree_4_3_u02_r17_network.client[15] 	avg_time[15] 	0.004182674959
scalar tree_4_3_u02_r17_network.client[16] 	hdistance[16] 	2.6434724429205
scalar tree_4_3_u02_r17_network.client[16] 	downloads[16] 	11957
scalar tree_4_3_u02_r17_network.client[16] 	avg_time[16] 	0.004148211354
scalar tree_4_3_u02_r17_network.client[17] 	hdistance[17] 	2.6317289954721
scalar tree_4_3_u02_r17_network.client[17] 	downloads[17] 	11926
scalar tree_4_3_u02_r17_network.client[17] 	avg_time[17] 	0.004138517914
scalar tree_4_3_u02_r17_network.client[18] 	hdistance[18] 	2.6357670902899
scalar tree_4_3_u02_r17_network.client[18] 	downloads[18] 	12039
scalar tree_4_3_u02_r17_network.client[18] 	avg_time[18] 	0.004141703138
scalar tree_4_3_u02_r17_network.client[19] 	hdistance[19] 	2.62996329663
scalar tree_4_3_u02_r17_network.client[19] 	downloads[19] 	11988
scalar tree_4_3_u02_r17_network.client[19] 	avg_time[19] 	0.004134464824
scalar tree_4_3_u02_r17_network.client[20] 	hdistance[20] 	2.6213804713805
scalar tree_4_3_u02_r17_network.client[20] 	downloads[20] 	11880
scalar tree_4_3_u02_r17_network.client[20] 	avg_time[20] 	0.004116158627
scalar tree_4_3_u02_r17_network.client[21] 	hdistance[21] 	2.6781169425268
scalar tree_4_3_u02_r17_network.client[21] 	downloads[21] 	12023
scalar tree_4_3_u02_r17_network.client[21] 	avg_time[21] 	0.00420460713
scalar tree_4_3_u02_r17_network.client[22] 	hdistance[22] 	2.6301484774767
scalar tree_4_3_u02_r17_network.client[22] 	downloads[22] 	11921
scalar tree_4_3_u02_r17_network.client[22] 	avg_time[22] 	0.004138240445
scalar tree_4_3_u02_r17_network.client[23] 	hdistance[23] 	2.5876176985251
scalar tree_4_3_u02_r17_network.client[23] 	downloads[23] 	12001
scalar tree_4_3_u02_r17_network.client[23] 	avg_time[23] 	0.004069324541
scalar tree_4_3_u02_r17_network.client[24] 	hdistance[24] 	2.601564450362
scalar tree_4_3_u02_r17_network.client[24] 	downloads[24] 	12017
scalar tree_4_3_u02_r17_network.client[24] 	avg_time[24] 	0.004087127429
scalar tree_4_3_u02_r17_network.client[25] 	hdistance[25] 	2.5772405660377
scalar tree_4_3_u02_r17_network.client[25] 	downloads[25] 	11872
scalar tree_4_3_u02_r17_network.client[25] 	avg_time[25] 	0.004032060315
scalar tree_4_3_u02_r17_network.client[26] 	hdistance[26] 	2.6657642136352
scalar tree_4_3_u02_r17_network.client[26] 	downloads[26] 	12189
scalar tree_4_3_u02_r17_network.client[26] 	avg_time[26] 	0.004140779644
scalar tree_4_3_u02_r17_network.client[27] 	hdistance[27] 	2.6702711835769
scalar tree_4_3_u02_r17_network.client[27] 	downloads[27] 	11837
scalar tree_4_3_u02_r17_network.client[27] 	avg_time[27] 	0.004151555731
scalar tree_4_3_u02_r17_network.client[28] 	hdistance[28] 	2.6232899022801
scalar tree_4_3_u02_r17_network.client[28] 	downloads[28] 	12280
scalar tree_4_3_u02_r17_network.client[28] 	avg_time[28] 	0.004075078356
scalar tree_4_3_u02_r17_network.client[29] 	hdistance[29] 	2.6631709331131
scalar tree_4_3_u02_r17_network.client[29] 	downloads[29] 	12110
scalar tree_4_3_u02_r17_network.client[29] 	avg_time[29] 	0.004142523796
scalar tree_4_3_u02_r17_network.client[30] 	hdistance[30] 	2.6714071856287
scalar tree_4_3_u02_r17_network.client[30] 	downloads[30] 	12024
scalar tree_4_3_u02_r17_network.client[30] 	avg_time[30] 	0.004154521263
scalar tree_4_3_u02_r17_network.client[31] 	hdistance[31] 	2.6124686192469
scalar tree_4_3_u02_r17_network.client[31] 	downloads[31] 	11950
scalar tree_4_3_u02_r17_network.client[31] 	avg_time[31] 	0.004108950996
scalar tree_4_3_u02_r17_network.client[32] 	hdistance[32] 	2.6260869565217
scalar tree_4_3_u02_r17_network.client[32] 	downloads[32] 	11960
scalar tree_4_3_u02_r17_network.client[32] 	avg_time[32] 	0.004131936804
scalar tree_4_3_u02_r17_network.client[33] 	hdistance[33] 	2.586553776511
scalar tree_4_3_u02_r17_network.client[33] 	downloads[33] 	11929
scalar tree_4_3_u02_r17_network.client[33] 	avg_time[33] 	0.004066389881
scalar tree_4_3_u02_r17_network.client[34] 	hdistance[34] 	2.6296480743692
scalar tree_4_3_u02_r17_network.client[34] 	downloads[34] 	12048
scalar tree_4_3_u02_r17_network.client[34] 	avg_time[34] 	0.004087812358
scalar tree_4_3_u02_r17_network.client[35] 	hdistance[35] 	2.6800908020851
scalar tree_4_3_u02_r17_network.client[35] 	downloads[35] 	11894
scalar tree_4_3_u02_r17_network.client[35] 	avg_time[35] 	0.004157723614
scalar tree_4_3_u02_r17_network.client[36] 	hdistance[36] 	2.6639959517584
scalar tree_4_3_u02_r17_network.client[36] 	downloads[36] 	11857
scalar tree_4_3_u02_r17_network.client[36] 	avg_time[36] 	0.004137637231
scalar tree_4_3_u02_r17_network.client[37] 	hdistance[37] 	2.5766886532521
scalar tree_4_3_u02_r17_network.client[37] 	downloads[37] 	11977
scalar tree_4_3_u02_r17_network.client[37] 	avg_time[37] 	0.004030221609
scalar tree_4_3_u02_r17_network.client[38] 	hdistance[38] 	2.626218943441
scalar tree_4_3_u02_r17_network.client[38] 	downloads[38] 	11793
scalar tree_4_3_u02_r17_network.client[38] 	avg_time[38] 	0.004068681847
scalar tree_4_3_u02_r17_network.client[39] 	hdistance[39] 	2.6282263401721
scalar tree_4_3_u02_r17_network.client[39] 	downloads[39] 	12088
scalar tree_4_3_u02_r17_network.client[39] 	avg_time[39] 	0.004082723645
