version 2
run General-7-20160819-18:49:27-9589
attr a 0.9
attr cd fix0.01
attr configname General
attr cr lru
attr datetime 20160819-18:49:27
attr experiment General
attr fsize 1
attr inifile hw5115/scenario_A/SPR-FIX0.01.ini
attr iterationvars "$name=tree_4_3, $un=00, $rep=8, $cd=fix0.01, $cr=lru, $fsize=1, $a=0.9, $sl=spr, $ttl=1000, $variance=0.05"
attr iterationvars2 "$name=tree_4_3, $un=00, $rep=8, $cd=fix0.01, $cr=lru, $fsize=1, $a=0.9, $sl=spr, $ttl=1000, $variance=0.05, $repetition=0"
attr measurement "$name=tree_4_3, $un=00, $rep=8, $cd=fix0.01, $cr=lru, $fsize=1, $a=0.9, $sl=spr, $ttl=1000, $variance=0.05"
attr name tree_4_3
attr network networks.${name}_u${un}_r${rep}_network
attr processid 9589
attr rep 8
attr repetition 0
attr replication #0
attr resultdir results
attr runnumber 7
attr seedset 8
attr sl spr
attr ttl 1000
attr un 00
attr variance 0.05

scalar . 	a 	0.9
scalar . 	fsize 	1
scalar . 	rep 	8
scalar . 	ttl 	1000
scalar . 	un 	00
scalar . 	variance 	0.05
scalar tree_4_3_u00_r8_network.content_distribution 	repo-0 	0
scalar tree_4_3_u00_r8_network.content_distribution 	client-0 	13
scalar tree_4_3_u00_r8_network.content_distribution 	client-1 	14
scalar tree_4_3_u00_r8_network.content_distribution 	client-2 	15
scalar tree_4_3_u00_r8_network.content_distribution 	client-3 	16
scalar tree_4_3_u00_r8_network.content_distribution 	client-4 	17
scalar tree_4_3_u00_r8_network.content_distribution 	client-5 	18
scalar tree_4_3_u00_r8_network.content_distribution 	client-6 	19
scalar tree_4_3_u00_r8_network.content_distribution 	client-7 	20
scalar tree_4_3_u00_r8_network.content_distribution 	client-8 	21
scalar tree_4_3_u00_r8_network.content_distribution 	client-9 	22
scalar tree_4_3_u00_r8_network.content_distribution 	client-10 	23
scalar tree_4_3_u00_r8_network.content_distribution 	client-11 	24
scalar tree_4_3_u00_r8_network.content_distribution 	client-12 	25
scalar tree_4_3_u00_r8_network.content_distribution 	client-13 	26
scalar tree_4_3_u00_r8_network.content_distribution 	client-14 	27
scalar tree_4_3_u00_r8_network.content_distribution 	client-15 	28
scalar tree_4_3_u00_r8_network.content_distribution 	client-16 	29
scalar tree_4_3_u00_r8_network.content_distribution 	client-17 	30
scalar tree_4_3_u00_r8_network.content_distribution 	client-18 	31
scalar tree_4_3_u00_r8_network.content_distribution 	client-19 	32
scalar tree_4_3_u00_r8_network.content_distribution 	client-20 	33
scalar tree_4_3_u00_r8_network.content_distribution 	client-21 	34
scalar tree_4_3_u00_r8_network.content_distribution 	client-22 	35
scalar tree_4_3_u00_r8_network.content_distribution 	client-23 	36
scalar tree_4_3_u00_r8_network.content_distribution 	client-24 	37
scalar tree_4_3_u00_r8_network.content_distribution 	client-25 	38
scalar tree_4_3_u00_r8_network.content_distribution 	client-26 	39
scalar tree_4_3_u00_r8_network.content_distribution 	repo-0_card 	100000
scalar tree_4_3_u00_r8_network.content_distribution 	repo-0_price 	0
scalar tree_4_3_u00_r8_network.statistics 	stabilization_time 	2575.6
scalar tree_4_3_u00_r8_network.statistics 	p_hit 	0.17872561141684
scalar tree_4_3_u00_r8_network.statistics 	interests 	25643.475
scalar tree_4_3_u00_r8_network.statistics 	data 	17547.525
scalar tree_4_3_u00_r8_network.statistics 	hdistance 	2.8486446808559
scalar tree_4_3_u00_r8_network.statistics 	avg_time 	0.004334962586
scalar tree_4_3_u00_r8_network.statistics 	downloads 	323836
scalar tree_4_3_u00_r8_network.statistics 	total_cost 	0
scalar tree_4_3_u00_r8_network.statistics 	total_replicas 	100000
scalar tree_4_3_u00_r8_network.statistics 	inner_hit 	0.31887436850752
scalar tree_4_3_u00_r8_network.node[0].core_layer 	interests[0] 	224917
scalar tree_4_3_u00_r8_network.node[0].core_layer 	repo_load[0] 	220573
scalar tree_4_3_u00_r8_network.node[0].core_layer 	data[0] 	0
scalar tree_4_3_u00_r8_network.node[0].core_layer 	repo_int[0] 	220573
scalar tree_4_3_u00_r8_network.node[0].content_store 	p_hit[0] 	0.019313791309683
scalar tree_4_3_u00_r8_network.node[0].content_store 	hits[0] 	4344
scalar tree_4_3_u00_r8_network.node[0].content_store 	misses[0] 	220573
scalar tree_4_3_u00_r8_network.node[0].content_store 	decision_yes[0] 	2310
scalar tree_4_3_u00_r8_network.node[0].content_store 	decision_no[0] 	218263
scalar tree_4_3_u00_r8_network.node[0].content_store 	decision_ratio[0] 	0.01047272331609
scalar tree_4_3_u00_r8_network.node[1].core_layer 	interests[1] 	77197
scalar tree_4_3_u00_r8_network.node[1].core_layer 	data[1] 	75103
scalar tree_4_3_u00_r8_network.node[1].content_store 	p_hit[1] 	0.027099498685182
scalar tree_4_3_u00_r8_network.node[1].content_store 	hits[1] 	2092
scalar tree_4_3_u00_r8_network.node[1].content_store 	misses[1] 	75105
scalar tree_4_3_u00_r8_network.node[1].content_store 	decision_yes[1] 	781
scalar tree_4_3_u00_r8_network.node[1].content_store 	decision_no[1] 	74322
scalar tree_4_3_u00_r8_network.node[1].content_store 	decision_ratio[1] 	0.01039905196863
scalar tree_4_3_u00_r8_network.node[2].core_layer 	interests[2] 	76975
scalar tree_4_3_u00_r8_network.node[2].core_layer 	data[2] 	74674
scalar tree_4_3_u00_r8_network.node[2].content_store 	p_hit[2] 	0.029879831113998
scalar tree_4_3_u00_r8_network.node[2].content_store 	hits[2] 	2300
scalar tree_4_3_u00_r8_network.node[2].content_store 	misses[2] 	74675
scalar tree_4_3_u00_r8_network.node[2].content_store 	decision_yes[2] 	729
scalar tree_4_3_u00_r8_network.node[2].content_store 	decision_no[2] 	73945
scalar tree_4_3_u00_r8_network.node[2].content_store 	decision_ratio[2] 	0.0097624340466561
scalar tree_4_3_u00_r8_network.node[3].core_layer 	interests[3] 	77320
scalar tree_4_3_u00_r8_network.node[3].core_layer 	data[3] 	75139
scalar tree_4_3_u00_r8_network.node[3].content_store 	p_hit[3] 	0.028155716502845
scalar tree_4_3_u00_r8_network.node[3].content_store 	hits[3] 	2177
scalar tree_4_3_u00_r8_network.node[3].content_store 	misses[3] 	75143
scalar tree_4_3_u00_r8_network.node[3].content_store 	decision_yes[3] 	732
scalar tree_4_3_u00_r8_network.node[3].content_store 	decision_no[3] 	74407
scalar tree_4_3_u00_r8_network.node[3].content_store 	decision_ratio[3] 	0.0097419449287321
scalar tree_4_3_u00_r8_network.node[4].core_layer 	interests[4] 	27485
scalar tree_4_3_u00_r8_network.node[4].core_layer 	data[4] 	25931
scalar tree_4_3_u00_r8_network.node[4].content_store 	p_hit[4] 	0.056503547389485
scalar tree_4_3_u00_r8_network.node[4].content_store 	hits[4] 	1553
scalar tree_4_3_u00_r8_network.node[4].content_store 	misses[4] 	25932
scalar tree_4_3_u00_r8_network.node[4].content_store 	decision_yes[4] 	249
scalar tree_4_3_u00_r8_network.node[4].content_store 	decision_no[4] 	25682
scalar tree_4_3_u00_r8_network.node[4].content_store 	decision_ratio[4] 	0.0096024063861787
scalar tree_4_3_u00_r8_network.node[5].core_layer 	interests[5] 	27090
scalar tree_4_3_u00_r8_network.node[5].core_layer 	data[5] 	25596
scalar tree_4_3_u00_r8_network.node[5].content_store 	p_hit[5] 	0.05514950166113
scalar tree_4_3_u00_r8_network.node[5].content_store 	hits[5] 	1494
scalar tree_4_3_u00_r8_network.node[5].content_store 	misses[5] 	25596
scalar tree_4_3_u00_r8_network.node[5].content_store 	decision_yes[5] 	249
scalar tree_4_3_u00_r8_network.node[5].content_store 	decision_no[5] 	25347
scalar tree_4_3_u00_r8_network.node[5].content_store 	decision_ratio[5] 	0.0097280825128926
scalar tree_4_3_u00_r8_network.node[6].core_layer 	interests[6] 	27109
scalar tree_4_3_u00_r8_network.node[6].core_layer 	data[6] 	25670
scalar tree_4_3_u00_r8_network.node[6].content_store 	p_hit[6] 	0.053082002287063
scalar tree_4_3_u00_r8_network.node[6].content_store 	hits[6] 	1439
scalar tree_4_3_u00_r8_network.node[6].content_store 	misses[6] 	25670
scalar tree_4_3_u00_r8_network.node[6].content_store 	decision_yes[6] 	252
scalar tree_4_3_u00_r8_network.node[6].content_store 	decision_no[6] 	25418
scalar tree_4_3_u00_r8_network.node[6].content_store 	decision_ratio[6] 	0.0098169068952084
scalar tree_4_3_u00_r8_network.node[7].core_layer 	interests[7] 	27444
scalar tree_4_3_u00_r8_network.node[7].core_layer 	data[7] 	25900
scalar tree_4_3_u00_r8_network.node[7].content_store 	p_hit[7] 	0.056260020405189
scalar tree_4_3_u00_r8_network.node[7].content_store 	hits[7] 	1544
scalar tree_4_3_u00_r8_network.node[7].content_store 	misses[7] 	25900
scalar tree_4_3_u00_r8_network.node[7].content_store 	decision_yes[7] 	239
scalar tree_4_3_u00_r8_network.node[7].content_store 	decision_no[7] 	25661
scalar tree_4_3_u00_r8_network.node[7].content_store 	decision_ratio[7] 	0.0092277992277992
scalar tree_4_3_u00_r8_network.node[8].core_layer 	interests[8] 	27291
scalar tree_4_3_u00_r8_network.node[8].core_layer 	data[8] 	25687
scalar tree_4_3_u00_r8_network.node[8].content_store 	p_hit[8] 	0.058810596900077
scalar tree_4_3_u00_r8_network.node[8].content_store 	hits[8] 	1605
scalar tree_4_3_u00_r8_network.node[8].content_store 	misses[8] 	25686
scalar tree_4_3_u00_r8_network.node[8].content_store 	decision_yes[8] 	258
scalar tree_4_3_u00_r8_network.node[8].content_store 	decision_no[8] 	25429
scalar tree_4_3_u00_r8_network.node[8].content_store 	decision_ratio[8] 	0.010043991123915
scalar tree_4_3_u00_r8_network.node[9].core_layer 	interests[9] 	26967
scalar tree_4_3_u00_r8_network.node[9].core_layer 	data[9] 	25388
scalar tree_4_3_u00_r8_network.node[9].content_store 	p_hit[9] 	0.058515963955946
scalar tree_4_3_u00_r8_network.node[9].content_store 	hits[9] 	1578
scalar tree_4_3_u00_r8_network.node[9].content_store 	misses[9] 	25389
scalar tree_4_3_u00_r8_network.node[9].content_store 	decision_yes[9] 	267
scalar tree_4_3_u00_r8_network.node[9].content_store 	decision_no[9] 	25121
scalar tree_4_3_u00_r8_network.node[9].content_store 	decision_ratio[9] 	0.010516779580904
scalar tree_4_3_u00_r8_network.node[10].core_layer 	interests[10] 	27216
scalar tree_4_3_u00_r8_network.node[10].core_layer 	data[10] 	25859
scalar tree_4_3_u00_r8_network.node[10].content_store 	p_hit[10] 	0.049823633156966
scalar tree_4_3_u00_r8_network.node[10].content_store 	hits[10] 	1356
scalar tree_4_3_u00_r8_network.node[10].content_store 	misses[10] 	25860
scalar tree_4_3_u00_r8_network.node[10].content_store 	decision_yes[10] 	281
scalar tree_4_3_u00_r8_network.node[10].content_store 	decision_no[10] 	25578
scalar tree_4_3_u00_r8_network.node[10].content_store 	decision_ratio[10] 	0.010866622839244
scalar tree_4_3_u00_r8_network.node[11].core_layer 	interests[11] 	27656
scalar tree_4_3_u00_r8_network.node[11].core_layer 	data[11] 	25781
scalar tree_4_3_u00_r8_network.node[11].content_store 	p_hit[11] 	0.067797223025745
scalar tree_4_3_u00_r8_network.node[11].content_store 	hits[11] 	1875
scalar tree_4_3_u00_r8_network.node[11].content_store 	misses[11] 	25781
scalar tree_4_3_u00_r8_network.node[11].content_store 	decision_yes[11] 	217
scalar tree_4_3_u00_r8_network.node[11].content_store 	decision_no[11] 	25564
scalar tree_4_3_u00_r8_network.node[11].content_store 	decision_ratio[11] 	0.0084170513168613
scalar tree_4_3_u00_r8_network.node[12].core_layer 	interests[12] 	27235
scalar tree_4_3_u00_r8_network.node[12].core_layer 	data[12] 	25679
scalar tree_4_3_u00_r8_network.node[12].content_store 	p_hit[12] 	0.057095648981091
scalar tree_4_3_u00_r8_network.node[12].content_store 	hits[12] 	1555
scalar tree_4_3_u00_r8_network.node[12].content_store 	misses[12] 	25680
scalar tree_4_3_u00_r8_network.node[12].content_store 	decision_yes[12] 	264
scalar tree_4_3_u00_r8_network.node[12].content_store 	decision_no[12] 	25415
scalar tree_4_3_u00_r8_network.node[12].content_store 	decision_ratio[12] 	0.010280774173449
scalar tree_4_3_u00_r8_network.node[13].core_layer 	interests[13] 	12103
scalar tree_4_3_u00_r8_network.node[13].core_layer 	data[13] 	9106
scalar tree_4_3_u00_r8_network.node[13].content_store 	p_hit[13] 	0.24762455589523
scalar tree_4_3_u00_r8_network.node[13].content_store 	hits[13] 	2997
scalar tree_4_3_u00_r8_network.node[13].content_store 	misses[13] 	9106
scalar tree_4_3_u00_r8_network.node[13].content_store 	decision_yes[13] 	76
scalar tree_4_3_u00_r8_network.node[13].content_store 	decision_no[13] 	9030
scalar tree_4_3_u00_r8_network.node[13].content_store 	decision_ratio[13] 	0.0083461453986383
scalar tree_4_3_u00_r8_network.node[14].core_layer 	interests[14] 	11929
scalar tree_4_3_u00_r8_network.node[14].core_layer 	data[14] 	9204
scalar tree_4_3_u00_r8_network.node[14].content_store 	p_hit[14] 	0.2284349065303
scalar tree_4_3_u00_r8_network.node[14].content_store 	hits[14] 	2725
scalar tree_4_3_u00_r8_network.node[14].content_store 	misses[14] 	9204
scalar tree_4_3_u00_r8_network.node[14].content_store 	decision_yes[14] 	88
scalar tree_4_3_u00_r8_network.node[14].content_store 	decision_no[14] 	9116
scalar tree_4_3_u00_r8_network.node[14].content_store 	decision_ratio[14] 	0.009561060408518
scalar tree_4_3_u00_r8_network.node[15].core_layer 	interests[15] 	12137
scalar tree_4_3_u00_r8_network.node[15].core_layer 	data[15] 	9175
scalar tree_4_3_u00_r8_network.node[15].content_store 	p_hit[15] 	0.24404712861498
scalar tree_4_3_u00_r8_network.node[15].content_store 	hits[15] 	2962
scalar tree_4_3_u00_r8_network.node[15].content_store 	misses[15] 	9175
scalar tree_4_3_u00_r8_network.node[15].content_store 	decision_yes[15] 	90
scalar tree_4_3_u00_r8_network.node[15].content_store 	decision_no[15] 	9085
scalar tree_4_3_u00_r8_network.node[15].content_store 	decision_ratio[15] 	0.0098092643051771
scalar tree_4_3_u00_r8_network.node[16].core_layer 	interests[16] 	11982
scalar tree_4_3_u00_r8_network.node[16].core_layer 	data[16] 	9069
scalar tree_4_3_u00_r8_network.node[16].content_store 	p_hit[16] 	0.24311467200801
scalar tree_4_3_u00_r8_network.node[16].content_store 	hits[16] 	2913
scalar tree_4_3_u00_r8_network.node[16].content_store 	misses[16] 	9069
scalar tree_4_3_u00_r8_network.node[16].content_store 	decision_yes[16] 	72
scalar tree_4_3_u00_r8_network.node[16].content_store 	decision_no[16] 	8997
scalar tree_4_3_u00_r8_network.node[16].content_store 	decision_ratio[16] 	0.0079391333112802
scalar tree_4_3_u00_r8_network.node[17].core_layer 	interests[17] 	11808
scalar tree_4_3_u00_r8_network.node[17].core_layer 	data[17] 	8898
scalar tree_4_3_u00_r8_network.node[17].content_store 	p_hit[17] 	0.24644308943089
scalar tree_4_3_u00_r8_network.node[17].content_store 	hits[17] 	2910
scalar tree_4_3_u00_r8_network.node[17].content_store 	misses[17] 	8898
scalar tree_4_3_u00_r8_network.node[17].content_store 	decision_yes[17] 	109
scalar tree_4_3_u00_r8_network.node[17].content_store 	decision_no[17] 	8789
scalar tree_4_3_u00_r8_network.node[17].content_store 	decision_ratio[17] 	0.012249943807597
scalar tree_4_3_u00_r8_network.node[18].core_layer 	interests[18] 	11972
scalar tree_4_3_u00_r8_network.node[18].core_layer 	data[18] 	9123
scalar tree_4_3_u00_r8_network.node[18].content_store 	p_hit[18] 	0.23797193451387
scalar tree_4_3_u00_r8_network.node[18].content_store 	hits[18] 	2849
scalar tree_4_3_u00_r8_network.node[18].content_store 	misses[18] 	9123
scalar tree_4_3_u00_r8_network.node[18].content_store 	decision_yes[18] 	94
scalar tree_4_3_u00_r8_network.node[18].content_store 	decision_no[18] 	9029
scalar tree_4_3_u00_r8_network.node[18].content_store 	decision_ratio[18] 	0.010303628192481
scalar tree_4_3_u00_r8_network.node[19].core_layer 	interests[19] 	11939
scalar tree_4_3_u00_r8_network.node[19].core_layer 	data[19] 	9056
scalar tree_4_3_u00_r8_network.node[19].content_store 	p_hit[19] 	0.24147751067929
scalar tree_4_3_u00_r8_network.node[19].content_store 	hits[19] 	2883
scalar tree_4_3_u00_r8_network.node[19].content_store 	misses[19] 	9056
scalar tree_4_3_u00_r8_network.node[19].content_store 	decision_yes[19] 	91
scalar tree_4_3_u00_r8_network.node[19].content_store 	decision_no[19] 	8965
scalar tree_4_3_u00_r8_network.node[19].content_store 	decision_ratio[19] 	0.010048586572438
scalar tree_4_3_u00_r8_network.node[20].core_layer 	interests[20] 	11793
scalar tree_4_3_u00_r8_network.node[20].core_layer 	data[20] 	8947
scalar tree_4_3_u00_r8_network.node[20].content_store 	p_hit[20] 	0.24132960230645
scalar tree_4_3_u00_r8_network.node[20].content_store 	hits[20] 	2846
scalar tree_4_3_u00_r8_network.node[20].content_store 	misses[20] 	8947
scalar tree_4_3_u00_r8_network.node[20].content_store 	decision_yes[20] 	65
scalar tree_4_3_u00_r8_network.node[20].content_store 	decision_no[20] 	8882
scalar tree_4_3_u00_r8_network.node[20].content_store 	decision_ratio[20] 	0.0072650050296189
scalar tree_4_3_u00_r8_network.node[21].core_layer 	interests[21] 	11886
scalar tree_4_3_u00_r8_network.node[21].core_layer 	data[21] 	9107
scalar tree_4_3_u00_r8_network.node[21].content_store 	p_hit[21] 	0.23388860844691
scalar tree_4_3_u00_r8_network.node[21].content_store 	hits[21] 	2780
scalar tree_4_3_u00_r8_network.node[21].content_store 	misses[21] 	9106
scalar tree_4_3_u00_r8_network.node[21].content_store 	decision_yes[21] 	87
scalar tree_4_3_u00_r8_network.node[21].content_store 	decision_no[21] 	9020
scalar tree_4_3_u00_r8_network.node[21].content_store 	decision_ratio[21] 	0.0095530910288789
scalar tree_4_3_u00_r8_network.node[22].core_layer 	interests[22] 	12027
scalar tree_4_3_u00_r8_network.node[22].core_layer 	data[22] 	9253
scalar tree_4_3_u00_r8_network.node[22].content_store 	p_hit[22] 	0.2306477093207
scalar tree_4_3_u00_r8_network.node[22].content_store 	hits[22] 	2774
scalar tree_4_3_u00_r8_network.node[22].content_store 	misses[22] 	9253
scalar tree_4_3_u00_r8_network.node[22].content_store 	decision_yes[22] 	87
scalar tree_4_3_u00_r8_network.node[22].content_store 	decision_no[22] 	9166
scalar tree_4_3_u00_r8_network.node[22].content_store 	decision_ratio[22] 	0.009402355992651
scalar tree_4_3_u00_r8_network.node[23].core_layer 	interests[23] 	12050
scalar tree_4_3_u00_r8_network.node[23].core_layer 	data[23] 	9131
scalar tree_4_3_u00_r8_network.node[23].content_store 	p_hit[23] 	0.24224066390041
scalar tree_4_3_u00_r8_network.node[23].content_store 	hits[23] 	2919
scalar tree_4_3_u00_r8_network.node[23].content_store 	misses[23] 	9131
scalar tree_4_3_u00_r8_network.node[23].content_store 	decision_yes[23] 	95
scalar tree_4_3_u00_r8_network.node[23].content_store 	decision_no[23] 	9036
scalar tree_4_3_u00_r8_network.node[23].content_store 	decision_ratio[23] 	0.010404117840324
scalar tree_4_3_u00_r8_network.node[24].core_layer 	interests[24] 	12065
scalar tree_4_3_u00_r8_network.node[24].core_layer 	data[24] 	9060
scalar tree_4_3_u00_r8_network.node[24].content_store 	p_hit[24] 	0.24906755076668
scalar tree_4_3_u00_r8_network.node[24].content_store 	hits[24] 	3005
scalar tree_4_3_u00_r8_network.node[24].content_store 	misses[24] 	9060
scalar tree_4_3_u00_r8_network.node[24].content_store 	decision_yes[24] 	98
scalar tree_4_3_u00_r8_network.node[24].content_store 	decision_no[24] 	8962
scalar tree_4_3_u00_r8_network.node[24].content_store 	decision_ratio[24] 	0.010816777041943
scalar tree_4_3_u00_r8_network.node[25].core_layer 	interests[25] 	12066
scalar tree_4_3_u00_r8_network.node[25].core_layer 	data[25] 	9082
scalar tree_4_3_u00_r8_network.node[25].content_store 	p_hit[25] 	0.24730648102105
scalar tree_4_3_u00_r8_network.node[25].content_store 	hits[25] 	2984
scalar tree_4_3_u00_r8_network.node[25].content_store 	misses[25] 	9082
scalar tree_4_3_u00_r8_network.node[25].content_store 	decision_yes[25] 	93
scalar tree_4_3_u00_r8_network.node[25].content_store 	decision_no[25] 	8989
scalar tree_4_3_u00_r8_network.node[25].content_store 	decision_ratio[25] 	0.01024003523453
scalar tree_4_3_u00_r8_network.node[26].core_layer 	interests[26] 	11990
scalar tree_4_3_u00_r8_network.node[26].core_layer 	data[26] 	9050
scalar tree_4_3_u00_r8_network.node[26].content_store 	p_hit[26] 	0.24528773978315
scalar tree_4_3_u00_r8_network.node[26].content_store 	hits[26] 	2941
scalar tree_4_3_u00_r8_network.node[26].content_store 	misses[26] 	9049
scalar tree_4_3_u00_r8_network.node[26].content_store 	decision_yes[26] 	88
scalar tree_4_3_u00_r8_network.node[26].content_store 	decision_no[26] 	8962
scalar tree_4_3_u00_r8_network.node[26].content_store 	decision_ratio[26] 	0.0097237569060773
scalar tree_4_3_u00_r8_network.node[27].core_layer 	interests[27] 	12051
scalar tree_4_3_u00_r8_network.node[27].core_layer 	data[27] 	9160
scalar tree_4_3_u00_r8_network.node[27].content_store 	p_hit[27] 	0.23989710397477
scalar tree_4_3_u00_r8_network.node[27].content_store 	hits[27] 	2891
scalar tree_4_3_u00_r8_network.node[27].content_store 	misses[27] 	9160
scalar tree_4_3_u00_r8_network.node[27].content_store 	decision_yes[27] 	92
scalar tree_4_3_u00_r8_network.node[27].content_store 	decision_no[27] 	9068
scalar tree_4_3_u00_r8_network.node[27].content_store 	decision_ratio[27] 	0.010043668122271
scalar tree_4_3_u00_r8_network.node[28].core_layer 	interests[28] 	11958
scalar tree_4_3_u00_r8_network.node[28].core_layer 	data[28] 	9090
scalar tree_4_3_u00_r8_network.node[28].content_store 	p_hit[28] 	0.2397558120087
scalar tree_4_3_u00_r8_network.node[28].content_store 	hits[28] 	2867
scalar tree_4_3_u00_r8_network.node[28].content_store 	misses[28] 	9091
scalar tree_4_3_u00_r8_network.node[28].content_store 	decision_yes[28] 	93
scalar tree_4_3_u00_r8_network.node[28].content_store 	decision_no[28] 	8997
scalar tree_4_3_u00_r8_network.node[28].content_store 	decision_ratio[28] 	0.01023102310231
scalar tree_4_3_u00_r8_network.node[29].core_layer 	interests[29] 	11878
scalar tree_4_3_u00_r8_network.node[29].core_layer 	data[29] 	8959
scalar tree_4_3_u00_r8_network.node[29].content_store 	p_hit[29] 	0.24574844249874
scalar tree_4_3_u00_r8_network.node[29].content_store 	hits[29] 	2919
scalar tree_4_3_u00_r8_network.node[29].content_store 	misses[29] 	8959
scalar tree_4_3_u00_r8_network.node[29].content_store 	decision_yes[29] 	71
scalar tree_4_3_u00_r8_network.node[29].content_store 	decision_no[29] 	8888
scalar tree_4_3_u00_r8_network.node[29].content_store 	decision_ratio[29] 	0.00792499162853
scalar tree_4_3_u00_r8_network.node[30].core_layer 	interests[30] 	11850
scalar tree_4_3_u00_r8_network.node[30].core_layer 	data[30] 	8918
scalar tree_4_3_u00_r8_network.node[30].content_store 	p_hit[30] 	0.24751054852321
scalar tree_4_3_u00_r8_network.node[30].content_store 	hits[30] 	2933
scalar tree_4_3_u00_r8_network.node[30].content_store 	misses[30] 	8917
scalar tree_4_3_u00_r8_network.node[30].content_store 	decision_yes[30] 	106
scalar tree_4_3_u00_r8_network.node[30].content_store 	decision_no[30] 	8812
scalar tree_4_3_u00_r8_network.node[30].content_store 	decision_ratio[30] 	0.011886073110563
scalar tree_4_3_u00_r8_network.node[31].core_layer 	interests[31] 	12005
scalar tree_4_3_u00_r8_network.node[31].core_layer 	data[31] 	9020
scalar tree_4_3_u00_r8_network.node[31].content_store 	p_hit[31] 	0.24856309870887
scalar tree_4_3_u00_r8_network.node[31].content_store 	hits[31] 	2984
scalar tree_4_3_u00_r8_network.node[31].content_store 	misses[31] 	9021
scalar tree_4_3_u00_r8_network.node[31].content_store 	decision_yes[31] 	95
scalar tree_4_3_u00_r8_network.node[31].content_store 	decision_no[31] 	8925
scalar tree_4_3_u00_r8_network.node[31].content_store 	decision_ratio[31] 	0.010532150776053
scalar tree_4_3_u00_r8_network.node[32].core_layer 	interests[32] 	12068
scalar tree_4_3_u00_r8_network.node[32].core_layer 	data[32] 	9066
scalar tree_4_3_u00_r8_network.node[32].content_store 	p_hit[32] 	0.24875704342062
scalar tree_4_3_u00_r8_network.node[32].content_store 	hits[32] 	3002
scalar tree_4_3_u00_r8_network.node[32].content_store 	misses[32] 	9066
scalar tree_4_3_u00_r8_network.node[32].content_store 	decision_yes[32] 	85
scalar tree_4_3_u00_r8_network.node[32].content_store 	decision_no[32] 	8981
scalar tree_4_3_u00_r8_network.node[32].content_store 	decision_ratio[32] 	0.0093756893889257
scalar tree_4_3_u00_r8_network.node[33].core_layer 	interests[33] 	12043
scalar tree_4_3_u00_r8_network.node[33].core_layer 	data[33] 	9129
scalar tree_4_3_u00_r8_network.node[33].content_store 	p_hit[33] 	0.2419662874699
scalar tree_4_3_u00_r8_network.node[33].content_store 	hits[33] 	2914
scalar tree_4_3_u00_r8_network.node[33].content_store 	misses[33] 	9129
scalar tree_4_3_u00_r8_network.node[33].content_store 	decision_yes[33] 	85
scalar tree_4_3_u00_r8_network.node[33].content_store 	decision_no[33] 	9044
scalar tree_4_3_u00_r8_network.node[33].content_store 	decision_ratio[33] 	0.0093109869646183
scalar tree_4_3_u00_r8_network.node[34].core_layer 	interests[34] 	12014
scalar tree_4_3_u00_r8_network.node[34].core_layer 	data[34] 	9266
scalar tree_4_3_u00_r8_network.node[34].content_store 	p_hit[34] 	0.22864990844015
scalar tree_4_3_u00_r8_network.node[34].content_store 	hits[34] 	2747
scalar tree_4_3_u00_r8_network.node[34].content_store 	misses[34] 	9267
scalar tree_4_3_u00_r8_network.node[34].content_store 	decision_yes[34] 	89
scalar tree_4_3_u00_r8_network.node[34].content_store 	decision_no[34] 	9177
scalar tree_4_3_u00_r8_network.node[34].content_store 	decision_ratio[34] 	0.0096050075545003
scalar tree_4_3_u00_r8_network.node[35].core_layer 	interests[35] 	12014
scalar tree_4_3_u00_r8_network.node[35].core_layer 	data[35] 	9238
scalar tree_4_3_u00_r8_network.node[35].content_store 	p_hit[35] 	0.23106375894789
scalar tree_4_3_u00_r8_network.node[35].content_store 	hits[35] 	2776
scalar tree_4_3_u00_r8_network.node[35].content_store 	misses[35] 	9238
scalar tree_4_3_u00_r8_network.node[35].content_store 	decision_yes[35] 	104
scalar tree_4_3_u00_r8_network.node[35].content_store 	decision_no[35] 	9134
scalar tree_4_3_u00_r8_network.node[35].content_store 	decision_ratio[35] 	0.011257848019052
scalar tree_4_3_u00_r8_network.node[36].core_layer 	interests[36] 	12075
scalar tree_4_3_u00_r8_network.node[36].core_layer 	data[36] 	9152
scalar tree_4_3_u00_r8_network.node[36].content_store 	p_hit[36] 	0.24198757763975
scalar tree_4_3_u00_r8_network.node[36].content_store 	hits[36] 	2922
scalar tree_4_3_u00_r8_network.node[36].content_store 	misses[36] 	9153
scalar tree_4_3_u00_r8_network.node[36].content_store 	decision_yes[36] 	91
scalar tree_4_3_u00_r8_network.node[36].content_store 	decision_no[36] 	9061
scalar tree_4_3_u00_r8_network.node[36].content_store 	decision_ratio[36] 	0.0099431818181818
scalar tree_4_3_u00_r8_network.node[37].core_layer 	interests[37] 	11982
scalar tree_4_3_u00_r8_network.node[37].core_layer 	data[37] 	9136
scalar tree_4_3_u00_r8_network.node[37].content_store 	p_hit[37] 	0.23752295109331
scalar tree_4_3_u00_r8_network.node[37].content_store 	hits[37] 	2846
scalar tree_4_3_u00_r8_network.node[37].content_store 	misses[37] 	9136
scalar tree_4_3_u00_r8_network.node[37].content_store 	decision_yes[37] 	101
scalar tree_4_3_u00_r8_network.node[37].content_store 	decision_no[37] 	9035
scalar tree_4_3_u00_r8_network.node[37].content_store 	decision_ratio[37] 	0.011055166374781
scalar tree_4_3_u00_r8_network.node[38].core_layer 	interests[38] 	12101
scalar tree_4_3_u00_r8_network.node[38].core_layer 	data[38] 	9041
scalar tree_4_3_u00_r8_network.node[38].content_store 	p_hit[38] 	0.25287166349888
scalar tree_4_3_u00_r8_network.node[38].content_store 	hits[38] 	3060
scalar tree_4_3_u00_r8_network.node[38].content_store 	misses[38] 	9041
scalar tree_4_3_u00_r8_network.node[38].content_store 	decision_yes[38] 	82
scalar tree_4_3_u00_r8_network.node[38].content_store 	decision_no[38] 	8959
scalar tree_4_3_u00_r8_network.node[38].content_store 	decision_ratio[38] 	0.009069793164473
scalar tree_4_3_u00_r8_network.node[39].core_layer 	interests[39] 	12051
scalar tree_4_3_u00_r8_network.node[39].core_layer 	data[39] 	9058
scalar tree_4_3_u00_r8_network.node[39].content_store 	p_hit[39] 	0.24836113185628
scalar tree_4_3_u00_r8_network.node[39].content_store 	hits[39] 	2993
scalar tree_4_3_u00_r8_network.node[39].content_store 	misses[39] 	9058
scalar tree_4_3_u00_r8_network.node[39].content_store 	decision_yes[39] 	107
scalar tree_4_3_u00_r8_network.node[39].content_store 	decision_no[39] 	8951
scalar tree_4_3_u00_r8_network.node[39].content_store 	decision_ratio[39] 	0.011812762199161
scalar tree_4_3_u00_r8_network.client[13] 	hdistance[13] 	2.8491283152937
scalar tree_4_3_u00_r8_network.client[13] 	downloads[13] 	12103
scalar tree_4_3_u00_r8_network.client[13] 	avg_time[13] 	0.004328850371
scalar tree_4_3_u00_r8_network.client[14] 	hdistance[14] 	2.8522089026742
scalar tree_4_3_u00_r8_network.client[14] 	downloads[14] 	11929
scalar tree_4_3_u00_r8_network.client[14] 	avg_time[14] 	0.004346661295
scalar tree_4_3_u00_r8_network.client[15] 	hdistance[15] 	2.8799538600972
scalar tree_4_3_u00_r8_network.client[15] 	downloads[15] 	12137
scalar tree_4_3_u00_r8_network.client[15] 	avg_time[15] 	0.004372411927
scalar tree_4_3_u00_r8_network.client[16] 	hdistance[16] 	2.8524453346687
scalar tree_4_3_u00_r8_network.client[16] 	downloads[16] 	11982
scalar tree_4_3_u00_r8_network.client[16] 	avg_time[16] 	0.004339506289
scalar tree_4_3_u00_r8_network.client[17] 	hdistance[17] 	2.8412093495935
scalar tree_4_3_u00_r8_network.client[17] 	downloads[17] 	11808
scalar tree_4_3_u00_r8_network.client[17] 	avg_time[17] 	0.004322998377
scalar tree_4_3_u00_r8_network.client[18] 	hdistance[18] 	2.8635148680254
scalar tree_4_3_u00_r8_network.client[18] 	downloads[18] 	11972
scalar tree_4_3_u00_r8_network.client[18] 	avg_time[18] 	0.004353154387
scalar tree_4_3_u00_r8_network.client[19] 	hdistance[19] 	2.8649803166094
scalar tree_4_3_u00_r8_network.client[19] 	downloads[19] 	11939
scalar tree_4_3_u00_r8_network.client[19] 	avg_time[19] 	0.004354465576
scalar tree_4_3_u00_r8_network.client[20] 	hdistance[20] 	2.8616128211651
scalar tree_4_3_u00_r8_network.client[20] 	downloads[20] 	11793
scalar tree_4_3_u00_r8_network.client[20] 	avg_time[20] 	0.004352239922
scalar tree_4_3_u00_r8_network.client[21] 	hdistance[21] 	2.885757550265
scalar tree_4_3_u00_r8_network.client[21] 	downloads[21] 	11887
scalar tree_4_3_u00_r8_network.client[21] 	avg_time[21] 	0.004390841227
scalar tree_4_3_u00_r8_network.client[22] 	hdistance[22] 	2.8718716221834
scalar tree_4_3_u00_r8_network.client[22] 	downloads[22] 	12027
scalar tree_4_3_u00_r8_network.client[22] 	avg_time[22] 	0.004374986541
scalar tree_4_3_u00_r8_network.client[23] 	hdistance[23] 	2.8416597510373
scalar tree_4_3_u00_r8_network.client[23] 	downloads[23] 	12050
scalar tree_4_3_u00_r8_network.client[23] 	avg_time[23] 	0.004329789526
scalar tree_4_3_u00_r8_network.client[24] 	hdistance[24] 	2.8402818068794
scalar tree_4_3_u00_r8_network.client[24] 	downloads[24] 	12065
scalar tree_4_3_u00_r8_network.client[24] 	avg_time[24] 	0.00431993068
scalar tree_4_3_u00_r8_network.client[25] 	hdistance[25] 	2.819741422178
scalar tree_4_3_u00_r8_network.client[25] 	downloads[25] 	12066
scalar tree_4_3_u00_r8_network.client[25] 	avg_time[25] 	0.004293549105
scalar tree_4_3_u00_r8_network.client[26] 	hdistance[26] 	2.8360436994413
scalar tree_4_3_u00_r8_network.client[26] 	downloads[26] 	11991
scalar tree_4_3_u00_r8_network.client[26] 	avg_time[26] 	0.004317568498
scalar tree_4_3_u00_r8_network.client[27] 	hdistance[27] 	2.8461538461538
scalar tree_4_3_u00_r8_network.client[27] 	downloads[27] 	12051
scalar tree_4_3_u00_r8_network.client[27] 	avg_time[27] 	0.004333247371
scalar tree_4_3_u00_r8_network.client[28] 	hdistance[28] 	2.8447771180062
scalar tree_4_3_u00_r8_network.client[28] 	downloads[28] 	11957
scalar tree_4_3_u00_r8_network.client[28] 	avg_time[28] 	0.004330180162
scalar tree_4_3_u00_r8_network.client[29] 	hdistance[29] 	2.8365886512881
scalar tree_4_3_u00_r8_network.client[29] 	downloads[29] 	11878
scalar tree_4_3_u00_r8_network.client[29] 	avg_time[29] 	0.00431899184
scalar tree_4_3_u00_r8_network.client[30] 	hdistance[30] 	2.8245717660957
scalar tree_4_3_u00_r8_network.client[30] 	downloads[30] 	11851
scalar tree_4_3_u00_r8_network.client[30] 	avg_time[30] 	0.004296680881
scalar tree_4_3_u00_r8_network.client[31] 	hdistance[31] 	2.8494668443852
scalar tree_4_3_u00_r8_network.client[31] 	downloads[31] 	12004
scalar tree_4_3_u00_r8_network.client[31] 	avg_time[31] 	0.004331719752
scalar tree_4_3_u00_r8_network.client[32] 	hdistance[32] 	2.8450447464368
scalar tree_4_3_u00_r8_network.client[32] 	downloads[32] 	12068
scalar tree_4_3_u00_r8_network.client[32] 	avg_time[32] 	0.004327806049
scalar tree_4_3_u00_r8_network.client[33] 	hdistance[33] 	2.8472141492983
scalar tree_4_3_u00_r8_network.client[33] 	downloads[33] 	12043
scalar tree_4_3_u00_r8_network.client[33] 	avg_time[33] 	0.004330448056
scalar tree_4_3_u00_r8_network.client[34] 	hdistance[34] 	2.8649796054275
scalar tree_4_3_u00_r8_network.client[34] 	downloads[34] 	12013
scalar tree_4_3_u00_r8_network.client[34] 	avg_time[34] 	0.004364670457
scalar tree_4_3_u00_r8_network.client[35] 	hdistance[35] 	2.8496753787248
scalar tree_4_3_u00_r8_network.client[35] 	downloads[35] 	12014
scalar tree_4_3_u00_r8_network.client[35] 	avg_time[35] 	0.004344428469
scalar tree_4_3_u00_r8_network.client[36] 	hdistance[36] 	2.8473579592513
scalar tree_4_3_u00_r8_network.client[36] 	downloads[36] 	12074
scalar tree_4_3_u00_r8_network.client[36] 	avg_time[36] 	0.004333448218
scalar tree_4_3_u00_r8_network.client[37] 	hdistance[37] 	2.8346686696712
scalar tree_4_3_u00_r8_network.client[37] 	downloads[37] 	11982
scalar tree_4_3_u00_r8_network.client[37] 	avg_time[37] 	0.004322480762
scalar tree_4_3_u00_r8_network.client[38] 	hdistance[38] 	2.8247252293199
scalar tree_4_3_u00_r8_network.client[38] 	downloads[38] 	12101
scalar tree_4_3_u00_r8_network.client[38] 	avg_time[38] 	0.004296997208
scalar tree_4_3_u00_r8_network.client[39] 	hdistance[39] 	2.8377727989378
scalar tree_4_3_u00_r8_network.client[39] 	downloads[39] 	12051
scalar tree_4_3_u00_r8_network.client[39] 	avg_time[39] 	0.004315936881
