version 2
run General-17-20160819-19:11:16-9589
attr a 0.9
attr cd fix0.01
attr configname General
attr cr lru
attr datetime 20160819-19:11:16
attr experiment General
attr fsize 1
attr inifile hw5115/scenario_A/SPR-FIX0.01.ini
attr iterationvars "$name=tree_4_3, $un=00, $rep=18, $cd=fix0.01, $cr=lru, $fsize=1, $a=0.9, $sl=spr, $ttl=1000, $variance=0.05"
attr iterationvars2 "$name=tree_4_3, $un=00, $rep=18, $cd=fix0.01, $cr=lru, $fsize=1, $a=0.9, $sl=spr, $ttl=1000, $variance=0.05, $repetition=0"
attr measurement "$name=tree_4_3, $un=00, $rep=18, $cd=fix0.01, $cr=lru, $fsize=1, $a=0.9, $sl=spr, $ttl=1000, $variance=0.05"
attr name tree_4_3
attr network networks.${name}_u${un}_r${rep}_network
attr processid 9589
attr rep 18
attr repetition 0
attr replication #0
attr resultdir results
attr runnumber 17
attr seedset 18
attr sl spr
attr ttl 1000
attr un 00
attr variance 0.05

scalar . 	a 	0.9
scalar . 	fsize 	1
scalar . 	rep 	18
scalar . 	ttl 	1000
scalar . 	un 	00
scalar . 	variance 	0.05
scalar tree_4_3_u00_r18_network.content_distribution 	repo-0 	0
scalar tree_4_3_u00_r18_network.content_distribution 	client-0 	13
scalar tree_4_3_u00_r18_network.content_distribution 	client-1 	14
scalar tree_4_3_u00_r18_network.content_distribution 	client-2 	15
scalar tree_4_3_u00_r18_network.content_distribution 	client-3 	16
scalar tree_4_3_u00_r18_network.content_distribution 	client-4 	17
scalar tree_4_3_u00_r18_network.content_distribution 	client-5 	18
scalar tree_4_3_u00_r18_network.content_distribution 	client-6 	19
scalar tree_4_3_u00_r18_network.content_distribution 	client-7 	20
scalar tree_4_3_u00_r18_network.content_distribution 	client-8 	21
scalar tree_4_3_u00_r18_network.content_distribution 	client-9 	22
scalar tree_4_3_u00_r18_network.content_distribution 	client-10 	23
scalar tree_4_3_u00_r18_network.content_distribution 	client-11 	24
scalar tree_4_3_u00_r18_network.content_distribution 	client-12 	25
scalar tree_4_3_u00_r18_network.content_distribution 	client-13 	26
scalar tree_4_3_u00_r18_network.content_distribution 	client-14 	27
scalar tree_4_3_u00_r18_network.content_distribution 	client-15 	28
scalar tree_4_3_u00_r18_network.content_distribution 	client-16 	29
scalar tree_4_3_u00_r18_network.content_distribution 	client-17 	30
scalar tree_4_3_u00_r18_network.content_distribution 	client-18 	31
scalar tree_4_3_u00_r18_network.content_distribution 	client-19 	32
scalar tree_4_3_u00_r18_network.content_distribution 	client-20 	33
scalar tree_4_3_u00_r18_network.content_distribution 	client-21 	34
scalar tree_4_3_u00_r18_network.content_distribution 	client-22 	35
scalar tree_4_3_u00_r18_network.content_distribution 	client-23 	36
scalar tree_4_3_u00_r18_network.content_distribution 	client-24 	37
scalar tree_4_3_u00_r18_network.content_distribution 	client-25 	38
scalar tree_4_3_u00_r18_network.content_distribution 	client-26 	39
scalar tree_4_3_u00_r18_network.content_distribution 	repo-0_card 	100000
scalar tree_4_3_u00_r18_network.content_distribution 	repo-0_price 	0
scalar tree_4_3_u00_r18_network.statistics 	stabilization_time 	2212.9
scalar tree_4_3_u00_r18_network.statistics 	p_hit 	0.17705359605374
scalar tree_4_3_u00_r18_network.statistics 	interests 	25682.725
scalar tree_4_3_u00_r18_network.statistics 	data 	17583.825
scalar tree_4_3_u00_r18_network.statistics 	hdistance 	2.8519912475246
scalar tree_4_3_u00_r18_network.statistics 	avg_time 	0.004342421759
scalar tree_4_3_u00_r18_network.statistics 	downloads 	323956
scalar tree_4_3_u00_r18_network.statistics 	total_cost 	0
scalar tree_4_3_u00_r18_network.statistics 	total_replicas 	100000
scalar tree_4_3_u00_r18_network.statistics 	inner_hit 	0.31928718714887
scalar tree_4_3_u00_r18_network.node[0].core_layer 	interests[0] 	224857
scalar tree_4_3_u00_r18_network.node[0].core_layer 	repo_load[0] 	220521
scalar tree_4_3_u00_r18_network.node[0].core_layer 	data[0] 	0
scalar tree_4_3_u00_r18_network.node[0].core_layer 	repo_int[0] 	220521
scalar tree_4_3_u00_r18_network.node[0].content_store 	p_hit[0] 	0.019283366761987
scalar tree_4_3_u00_r18_network.node[0].content_store 	hits[0] 	4336
scalar tree_4_3_u00_r18_network.node[0].content_store 	misses[0] 	220521
scalar tree_4_3_u00_r18_network.node[0].content_store 	decision_yes[0] 	2192
scalar tree_4_3_u00_r18_network.node[0].content_store 	decision_no[0] 	218329
scalar tree_4_3_u00_r18_network.node[0].content_store 	decision_ratio[0] 	0.0099400964080518
scalar tree_4_3_u00_r18_network.node[1].core_layer 	interests[1] 	77204
scalar tree_4_3_u00_r18_network.node[1].core_layer 	data[1] 	74936
scalar tree_4_3_u00_r18_network.node[1].content_store 	p_hit[1] 	0.029363763535568
scalar tree_4_3_u00_r18_network.node[1].content_store 	hits[1] 	2267
scalar tree_4_3_u00_r18_network.node[1].content_store 	misses[1] 	74937
scalar tree_4_3_u00_r18_network.node[1].content_store 	decision_yes[1] 	743
scalar tree_4_3_u00_r18_network.node[1].content_store 	decision_no[1] 	74193
scalar tree_4_3_u00_r18_network.node[1].content_store 	decision_ratio[1] 	0.0099151275755311
scalar tree_4_3_u00_r18_network.node[2].core_layer 	interests[2] 	77022
scalar tree_4_3_u00_r18_network.node[2].core_layer 	data[2] 	74721
scalar tree_4_3_u00_r18_network.node[2].content_store 	p_hit[2] 	0.029861597984991
scalar tree_4_3_u00_r18_network.node[2].content_store 	hits[2] 	2300
scalar tree_4_3_u00_r18_network.node[2].content_store 	misses[2] 	74722
scalar tree_4_3_u00_r18_network.node[2].content_store 	decision_yes[2] 	711
scalar tree_4_3_u00_r18_network.node[2].content_store 	decision_no[2] 	74010
scalar tree_4_3_u00_r18_network.node[2].content_store 	decision_ratio[2] 	0.0095153972778737
scalar tree_4_3_u00_r18_network.node[3].core_layer 	interests[3] 	77224
scalar tree_4_3_u00_r18_network.node[3].core_layer 	data[3] 	75201
scalar tree_4_3_u00_r18_network.node[3].content_store 	p_hit[3] 	0.026170620532477
scalar tree_4_3_u00_r18_network.node[3].content_store 	hits[3] 	2021
scalar tree_4_3_u00_r18_network.node[3].content_store 	misses[3] 	75203
scalar tree_4_3_u00_r18_network.node[3].content_store 	decision_yes[3] 	765
scalar tree_4_3_u00_r18_network.node[3].content_store 	decision_no[3] 	74436
scalar tree_4_3_u00_r18_network.node[3].content_store 	decision_ratio[3] 	0.010172737064667
scalar tree_4_3_u00_r18_network.node[4].core_layer 	interests[4] 	27720
scalar tree_4_3_u00_r18_network.node[4].core_layer 	data[4] 	25963
scalar tree_4_3_u00_r18_network.node[4].content_store 	p_hit[4] 	0.063383838383838
scalar tree_4_3_u00_r18_network.node[4].content_store 	hits[4] 	1757
scalar tree_4_3_u00_r18_network.node[4].content_store 	misses[4] 	25963
scalar tree_4_3_u00_r18_network.node[4].content_store 	decision_yes[4] 	286
scalar tree_4_3_u00_r18_network.node[4].content_store 	decision_no[4] 	25677
scalar tree_4_3_u00_r18_network.node[4].content_store 	decision_ratio[4] 	0.011015676154528
scalar tree_4_3_u00_r18_network.node[5].core_layer 	interests[5] 	27208
scalar tree_4_3_u00_r18_network.node[5].core_layer 	data[5] 	25522
scalar tree_4_3_u00_r18_network.node[5].content_store 	p_hit[5] 	0.061967068509262
scalar tree_4_3_u00_r18_network.node[5].content_store 	hits[5] 	1686
scalar tree_4_3_u00_r18_network.node[5].content_store 	misses[5] 	25522
scalar tree_4_3_u00_r18_network.node[5].content_store 	decision_yes[5] 	270
scalar tree_4_3_u00_r18_network.node[5].content_store 	decision_no[5] 	25252
scalar tree_4_3_u00_r18_network.node[5].content_store 	decision_ratio[5] 	0.010579108220359
scalar tree_4_3_u00_r18_network.node[6].core_layer 	interests[6] 	27488
scalar tree_4_3_u00_r18_network.node[6].core_layer 	data[6] 	25720
scalar tree_4_3_u00_r18_network.node[6].content_store 	p_hit[6] 	0.064318975552969
scalar tree_4_3_u00_r18_network.node[6].content_store 	hits[6] 	1768
scalar tree_4_3_u00_r18_network.node[6].content_store 	misses[6] 	25720
scalar tree_4_3_u00_r18_network.node[6].content_store 	decision_yes[6] 	234
scalar tree_4_3_u00_r18_network.node[6].content_store 	decision_no[6] 	25486
scalar tree_4_3_u00_r18_network.node[6].content_store 	decision_ratio[6] 	0.0090979782270607
scalar tree_4_3_u00_r18_network.node[7].core_layer 	interests[7] 	27431
scalar tree_4_3_u00_r18_network.node[7].core_layer 	data[7] 	25751
scalar tree_4_3_u00_r18_network.node[7].content_store 	p_hit[7] 	0.061208122197514
scalar tree_4_3_u00_r18_network.node[7].content_store 	hits[7] 	1679
scalar tree_4_3_u00_r18_network.node[7].content_store 	misses[7] 	25752
scalar tree_4_3_u00_r18_network.node[7].content_store 	decision_yes[7] 	272
scalar tree_4_3_u00_r18_network.node[7].content_store 	decision_no[7] 	25479
scalar tree_4_3_u00_r18_network.node[7].content_store 	decision_ratio[7] 	0.010562696594307
scalar tree_4_3_u00_r18_network.node[8].core_layer 	interests[8] 	27167
scalar tree_4_3_u00_r18_network.node[8].core_layer 	data[8] 	25498
scalar tree_4_3_u00_r18_network.node[8].content_store 	p_hit[8] 	0.061471638384805
scalar tree_4_3_u00_r18_network.node[8].content_store 	hits[8] 	1670
scalar tree_4_3_u00_r18_network.node[8].content_store 	misses[8] 	25497
scalar tree_4_3_u00_r18_network.node[8].content_store 	decision_yes[8] 	237
scalar tree_4_3_u00_r18_network.node[8].content_store 	decision_no[8] 	25261
scalar tree_4_3_u00_r18_network.node[8].content_store 	decision_ratio[8] 	0.0092948466546396
scalar tree_4_3_u00_r18_network.node[9].core_layer 	interests[9] 	27538
scalar tree_4_3_u00_r18_network.node[9].core_layer 	data[9] 	25774
scalar tree_4_3_u00_r18_network.node[9].content_store 	p_hit[9] 	0.064056939501779
scalar tree_4_3_u00_r18_network.node[9].content_store 	hits[9] 	1764
scalar tree_4_3_u00_r18_network.node[9].content_store 	misses[9] 	25774
scalar tree_4_3_u00_r18_network.node[9].content_store 	decision_yes[9] 	296
scalar tree_4_3_u00_r18_network.node[9].content_store 	decision_no[9] 	25478
scalar tree_4_3_u00_r18_network.node[9].content_store 	decision_ratio[9] 	0.011484441685419
scalar tree_4_3_u00_r18_network.node[10].core_layer 	interests[10] 	27629
scalar tree_4_3_u00_r18_network.node[10].core_layer 	data[10] 	25891
scalar tree_4_3_u00_r18_network.node[10].content_store 	p_hit[10] 	0.062904918744797
scalar tree_4_3_u00_r18_network.node[10].content_store 	hits[10] 	1738
scalar tree_4_3_u00_r18_network.node[10].content_store 	misses[10] 	25891
scalar tree_4_3_u00_r18_network.node[10].content_store 	decision_yes[10] 	248
scalar tree_4_3_u00_r18_network.node[10].content_store 	decision_no[10] 	25643
scalar tree_4_3_u00_r18_network.node[10].content_store 	decision_ratio[10] 	0.0095786180526052
scalar tree_4_3_u00_r18_network.node[11].core_layer 	interests[11] 	27269
scalar tree_4_3_u00_r18_network.node[11].core_layer 	data[11] 	25568
scalar tree_4_3_u00_r18_network.node[11].content_store 	p_hit[11] 	0.062378525065092
scalar tree_4_3_u00_r18_network.node[11].content_store 	hits[11] 	1701
scalar tree_4_3_u00_r18_network.node[11].content_store 	misses[11] 	25568
scalar tree_4_3_u00_r18_network.node[11].content_store 	decision_yes[11] 	246
scalar tree_4_3_u00_r18_network.node[11].content_store 	decision_no[11] 	25322
scalar tree_4_3_u00_r18_network.node[11].content_store 	decision_ratio[11] 	0.0096214017521902
scalar tree_4_3_u00_r18_network.node[12].core_layer 	interests[12] 	27592
scalar tree_4_3_u00_r18_network.node[12].core_layer 	data[12] 	25765
scalar tree_4_3_u00_r18_network.node[12].content_store 	p_hit[12] 	0.066214844882575
scalar tree_4_3_u00_r18_network.node[12].content_store 	hits[12] 	1827
scalar tree_4_3_u00_r18_network.node[12].content_store 	misses[12] 	25765
scalar tree_4_3_u00_r18_network.node[12].content_store 	decision_yes[12] 	263
scalar tree_4_3_u00_r18_network.node[12].content_store 	decision_no[12] 	25502
scalar tree_4_3_u00_r18_network.node[12].content_store 	decision_ratio[12] 	0.010207646031438
scalar tree_4_3_u00_r18_network.node[13].core_layer 	interests[13] 	12096
scalar tree_4_3_u00_r18_network.node[13].core_layer 	data[13] 	9252
scalar tree_4_3_u00_r18_network.node[13].content_store 	p_hit[13] 	0.23511904761905
scalar tree_4_3_u00_r18_network.node[13].content_store 	hits[13] 	2844
scalar tree_4_3_u00_r18_network.node[13].content_store 	misses[13] 	9252
scalar tree_4_3_u00_r18_network.node[13].content_store 	decision_yes[13] 	94
scalar tree_4_3_u00_r18_network.node[13].content_store 	decision_no[13] 	9158
scalar tree_4_3_u00_r18_network.node[13].content_store 	decision_ratio[13] 	0.010159965412884
scalar tree_4_3_u00_r18_network.node[14].core_layer 	interests[14] 	12151
scalar tree_4_3_u00_r18_network.node[14].core_layer 	data[14] 	9296
scalar tree_4_3_u00_r18_network.node[14].content_store 	p_hit[14] 	0.23487778783639
scalar tree_4_3_u00_r18_network.node[14].content_store 	hits[14] 	2854
scalar tree_4_3_u00_r18_network.node[14].content_store 	misses[14] 	9297
scalar tree_4_3_u00_r18_network.node[14].content_store 	decision_yes[14] 	93
scalar tree_4_3_u00_r18_network.node[14].content_store 	decision_no[14] 	9203
scalar tree_4_3_u00_r18_network.node[14].content_store 	decision_ratio[14] 	0.01000430292599
scalar tree_4_3_u00_r18_network.node[15].core_layer 	interests[15] 	11923
scalar tree_4_3_u00_r18_network.node[15].core_layer 	data[15] 	9172
scalar tree_4_3_u00_r18_network.node[15].content_store 	p_hit[15] 	0.23073052084207
scalar tree_4_3_u00_r18_network.node[15].content_store 	hits[15] 	2751
scalar tree_4_3_u00_r18_network.node[15].content_store 	misses[15] 	9172
scalar tree_4_3_u00_r18_network.node[15].content_store 	decision_yes[15] 	90
scalar tree_4_3_u00_r18_network.node[15].content_store 	decision_no[15] 	9082
scalar tree_4_3_u00_r18_network.node[15].content_store 	decision_ratio[15] 	0.0098124727431313
scalar tree_4_3_u00_r18_network.node[16].core_layer 	interests[16] 	11882
scalar tree_4_3_u00_r18_network.node[16].core_layer 	data[16] 	9110
scalar tree_4_3_u00_r18_network.node[16].content_store 	p_hit[16] 	0.23329405823935
scalar tree_4_3_u00_r18_network.node[16].content_store 	hits[16] 	2772
scalar tree_4_3_u00_r18_network.node[16].content_store 	misses[16] 	9110
scalar tree_4_3_u00_r18_network.node[16].content_store 	decision_yes[16] 	92
scalar tree_4_3_u00_r18_network.node[16].content_store 	decision_no[16] 	9018
scalar tree_4_3_u00_r18_network.node[16].content_store 	decision_ratio[16] 	0.010098792535675
scalar tree_4_3_u00_r18_network.node[17].core_layer 	interests[17] 	11874
scalar tree_4_3_u00_r18_network.node[17].core_layer 	data[17] 	9178
scalar tree_4_3_u00_r18_network.node[17].content_store 	p_hit[17] 	0.22696648138791
scalar tree_4_3_u00_r18_network.node[17].content_store 	hits[17] 	2695
scalar tree_4_3_u00_r18_network.node[17].content_store 	misses[17] 	9179
scalar tree_4_3_u00_r18_network.node[17].content_store 	decision_yes[17] 	91
scalar tree_4_3_u00_r18_network.node[17].content_store 	decision_no[17] 	9087
scalar tree_4_3_u00_r18_network.node[17].content_store 	decision_ratio[17] 	0.0099150141643059
scalar tree_4_3_u00_r18_network.node[18].core_layer 	interests[18] 	11874
scalar tree_4_3_u00_r18_network.node[18].core_layer 	data[18] 	8921
scalar tree_4_3_u00_r18_network.node[18].content_store 	p_hit[18] 	0.24877884453428
scalar tree_4_3_u00_r18_network.node[18].content_store 	hits[18] 	2954
scalar tree_4_3_u00_r18_network.node[18].content_store 	misses[18] 	8920
scalar tree_4_3_u00_r18_network.node[18].content_store 	decision_yes[18] 	101
scalar tree_4_3_u00_r18_network.node[18].content_store 	decision_no[18] 	8820
scalar tree_4_3_u00_r18_network.node[18].content_store 	decision_ratio[18] 	0.011321600717408
scalar tree_4_3_u00_r18_network.node[19].core_layer 	interests[19] 	12041
scalar tree_4_3_u00_r18_network.node[19].core_layer 	data[19] 	9218
scalar tree_4_3_u00_r18_network.node[19].content_store 	p_hit[19] 	0.23444896603272
scalar tree_4_3_u00_r18_network.node[19].content_store 	hits[19] 	2823
scalar tree_4_3_u00_r18_network.node[19].content_store 	misses[19] 	9218
scalar tree_4_3_u00_r18_network.node[19].content_store 	decision_yes[19] 	98
scalar tree_4_3_u00_r18_network.node[19].content_store 	decision_no[19] 	9120
scalar tree_4_3_u00_r18_network.node[19].content_store 	decision_ratio[19] 	0.01063137339987
scalar tree_4_3_u00_r18_network.node[20].core_layer 	interests[20] 	11972
scalar tree_4_3_u00_r18_network.node[20].core_layer 	data[20] 	9215
scalar tree_4_3_u00_r18_network.node[20].content_store 	p_hit[20] 	0.23028733711995
scalar tree_4_3_u00_r18_network.node[20].content_store 	hits[20] 	2757
scalar tree_4_3_u00_r18_network.node[20].content_store 	misses[20] 	9215
scalar tree_4_3_u00_r18_network.node[20].content_store 	decision_yes[20] 	94
scalar tree_4_3_u00_r18_network.node[20].content_store 	decision_no[20] 	9121
scalar tree_4_3_u00_r18_network.node[20].content_store 	decision_ratio[20] 	0.010200759631036
scalar tree_4_3_u00_r18_network.node[21].core_layer 	interests[21] 	11993
scalar tree_4_3_u00_r18_network.node[21].core_layer 	data[21] 	9055
scalar tree_4_3_u00_r18_network.node[21].content_store 	p_hit[21] 	0.24497623613775
scalar tree_4_3_u00_r18_network.node[21].content_store 	hits[21] 	2938
scalar tree_4_3_u00_r18_network.node[21].content_store 	misses[21] 	9055
scalar tree_4_3_u00_r18_network.node[21].content_store 	decision_yes[21] 	80
scalar tree_4_3_u00_r18_network.node[21].content_store 	decision_no[21] 	8975
scalar tree_4_3_u00_r18_network.node[21].content_store 	decision_ratio[21] 	0.0088348978464937
scalar tree_4_3_u00_r18_network.node[22].core_layer 	interests[22] 	12119
scalar tree_4_3_u00_r18_network.node[22].core_layer 	data[22] 	9082
scalar tree_4_3_u00_r18_network.node[22].content_store 	p_hit[22] 	0.25051571911874
scalar tree_4_3_u00_r18_network.node[22].content_store 	hits[22] 	3036
scalar tree_4_3_u00_r18_network.node[22].content_store 	misses[22] 	9083
scalar tree_4_3_u00_r18_network.node[22].content_store 	decision_yes[22] 	82
scalar tree_4_3_u00_r18_network.node[22].content_store 	decision_no[22] 	9000
scalar tree_4_3_u00_r18_network.node[22].content_store 	decision_ratio[22] 	0.0090288482713059
scalar tree_4_3_u00_r18_network.node[23].core_layer 	interests[23] 	12065
scalar tree_4_3_u00_r18_network.node[23].core_layer 	data[23] 	9206
scalar tree_4_3_u00_r18_network.node[23].content_store 	p_hit[23] 	0.23688354745131
scalar tree_4_3_u00_r18_network.node[23].content_store 	hits[23] 	2858
scalar tree_4_3_u00_r18_network.node[23].content_store 	misses[23] 	9207
scalar tree_4_3_u00_r18_network.node[23].content_store 	decision_yes[23] 	93
scalar tree_4_3_u00_r18_network.node[23].content_store 	decision_no[23] 	9113
scalar tree_4_3_u00_r18_network.node[23].content_store 	decision_ratio[23] 	0.010102107321312
scalar tree_4_3_u00_r18_network.node[24].core_layer 	interests[24] 	11813
scalar tree_4_3_u00_r18_network.node[24].core_layer 	data[24] 	9142
scalar tree_4_3_u00_r18_network.node[24].content_store 	p_hit[24] 	0.22602217895539
scalar tree_4_3_u00_r18_network.node[24].content_store 	hits[24] 	2670
scalar tree_4_3_u00_r18_network.node[24].content_store 	misses[24] 	9143
scalar tree_4_3_u00_r18_network.node[24].content_store 	decision_yes[24] 	79
scalar tree_4_3_u00_r18_network.node[24].content_store 	decision_no[24] 	9063
scalar tree_4_3_u00_r18_network.node[24].content_store 	decision_ratio[24] 	0.0086414351345439
scalar tree_4_3_u00_r18_network.node[25].core_layer 	interests[25] 	11831
scalar tree_4_3_u00_r18_network.node[25].core_layer 	data[25] 	9040
scalar tree_4_3_u00_r18_network.node[25].content_store 	p_hit[25] 	0.23590567154087
scalar tree_4_3_u00_r18_network.node[25].content_store 	hits[25] 	2791
scalar tree_4_3_u00_r18_network.node[25].content_store 	misses[25] 	9040
scalar tree_4_3_u00_r18_network.node[25].content_store 	decision_yes[25] 	85
scalar tree_4_3_u00_r18_network.node[25].content_store 	decision_no[25] 	8955
scalar tree_4_3_u00_r18_network.node[25].content_store 	decision_ratio[25] 	0.0094026548672566
scalar tree_4_3_u00_r18_network.node[26].core_layer 	interests[26] 	11759
scalar tree_4_3_u00_r18_network.node[26].core_layer 	data[26] 	8967
scalar tree_4_3_u00_r18_network.node[26].content_store 	p_hit[26] 	0.23743515605068
scalar tree_4_3_u00_r18_network.node[26].content_store 	hits[26] 	2792
scalar tree_4_3_u00_r18_network.node[26].content_store 	misses[26] 	8967
scalar tree_4_3_u00_r18_network.node[26].content_store 	decision_yes[26] 	77
scalar tree_4_3_u00_r18_network.node[26].content_store 	decision_no[26] 	8890
scalar tree_4_3_u00_r18_network.node[26].content_store 	decision_ratio[26] 	0.0085870413739266
scalar tree_4_3_u00_r18_network.node[27].core_layer 	interests[27] 	12134
scalar tree_4_3_u00_r18_network.node[27].core_layer 	data[27] 	9161
scalar tree_4_3_u00_r18_network.node[27].content_store 	p_hit[27] 	0.24509642327345
scalar tree_4_3_u00_r18_network.node[27].content_store 	hits[27] 	2974
scalar tree_4_3_u00_r18_network.node[27].content_store 	misses[27] 	9160
scalar tree_4_3_u00_r18_network.node[27].content_store 	decision_yes[27] 	77
scalar tree_4_3_u00_r18_network.node[27].content_store 	decision_no[27] 	9084
scalar tree_4_3_u00_r18_network.node[27].content_store 	decision_ratio[27] 	0.0084051959393079
scalar tree_4_3_u00_r18_network.node[28].core_layer 	interests[28] 	12078
scalar tree_4_3_u00_r18_network.node[28].core_layer 	data[28] 	9338
scalar tree_4_3_u00_r18_network.node[28].content_store 	p_hit[28] 	0.22685875144892
scalar tree_4_3_u00_r18_network.node[28].content_store 	hits[28] 	2740
scalar tree_4_3_u00_r18_network.node[28].content_store 	misses[28] 	9338
scalar tree_4_3_u00_r18_network.node[28].content_store 	decision_yes[28] 	83
scalar tree_4_3_u00_r18_network.node[28].content_store 	decision_no[28] 	9255
scalar tree_4_3_u00_r18_network.node[28].content_store 	decision_ratio[28] 	0.0088884129363889
scalar tree_4_3_u00_r18_network.node[29].core_layer 	interests[29] 	12140
scalar tree_4_3_u00_r18_network.node[29].core_layer 	data[29] 	9199
scalar tree_4_3_u00_r18_network.node[29].content_store 	p_hit[29] 	0.24225700164745
scalar tree_4_3_u00_r18_network.node[29].content_store 	hits[29] 	2941
scalar tree_4_3_u00_r18_network.node[29].content_store 	misses[29] 	9199
scalar tree_4_3_u00_r18_network.node[29].content_store 	decision_yes[29] 	89
scalar tree_4_3_u00_r18_network.node[29].content_store 	decision_no[29] 	9110
scalar tree_4_3_u00_r18_network.node[29].content_store 	decision_ratio[29] 	0.0096749646700728
scalar tree_4_3_u00_r18_network.node[30].core_layer 	interests[30] 	11924
scalar tree_4_3_u00_r18_network.node[30].core_layer 	data[30] 	9001
scalar tree_4_3_u00_r18_network.node[30].content_store 	p_hit[30] 	0.24513586044951
scalar tree_4_3_u00_r18_network.node[30].content_store 	hits[30] 	2923
scalar tree_4_3_u00_r18_network.node[30].content_store 	misses[30] 	9001
scalar tree_4_3_u00_r18_network.node[30].content_store 	decision_yes[30] 	75
scalar tree_4_3_u00_r18_network.node[30].content_store 	decision_no[30] 	8926
scalar tree_4_3_u00_r18_network.node[30].content_store 	decision_ratio[30] 	0.0083324075102766
scalar tree_4_3_u00_r18_network.node[31].core_layer 	interests[31] 	11950
scalar tree_4_3_u00_r18_network.node[31].core_layer 	data[31] 	9087
scalar tree_4_3_u00_r18_network.node[31].content_store 	p_hit[31] 	0.23958158995816
scalar tree_4_3_u00_r18_network.node[31].content_store 	hits[31] 	2863
scalar tree_4_3_u00_r18_network.node[31].content_store 	misses[31] 	9087
scalar tree_4_3_u00_r18_network.node[31].content_store 	decision_yes[31] 	106
scalar tree_4_3_u00_r18_network.node[31].content_store 	decision_no[31] 	8981
scalar tree_4_3_u00_r18_network.node[31].content_store 	decision_ratio[31] 	0.011665015956861
scalar tree_4_3_u00_r18_network.node[32].core_layer 	interests[32] 	12350
scalar tree_4_3_u00_r18_network.node[32].core_layer 	data[32] 	9272
scalar tree_4_3_u00_r18_network.node[32].content_store 	p_hit[32] 	0.24923076923077
scalar tree_4_3_u00_r18_network.node[32].content_store 	hits[32] 	3078
scalar tree_4_3_u00_r18_network.node[32].content_store 	misses[32] 	9272
scalar tree_4_3_u00_r18_network.node[32].content_store 	decision_yes[32] 	90
scalar tree_4_3_u00_r18_network.node[32].content_store 	decision_no[32] 	9182
scalar tree_4_3_u00_r18_network.node[32].content_store 	decision_ratio[32] 	0.0097066436583261
scalar tree_4_3_u00_r18_network.node[33].core_layer 	interests[33] 	12171
scalar tree_4_3_u00_r18_network.node[33].core_layer 	data[33] 	9270
scalar tree_4_3_u00_r18_network.node[33].content_store 	p_hit[33] 	0.23835346315011
scalar tree_4_3_u00_r18_network.node[33].content_store 	hits[33] 	2901
scalar tree_4_3_u00_r18_network.node[33].content_store 	misses[33] 	9270
scalar tree_4_3_u00_r18_network.node[33].content_store 	decision_yes[33] 	103
scalar tree_4_3_u00_r18_network.node[33].content_store 	decision_no[33] 	9167
scalar tree_4_3_u00_r18_network.node[33].content_store 	decision_ratio[33] 	0.011111111111111
scalar tree_4_3_u00_r18_network.node[34].core_layer 	interests[34] 	11935
scalar tree_4_3_u00_r18_network.node[34].core_layer 	data[34] 	8826
scalar tree_4_3_u00_r18_network.node[34].content_store 	p_hit[34] 	0.26049434436531
scalar tree_4_3_u00_r18_network.node[34].content_store 	hits[34] 	3109
scalar tree_4_3_u00_r18_network.node[34].content_store 	misses[34] 	8826
scalar tree_4_3_u00_r18_network.node[34].content_store 	decision_yes[34] 	93
scalar tree_4_3_u00_r18_network.node[34].content_store 	decision_no[34] 	8733
scalar tree_4_3_u00_r18_network.node[34].content_store 	decision_ratio[34] 	0.010537049626105
scalar tree_4_3_u00_r18_network.node[35].core_layer 	interests[35] 	11971
scalar tree_4_3_u00_r18_network.node[35].core_layer 	data[35] 	9139
scalar tree_4_3_u00_r18_network.node[35].content_store 	p_hit[35] 	0.23657171497786
scalar tree_4_3_u00_r18_network.node[35].content_store 	hits[35] 	2832
scalar tree_4_3_u00_r18_network.node[35].content_store 	misses[35] 	9139
scalar tree_4_3_u00_r18_network.node[35].content_store 	decision_yes[35] 	98
scalar tree_4_3_u00_r18_network.node[35].content_store 	decision_no[35] 	9041
scalar tree_4_3_u00_r18_network.node[35].content_store 	decision_ratio[35] 	0.010723273881169
scalar tree_4_3_u00_r18_network.node[36].core_layer 	interests[36] 	11978
scalar tree_4_3_u00_r18_network.node[36].core_layer 	data[36] 	9304
scalar tree_4_3_u00_r18_network.node[36].content_store 	p_hit[36] 	0.22315912506261
scalar tree_4_3_u00_r18_network.node[36].content_store 	hits[36] 	2673
scalar tree_4_3_u00_r18_network.node[36].content_store 	misses[36] 	9305
scalar tree_4_3_u00_r18_network.node[36].content_store 	decision_yes[36] 	95
scalar tree_4_3_u00_r18_network.node[36].content_store 	decision_no[36] 	9209
scalar tree_4_3_u00_r18_network.node[36].content_store 	decision_ratio[36] 	0.010210662080825
scalar tree_4_3_u00_r18_network.node[37].core_layer 	interests[37] 	11925
scalar tree_4_3_u00_r18_network.node[37].core_layer 	data[37] 	9147
scalar tree_4_3_u00_r18_network.node[37].content_store 	p_hit[37] 	0.23295597484277
scalar tree_4_3_u00_r18_network.node[37].content_store 	hits[37] 	2778
scalar tree_4_3_u00_r18_network.node[37].content_store 	misses[37] 	9147
scalar tree_4_3_u00_r18_network.node[37].content_store 	decision_yes[37] 	103
scalar tree_4_3_u00_r18_network.node[37].content_store 	decision_no[37] 	9044
scalar tree_4_3_u00_r18_network.node[37].content_store 	decision_ratio[37] 	0.011260522575708
scalar tree_4_3_u00_r18_network.node[38].core_layer 	interests[38] 	11999
scalar tree_4_3_u00_r18_network.node[38].core_layer 	data[38] 	9193
scalar tree_4_3_u00_r18_network.node[38].content_store 	p_hit[38] 	0.23385282106842
scalar tree_4_3_u00_r18_network.node[38].content_store 	hits[38] 	2806
scalar tree_4_3_u00_r18_network.node[38].content_store 	misses[38] 	9193
scalar tree_4_3_u00_r18_network.node[38].content_store 	decision_yes[38] 	91
scalar tree_4_3_u00_r18_network.node[38].content_store 	decision_no[38] 	9102
scalar tree_4_3_u00_r18_network.node[38].content_store 	decision_ratio[38] 	0.0098988360709235
scalar tree_4_3_u00_r18_network.node[39].core_layer 	interests[39] 	12012
scalar tree_4_3_u00_r18_network.node[39].core_layer 	data[39] 	9252
scalar tree_4_3_u00_r18_network.node[39].content_store 	p_hit[39] 	0.22977022977023
scalar tree_4_3_u00_r18_network.node[39].content_store 	hits[39] 	2760
scalar tree_4_3_u00_r18_network.node[39].content_store 	misses[39] 	9252
scalar tree_4_3_u00_r18_network.node[39].content_store 	decision_yes[39] 	100
scalar tree_4_3_u00_r18_network.node[39].content_store 	decision_no[39] 	9152
scalar tree_4_3_u00_r18_network.node[39].content_store 	decision_ratio[39] 	0.010808473843493
scalar tree_4_3_u00_r18_network.client[13] 	hdistance[13] 	2.8666501322751
scalar tree_4_3_u00_r18_network.client[13] 	downloads[13] 	12096
scalar tree_4_3_u00_r18_network.client[13] 	avg_time[13] 	0.004363422909
scalar tree_4_3_u00_r18_network.client[14] 	hdistance[14] 	2.8487242798354
scalar tree_4_3_u00_r18_network.client[14] 	downloads[14] 	12150
scalar tree_4_3_u00_r18_network.client[14] 	avg_time[14] 	0.00434233888
scalar tree_4_3_u00_r18_network.client[15] 	hdistance[15] 	2.8725991780592
scalar tree_4_3_u00_r18_network.client[15] 	downloads[15] 	11923
scalar tree_4_3_u00_r18_network.client[15] 	avg_time[15] 	0.004375238138
scalar tree_4_3_u00_r18_network.client[16] 	hdistance[16] 	2.8564214778657
scalar tree_4_3_u00_r18_network.client[16] 	downloads[16] 	11882
scalar tree_4_3_u00_r18_network.client[16] 	avg_time[16] 	0.004353892413
scalar tree_4_3_u00_r18_network.client[17] 	hdistance[17] 	2.8791375389539
scalar tree_4_3_u00_r18_network.client[17] 	downloads[17] 	11873
scalar tree_4_3_u00_r18_network.client[17] 	avg_time[17] 	0.004390987901
scalar tree_4_3_u00_r18_network.client[18] 	hdistance[18] 	2.8176842105263
scalar tree_4_3_u00_r18_network.client[18] 	downloads[18] 	11875
scalar tree_4_3_u00_r18_network.client[18] 	avg_time[18] 	0.00429243129
scalar tree_4_3_u00_r18_network.client[19] 	hdistance[19] 	2.8527530935969
scalar tree_4_3_u00_r18_network.client[19] 	downloads[19] 	12041
scalar tree_4_3_u00_r18_network.client[19] 	avg_time[19] 	0.004341995152
scalar tree_4_3_u00_r18_network.client[20] 	hdistance[20] 	2.8777146675576
scalar tree_4_3_u00_r18_network.client[20] 	downloads[20] 	11972
scalar tree_4_3_u00_r18_network.client[20] 	avg_time[20] 	0.004380217472
scalar tree_4_3_u00_r18_network.client[21] 	hdistance[21] 	2.8447427666139
scalar tree_4_3_u00_r18_network.client[21] 	downloads[21] 	11993
scalar tree_4_3_u00_r18_network.client[21] 	avg_time[21] 	0.004323573655
scalar tree_4_3_u00_r18_network.client[22] 	hdistance[22] 	2.7996369037795
scalar tree_4_3_u00_r18_network.client[22] 	downloads[22] 	12118
scalar tree_4_3_u00_r18_network.client[22] 	avg_time[22] 	0.004262175785
scalar tree_4_3_u00_r18_network.client[23] 	hdistance[23] 	2.8539456233422
scalar tree_4_3_u00_r18_network.client[23] 	downloads[23] 	12064
scalar tree_4_3_u00_r18_network.client[23] 	avg_time[23] 	0.004350958513
scalar tree_4_3_u00_r18_network.client[24] 	hdistance[24] 	2.892058923129
scalar tree_4_3_u00_r18_network.client[24] 	downloads[24] 	11812
scalar tree_4_3_u00_r18_network.client[24] 	avg_time[24] 	0.004407197544
scalar tree_4_3_u00_r18_network.client[25] 	hdistance[25] 	2.8527596990956
scalar tree_4_3_u00_r18_network.client[25] 	downloads[25] 	11831
scalar tree_4_3_u00_r18_network.client[25] 	avg_time[25] 	0.004342825206
scalar tree_4_3_u00_r18_network.client[26] 	hdistance[26] 	2.8568755846586
scalar tree_4_3_u00_r18_network.client[26] 	downloads[26] 	11759
scalar tree_4_3_u00_r18_network.client[26] 	avg_time[26] 	0.00434764564
scalar tree_4_3_u00_r18_network.client[27] 	hdistance[27] 	2.8337865677791
scalar tree_4_3_u00_r18_network.client[27] 	downloads[27] 	12135
scalar tree_4_3_u00_r18_network.client[27] 	avg_time[27] 	0.004315448154
scalar tree_4_3_u00_r18_network.client[28] 	hdistance[28] 	2.8750620963736
scalar tree_4_3_u00_r18_network.client[28] 	downloads[28] 	12078
scalar tree_4_3_u00_r18_network.client[28] 	avg_time[28] 	0.004378293334
scalar tree_4_3_u00_r18_network.client[29] 	hdistance[29] 	2.8302306425041
scalar tree_4_3_u00_r18_network.client[29] 	downloads[29] 	12140
scalar tree_4_3_u00_r18_network.client[29] 	avg_time[29] 	0.004308069446
scalar tree_4_3_u00_r18_network.client[30] 	hdistance[30] 	2.8387286145589
scalar tree_4_3_u00_r18_network.client[30] 	downloads[30] 	11924
scalar tree_4_3_u00_r18_network.client[30] 	avg_time[30] 	0.004319520674
scalar tree_4_3_u00_r18_network.client[31] 	hdistance[31] 	2.8402510460251
scalar tree_4_3_u00_r18_network.client[31] 	downloads[31] 	11950
scalar tree_4_3_u00_r18_network.client[31] 	avg_time[31] 	0.004324013782
scalar tree_4_3_u00_r18_network.client[32] 	hdistance[32] 	2.8165991902834
scalar tree_4_3_u00_r18_network.client[32] 	downloads[32] 	12350
scalar tree_4_3_u00_r18_network.client[32] 	avg_time[32] 	0.004287770199
scalar tree_4_3_u00_r18_network.client[33] 	hdistance[33] 	2.8463560923507
scalar tree_4_3_u00_r18_network.client[33] 	downloads[33] 	12171
scalar tree_4_3_u00_r18_network.client[33] 	avg_time[33] 	0.004331124807
scalar tree_4_3_u00_r18_network.client[34] 	hdistance[34] 	2.7964809384164
scalar tree_4_3_u00_r18_network.client[34] 	downloads[34] 	11935
scalar tree_4_3_u00_r18_network.client[34] 	avg_time[34] 	0.004253537022
scalar tree_4_3_u00_r18_network.client[35] 	hdistance[35] 	2.85322863587
scalar tree_4_3_u00_r18_network.client[35] 	downloads[35] 	11971
scalar tree_4_3_u00_r18_network.client[35] 	avg_time[35] 	0.004343995011
scalar tree_4_3_u00_r18_network.client[36] 	hdistance[36] 	2.8922935626618
scalar tree_4_3_u00_r18_network.client[36] 	downloads[36] 	11977
scalar tree_4_3_u00_r18_network.client[36] 	avg_time[36] 	0.004403039979
scalar tree_4_3_u00_r18_network.client[37] 	hdistance[37] 	2.8801677148847
scalar tree_4_3_u00_r18_network.client[37] 	downloads[37] 	11925
scalar tree_4_3_u00_r18_network.client[37] 	avg_time[37] 	0.004381179947
scalar tree_4_3_u00_r18_network.client[38] 	hdistance[38] 	2.864655387949
scalar tree_4_3_u00_r18_network.client[38] 	downloads[38] 	11999
scalar tree_4_3_u00_r18_network.client[38] 	avg_time[38] 	0.004361693801
scalar tree_4_3_u00_r18_network.client[39] 	hdistance[39] 	2.8642191142191
scalar tree_4_3_u00_r18_network.client[39] 	downloads[39] 	12012
scalar tree_4_3_u00_r18_network.client[39] 	avg_time[39] 	0.004362800859
