version 2
run General-449-20160901-09:32:14-8710
attr a 0.9
attr cd tfc
attr configname General
attr cr lru
attr datetime 20160901-09:32:14
attr experiment General
attr fsize 1
attr inifile hw5115/scenario_Y/omnetp.ini
attr iterationvars "$name=tree_4_3, $un=07, $rep=10, $cd=tfc, $cr=lru, $fsize=1, $a=0.9, $sl=nrr, $ttl=1000, $variance=0.05"
attr iterationvars2 "$name=tree_4_3, $un=07, $rep=10, $cd=tfc, $cr=lru, $fsize=1, $a=0.9, $sl=nrr, $ttl=1000, $variance=0.05, $repetition=0"
attr measurement "$name=tree_4_3, $un=07, $rep=10, $cd=tfc, $cr=lru, $fsize=1, $a=0.9, $sl=nrr, $ttl=1000, $variance=0.05"
attr name tree_4_3
attr network networks.${name}_u${un}_r${rep}_network
attr processid 8710
attr rep 10
attr repetition 0
attr replication #0
attr resultdir results
attr runnumber 449
attr seedset 10
attr sl nrr
attr ttl 1000
attr un 07
attr variance 0.05

scalar . 	a 	0.9
scalar . 	fsize 	1
scalar . 	rep 	10
scalar . 	ttl 	1000
scalar . 	un 	07
scalar . 	variance 	0.05
scalar tree_4_3_u07_r10_network.content_distribution 	repo-0 	0
scalar tree_4_3_u07_r10_network.content_distribution 	client-0 	13
scalar tree_4_3_u07_r10_network.content_distribution 	client-1 	14
scalar tree_4_3_u07_r10_network.content_distribution 	client-2 	15
scalar tree_4_3_u07_r10_network.content_distribution 	client-3 	16
scalar tree_4_3_u07_r10_network.content_distribution 	client-4 	17
scalar tree_4_3_u07_r10_network.content_distribution 	client-5 	18
scalar tree_4_3_u07_r10_network.content_distribution 	client-6 	19
scalar tree_4_3_u07_r10_network.content_distribution 	client-7 	20
scalar tree_4_3_u07_r10_network.content_distribution 	client-8 	21
scalar tree_4_3_u07_r10_network.content_distribution 	client-9 	22
scalar tree_4_3_u07_r10_network.content_distribution 	client-10 	23
scalar tree_4_3_u07_r10_network.content_distribution 	client-11 	24
scalar tree_4_3_u07_r10_network.content_distribution 	client-12 	25
scalar tree_4_3_u07_r10_network.content_distribution 	client-13 	26
scalar tree_4_3_u07_r10_network.content_distribution 	client-14 	27
scalar tree_4_3_u07_r10_network.content_distribution 	client-15 	28
scalar tree_4_3_u07_r10_network.content_distribution 	client-16 	29
scalar tree_4_3_u07_r10_network.content_distribution 	client-17 	30
scalar tree_4_3_u07_r10_network.content_distribution 	client-18 	31
scalar tree_4_3_u07_r10_network.content_distribution 	client-19 	32
scalar tree_4_3_u07_r10_network.content_distribution 	client-20 	33
scalar tree_4_3_u07_r10_network.content_distribution 	client-21 	34
scalar tree_4_3_u07_r10_network.content_distribution 	client-22 	35
scalar tree_4_3_u07_r10_network.content_distribution 	client-23 	36
scalar tree_4_3_u07_r10_network.content_distribution 	client-24 	37
scalar tree_4_3_u07_r10_network.content_distribution 	client-25 	38
scalar tree_4_3_u07_r10_network.content_distribution 	client-26 	39
scalar tree_4_3_u07_r10_network.content_distribution 	repo-0_card 	100000
scalar tree_4_3_u07_r10_network.content_distribution 	repo-0_price 	0
scalar tree_4_3_u07_r10_network.statistics 	stabilization_time 	1865
scalar tree_4_3_u07_r10_network.statistics 	p_hit 	0.22605601081878
scalar tree_4_3_u07_r10_network.statistics 	interests 	24396.325
scalar tree_4_3_u07_r10_network.statistics 	data 	16315.775
scalar tree_4_3_u07_r10_network.statistics 	hdistance 	2.6164087109327
scalar tree_4_3_u07_r10_network.statistics 	avg_time 	0.004038337509
scalar tree_4_3_u07_r10_network.statistics 	downloads 	323225
scalar tree_4_3_u07_r10_network.statistics 	total_cost 	0
scalar tree_4_3_u07_r10_network.statistics 	total_replicas 	100000
scalar tree_4_3_u07_r10_network.statistics 	inner_hit 	0.40278753190502
scalar tree_4_3_u07_r10_network.node[0].core_layer 	interests[0] 	196388
scalar tree_4_3_u07_r10_network.node[0].core_layer 	repo_load[0] 	193034
scalar tree_4_3_u07_r10_network.node[0].core_layer 	data[0] 	0
scalar tree_4_3_u07_r10_network.node[0].core_layer 	repo_int[0] 	193034
scalar tree_4_3_u07_r10_network.node[0].content_store 	p_hit[0] 	0.017078436564352
scalar tree_4_3_u07_r10_network.node[0].content_store 	hits[0] 	3354
scalar tree_4_3_u07_r10_network.node[0].content_store 	misses[0] 	193034
scalar tree_4_3_u07_r10_network.node[0].content_store 	decision_yes[0] 	1017
scalar tree_4_3_u07_r10_network.node[0].content_store 	decision_no[0] 	192017
scalar tree_4_3_u07_r10_network.node[0].content_store 	decision_ratio[0] 	0.0052685019219412
scalar tree_4_3_u07_r10_network.node[1].core_layer 	interests[1] 	96920
scalar tree_4_3_u07_r10_network.node[1].core_layer 	data[1] 	94359
scalar tree_4_3_u07_r10_network.node[1].content_store 	p_hit[1] 	0.026392901361948
scalar tree_4_3_u07_r10_network.node[1].content_store 	hits[1] 	2558
scalar tree_4_3_u07_r10_network.node[1].content_store 	misses[1] 	94362
scalar tree_4_3_u07_r10_network.node[1].content_store 	decision_yes[1] 	61
scalar tree_4_3_u07_r10_network.node[1].content_store 	decision_no[1] 	94298
scalar tree_4_3_u07_r10_network.node[1].content_store 	decision_ratio[1] 	0.00064646721563391
scalar tree_4_3_u07_r10_network.node[2].core_layer 	interests[2] 	40787
scalar tree_4_3_u07_r10_network.node[2].core_layer 	data[2] 	38276
scalar tree_4_3_u07_r10_network.node[2].content_store 	p_hit[2] 	0.06156373354255
scalar tree_4_3_u07_r10_network.node[2].content_store 	hits[2] 	2511
scalar tree_4_3_u07_r10_network.node[2].content_store 	misses[2] 	38276
scalar tree_4_3_u07_r10_network.node[2].content_store 	decision_yes[2] 	61
scalar tree_4_3_u07_r10_network.node[2].content_store 	decision_no[2] 	38215
scalar tree_4_3_u07_r10_network.node[2].content_store 	decision_ratio[2] 	0.0015936879506741
scalar tree_4_3_u07_r10_network.node[3].core_layer 	interests[3] 	71709
scalar tree_4_3_u07_r10_network.node[3].core_layer 	data[3] 	68923
scalar tree_4_3_u07_r10_network.node[3].content_store 	p_hit[3] 	0.038851469132187
scalar tree_4_3_u07_r10_network.node[3].content_store 	hits[3] 	2786
scalar tree_4_3_u07_r10_network.node[3].content_store 	misses[3] 	68923
scalar tree_4_3_u07_r10_network.node[3].content_store 	decision_yes[3] 	95
scalar tree_4_3_u07_r10_network.node[3].content_store 	decision_no[3] 	68828
scalar tree_4_3_u07_r10_network.node[3].content_store 	decision_ratio[3] 	0.0013783497526225
scalar tree_4_3_u07_r10_network.node[4].core_layer 	interests[4] 	40734
scalar tree_4_3_u07_r10_network.node[4].core_layer 	data[4] 	38560
scalar tree_4_3_u07_r10_network.node[4].content_store 	p_hit[4] 	0.053370648598223
scalar tree_4_3_u07_r10_network.node[4].content_store 	hits[4] 	2174
scalar tree_4_3_u07_r10_network.node[4].content_store 	misses[4] 	38560
scalar tree_4_3_u07_r10_network.node[4].content_store 	decision_yes[4] 	63
scalar tree_4_3_u07_r10_network.node[4].content_store 	decision_no[4] 	38497
scalar tree_4_3_u07_r10_network.node[4].content_store 	decision_ratio[4] 	0.0016338174273859
scalar tree_4_3_u07_r10_network.node[5].core_layer 	interests[5] 	26760
scalar tree_4_3_u07_r10_network.node[5].core_layer 	data[5] 	24078
scalar tree_4_3_u07_r10_network.node[5].content_store 	p_hit[5] 	0.10022421524664
scalar tree_4_3_u07_r10_network.node[5].content_store 	hits[5] 	2682
scalar tree_4_3_u07_r10_network.node[5].content_store 	misses[5] 	24078
scalar tree_4_3_u07_r10_network.node[5].content_store 	decision_yes[5] 	126
scalar tree_4_3_u07_r10_network.node[5].content_store 	decision_no[5] 	23952
scalar tree_4_3_u07_r10_network.node[5].content_store 	decision_ratio[5] 	0.0052329927734862
scalar tree_4_3_u07_r10_network.node[6].core_layer 	interests[6] 	12646
scalar tree_4_3_u07_r10_network.node[6].core_layer 	data[6] 	9531
scalar tree_4_3_u07_r10_network.node[6].content_store 	p_hit[6] 	0.24632294796774
scalar tree_4_3_u07_r10_network.node[6].content_store 	hits[6] 	3115
scalar tree_4_3_u07_r10_network.node[6].content_store 	misses[6] 	9531
scalar tree_4_3_u07_r10_network.node[6].content_store 	decision_yes[6] 	181
scalar tree_4_3_u07_r10_network.node[6].content_store 	decision_no[6] 	9350
scalar tree_4_3_u07_r10_network.node[6].content_store 	decision_ratio[6] 	0.018990662050152
scalar tree_4_3_u07_r10_network.node[7].core_layer 	interests[7] 	34268
scalar tree_4_3_u07_r10_network.node[7].core_layer 	data[7] 	31953
scalar tree_4_3_u07_r10_network.node[7].content_store 	p_hit[7] 	0.067555737130851
scalar tree_4_3_u07_r10_network.node[7].content_store 	hits[7] 	2315
scalar tree_4_3_u07_r10_network.node[7].content_store 	misses[7] 	31953
scalar tree_4_3_u07_r10_network.node[7].content_store 	decision_yes[7] 	87
scalar tree_4_3_u07_r10_network.node[7].content_store 	decision_no[7] 	31866
scalar tree_4_3_u07_r10_network.node[7].content_store 	decision_ratio[7] 	0.002722749037649
scalar tree_4_3_u07_r10_network.node[8].core_layer 	interests[8] 	26279
scalar tree_4_3_u07_r10_network.node[8].core_layer 	data[8] 	23957
scalar tree_4_3_u07_r10_network.node[8].content_store 	p_hit[8] 	0.088359526618212
scalar tree_4_3_u07_r10_network.node[8].content_store 	hits[8] 	2322
scalar tree_4_3_u07_r10_network.node[8].content_store 	misses[8] 	23957
scalar tree_4_3_u07_r10_network.node[8].content_store 	decision_yes[8] 	70
scalar tree_4_3_u07_r10_network.node[8].content_store 	decision_no[8] 	23887
scalar tree_4_3_u07_r10_network.node[8].content_store 	decision_ratio[8] 	0.0029219017406186
scalar tree_4_3_u07_r10_network.node[9].core_layer 	interests[9] 	18998
scalar tree_4_3_u07_r10_network.node[9].core_layer 	data[9] 	16737
scalar tree_4_3_u07_r10_network.node[9].content_store 	p_hit[9] 	0.11901252763449
scalar tree_4_3_u07_r10_network.node[9].content_store 	hits[9] 	2261
scalar tree_4_3_u07_r10_network.node[9].content_store 	misses[9] 	16737
scalar tree_4_3_u07_r10_network.node[9].content_store 	decision_yes[9] 	71
scalar tree_4_3_u07_r10_network.node[9].content_store 	decision_no[9] 	16666
scalar tree_4_3_u07_r10_network.node[9].content_store 	decision_ratio[9] 	0.0042420983449842
scalar tree_4_3_u07_r10_network.node[10].core_layer 	interests[10] 	25459
scalar tree_4_3_u07_r10_network.node[10].core_layer 	data[10] 	23848
scalar tree_4_3_u07_r10_network.node[10].content_store 	p_hit[10] 	0.063278212027181
scalar tree_4_3_u07_r10_network.node[10].content_store 	hits[10] 	1611
scalar tree_4_3_u07_r10_network.node[10].content_store 	misses[10] 	23848
scalar tree_4_3_u07_r10_network.node[10].content_store 	decision_yes[10] 	34
scalar tree_4_3_u07_r10_network.node[10].content_store 	decision_no[10] 	23814
scalar tree_4_3_u07_r10_network.node[10].content_store 	decision_ratio[10] 	0.0014256960751426
scalar tree_4_3_u07_r10_network.node[11].core_layer 	interests[11] 	34843
scalar tree_4_3_u07_r10_network.node[11].core_layer 	data[11] 	32347
scalar tree_4_3_u07_r10_network.node[11].content_store 	p_hit[11] 	0.071635622650174
scalar tree_4_3_u07_r10_network.node[11].content_store 	hits[11] 	2496
scalar tree_4_3_u07_r10_network.node[11].content_store 	misses[11] 	32347
scalar tree_4_3_u07_r10_network.node[11].content_store 	decision_yes[11] 	88
scalar tree_4_3_u07_r10_network.node[11].content_store 	decision_no[11] 	32259
scalar tree_4_3_u07_r10_network.node[11].content_store 	decision_ratio[11] 	0.0027204995826506
scalar tree_4_3_u07_r10_network.node[12].core_layer 	interests[12] 	18635
scalar tree_4_3_u07_r10_network.node[12].core_layer 	data[12] 	16609
scalar tree_4_3_u07_r10_network.node[12].content_store 	p_hit[12] 	0.1087201502549
scalar tree_4_3_u07_r10_network.node[12].content_store 	hits[12] 	2026
scalar tree_4_3_u07_r10_network.node[12].content_store 	misses[12] 	16609
scalar tree_4_3_u07_r10_network.node[12].content_store 	decision_yes[12] 	45
scalar tree_4_3_u07_r10_network.node[12].content_store 	decision_no[12] 	16564
scalar tree_4_3_u07_r10_network.node[12].content_store 	decision_ratio[12] 	0.002709374435547
scalar tree_4_3_u07_r10_network.node[13].core_layer 	interests[13] 	12068
scalar tree_4_3_u07_r10_network.node[13].core_layer 	data[13] 	8595
scalar tree_4_3_u07_r10_network.node[13].content_store 	p_hit[13] 	0.28778588001326
scalar tree_4_3_u07_r10_network.node[13].content_store 	hits[13] 	3473
scalar tree_4_3_u07_r10_network.node[13].content_store 	misses[13] 	8595
scalar tree_4_3_u07_r10_network.node[13].content_store 	decision_yes[13] 	23
scalar tree_4_3_u07_r10_network.node[13].content_store 	decision_no[13] 	8572
scalar tree_4_3_u07_r10_network.node[13].content_store 	decision_ratio[13] 	0.0026759744037231
scalar tree_4_3_u07_r10_network.node[14].core_layer 	interests[14] 	12535
scalar tree_4_3_u07_r10_network.node[14].core_layer 	data[14] 	8752
scalar tree_4_3_u07_r10_network.node[14].content_store 	p_hit[14] 	0.3017949740726
scalar tree_4_3_u07_r10_network.node[14].content_store 	hits[14] 	3783
scalar tree_4_3_u07_r10_network.node[14].content_store 	misses[14] 	8752
scalar tree_4_3_u07_r10_network.node[14].content_store 	decision_yes[14] 	57
scalar tree_4_3_u07_r10_network.node[14].content_store 	decision_no[14] 	8695
scalar tree_4_3_u07_r10_network.node[14].content_store 	decision_ratio[14] 	0.0065127970749543
scalar tree_4_3_u07_r10_network.node[15].core_layer 	interests[15] 	12342
scalar tree_4_3_u07_r10_network.node[15].core_layer 	data[15] 	8670
scalar tree_4_3_u07_r10_network.node[15].content_store 	p_hit[15] 	0.29752066115702
scalar tree_4_3_u07_r10_network.node[15].content_store 	hits[15] 	3672
scalar tree_4_3_u07_r10_network.node[15].content_store 	misses[15] 	8670
scalar tree_4_3_u07_r10_network.node[15].content_store 	decision_yes[15] 	41
scalar tree_4_3_u07_r10_network.node[15].content_store 	decision_no[15] 	8629
scalar tree_4_3_u07_r10_network.node[15].content_store 	decision_ratio[15] 	0.0047289504036909
scalar tree_4_3_u07_r10_network.node[16].core_layer 	interests[16] 	12393
scalar tree_4_3_u07_r10_network.node[16].core_layer 	data[16] 	8706
scalar tree_4_3_u07_r10_network.node[16].content_store 	p_hit[16] 	0.29758734769628
scalar tree_4_3_u07_r10_network.node[16].content_store 	hits[16] 	3688
scalar tree_4_3_u07_r10_network.node[16].content_store 	misses[16] 	8705
scalar tree_4_3_u07_r10_network.node[16].content_store 	decision_yes[16] 	58
scalar tree_4_3_u07_r10_network.node[16].content_store 	decision_no[16] 	8648
scalar tree_4_3_u07_r10_network.node[16].content_store 	decision_ratio[16] 	0.0066620721341603
scalar tree_4_3_u07_r10_network.node[17].core_layer 	interests[17] 	12073
scalar tree_4_3_u07_r10_network.node[17].core_layer 	data[17] 	8560
scalar tree_4_3_u07_r10_network.node[17].content_store 	p_hit[17] 	0.29097987244264
scalar tree_4_3_u07_r10_network.node[17].content_store 	hits[17] 	3513
scalar tree_4_3_u07_r10_network.node[17].content_store 	misses[17] 	8560
scalar tree_4_3_u07_r10_network.node[17].content_store 	decision_yes[17] 	28
scalar tree_4_3_u07_r10_network.node[17].content_store 	decision_no[17] 	8532
scalar tree_4_3_u07_r10_network.node[17].content_store 	decision_ratio[17] 	0.0032710280373832
scalar tree_4_3_u07_r10_network.node[18].core_layer 	interests[18] 	12437
scalar tree_4_3_u07_r10_network.node[18].core_layer 	data[18] 	8595
scalar tree_4_3_u07_r10_network.node[18].content_store 	p_hit[18] 	0.30891694138458
scalar tree_4_3_u07_r10_network.node[18].content_store 	hits[18] 	3842
scalar tree_4_3_u07_r10_network.node[18].content_store 	misses[18] 	8595
scalar tree_4_3_u07_r10_network.node[18].content_store 	decision_yes[18] 	26
scalar tree_4_3_u07_r10_network.node[18].content_store 	decision_no[18] 	8569
scalar tree_4_3_u07_r10_network.node[18].content_store 	decision_ratio[18] 	0.0030250145433392
scalar tree_4_3_u07_r10_network.node[19].core_layer 	interests[19] 	12318
scalar tree_4_3_u07_r10_network.node[19].core_layer 	data[19] 	8608
scalar tree_4_3_u07_r10_network.node[19].content_store 	p_hit[19] 	0.30118525734697
scalar tree_4_3_u07_r10_network.node[19].content_store 	hits[19] 	3710
scalar tree_4_3_u07_r10_network.node[19].content_store 	misses[19] 	8608
scalar tree_4_3_u07_r10_network.node[19].content_store 	decision_yes[19] 	42
scalar tree_4_3_u07_r10_network.node[19].content_store 	decision_no[19] 	8566
scalar tree_4_3_u07_r10_network.node[19].content_store 	decision_ratio[19] 	0.0048791821561338
scalar tree_4_3_u07_r10_network.node[20].core_layer 	interests[20] 	12497
scalar tree_4_3_u07_r10_network.node[20].core_layer 	data[20] 	8701
scalar tree_4_3_u07_r10_network.node[20].content_store 	p_hit[20] 	0.30375290069617
scalar tree_4_3_u07_r10_network.node[20].content_store 	hits[20] 	3796
scalar tree_4_3_u07_r10_network.node[20].content_store 	misses[20] 	8701
scalar tree_4_3_u07_r10_network.node[20].content_store 	decision_yes[20] 	39
scalar tree_4_3_u07_r10_network.node[20].content_store 	decision_no[20] 	8662
scalar tree_4_3_u07_r10_network.node[20].content_store 	decision_ratio[20] 	0.0044822434202965
scalar tree_4_3_u07_r10_network.node[21].core_layer 	interests[21] 	12087
scalar tree_4_3_u07_r10_network.node[21].core_layer 	data[21] 	8491
scalar tree_4_3_u07_r10_network.node[21].content_store 	p_hit[21] 	0.29750972118805
scalar tree_4_3_u07_r10_network.node[21].content_store 	hits[21] 	3596
scalar tree_4_3_u07_r10_network.node[21].content_store 	misses[21] 	8491
scalar tree_4_3_u07_r10_network.node[21].content_store 	decision_yes[21] 	23
scalar tree_4_3_u07_r10_network.node[21].content_store 	decision_no[21] 	8468
scalar tree_4_3_u07_r10_network.node[21].content_store 	decision_ratio[21] 	0.0027087504416441
scalar tree_4_3_u07_r10_network.node[22].core_layer 	interests[22] 	12091
scalar tree_4_3_u07_r10_network.node[22].core_layer 	data[22] 	8633
scalar tree_4_3_u07_r10_network.node[22].content_store 	p_hit[22] 	0.28599784964023
scalar tree_4_3_u07_r10_network.node[22].content_store 	hits[22] 	3458
scalar tree_4_3_u07_r10_network.node[22].content_store 	misses[22] 	8633
scalar tree_4_3_u07_r10_network.node[22].content_store 	decision_yes[22] 	15
scalar tree_4_3_u07_r10_network.node[22].content_store 	decision_no[22] 	8618
scalar tree_4_3_u07_r10_network.node[22].content_store 	decision_ratio[22] 	0.0017375188231206
scalar tree_4_3_u07_r10_network.node[23].core_layer 	interests[23] 	12729
scalar tree_4_3_u07_r10_network.node[23].core_layer 	data[23] 	8897
scalar tree_4_3_u07_r10_network.node[23].content_store 	p_hit[23] 	0.30104485819782
scalar tree_4_3_u07_r10_network.node[23].content_store 	hits[23] 	3832
scalar tree_4_3_u07_r10_network.node[23].content_store 	misses[23] 	8897
scalar tree_4_3_u07_r10_network.node[23].content_store 	decision_yes[23] 	40
scalar tree_4_3_u07_r10_network.node[23].content_store 	decision_no[23] 	8857
scalar tree_4_3_u07_r10_network.node[23].content_store 	decision_ratio[23] 	0.0044958974935371
scalar tree_4_3_u07_r10_network.node[24].core_layer 	interests[24] 	12491
scalar tree_4_3_u07_r10_network.node[24].core_layer 	data[24] 	8785
scalar tree_4_3_u07_r10_network.node[24].content_store 	p_hit[24] 	0.29661356176447
scalar tree_4_3_u07_r10_network.node[24].content_store 	hits[24] 	3705
scalar tree_4_3_u07_r10_network.node[24].content_store 	misses[24] 	8786
scalar tree_4_3_u07_r10_network.node[24].content_store 	decision_yes[24] 	49
scalar tree_4_3_u07_r10_network.node[24].content_store 	decision_no[24] 	8736
scalar tree_4_3_u07_r10_network.node[24].content_store 	decision_ratio[24] 	0.0055776892430279
scalar tree_4_3_u07_r10_network.node[25].core_layer 	interests[25] 	12501
scalar tree_4_3_u07_r10_network.node[25].core_layer 	data[25] 	8766
scalar tree_4_3_u07_r10_network.node[25].content_store 	p_hit[25] 	0.29877609791217
scalar tree_4_3_u07_r10_network.node[25].content_store 	hits[25] 	3735
scalar tree_4_3_u07_r10_network.node[25].content_store 	misses[25] 	8766
scalar tree_4_3_u07_r10_network.node[25].content_store 	decision_yes[25] 	39
scalar tree_4_3_u07_r10_network.node[25].content_store 	decision_no[25] 	8727
scalar tree_4_3_u07_r10_network.node[25].content_store 	decision_ratio[25] 	0.0044490075290897
scalar tree_4_3_u07_r10_network.node[26].core_layer 	interests[26] 	12146
scalar tree_4_3_u07_r10_network.node[26].core_layer 	data[26] 	8580
scalar tree_4_3_u07_r10_network.node[26].content_store 	p_hit[26] 	0.29359459904495
scalar tree_4_3_u07_r10_network.node[26].content_store 	hits[26] 	3566
scalar tree_4_3_u07_r10_network.node[26].content_store 	misses[26] 	8580
scalar tree_4_3_u07_r10_network.node[26].content_store 	decision_yes[26] 	29
scalar tree_4_3_u07_r10_network.node[26].content_store 	decision_no[26] 	8551
scalar tree_4_3_u07_r10_network.node[26].content_store 	decision_ratio[26] 	0.0033799533799534
scalar tree_4_3_u07_r10_network.node[27].core_layer 	interests[27] 	12377
scalar tree_4_3_u07_r10_network.node[27].core_layer 	data[27] 	8674
scalar tree_4_3_u07_r10_network.node[27].content_store 	p_hit[27] 	0.29918397026743
scalar tree_4_3_u07_r10_network.node[27].content_store 	hits[27] 	3703
scalar tree_4_3_u07_r10_network.node[27].content_store 	misses[27] 	8674
scalar tree_4_3_u07_r10_network.node[27].content_store 	decision_yes[27] 	42
scalar tree_4_3_u07_r10_network.node[27].content_store 	decision_no[27] 	8632
scalar tree_4_3_u07_r10_network.node[27].content_store 	decision_ratio[27] 	0.0048420567212359
scalar tree_4_3_u07_r10_network.node[28].core_layer 	interests[28] 	12084
scalar tree_4_3_u07_r10_network.node[28].core_layer 	data[28] 	8605
scalar tree_4_3_u07_r10_network.node[28].content_store 	p_hit[28] 	0.2879013571665
scalar tree_4_3_u07_r10_network.node[28].content_store 	hits[28] 	3479
scalar tree_4_3_u07_r10_network.node[28].content_store 	misses[28] 	8605
scalar tree_4_3_u07_r10_network.node[28].content_store 	decision_yes[28] 	28
scalar tree_4_3_u07_r10_network.node[28].content_store 	decision_no[28] 	8577
scalar tree_4_3_u07_r10_network.node[28].content_store 	decision_ratio[28] 	0.0032539221382917
scalar tree_4_3_u07_r10_network.node[29].core_layer 	interests[29] 	12206
scalar tree_4_3_u07_r10_network.node[29].core_layer 	data[29] 	8480
scalar tree_4_3_u07_r10_network.node[29].content_store 	p_hit[29] 	0.30525970834016
scalar tree_4_3_u07_r10_network.node[29].content_store 	hits[29] 	3726
scalar tree_4_3_u07_r10_network.node[29].content_store 	misses[29] 	8480
scalar tree_4_3_u07_r10_network.node[29].content_store 	decision_yes[29] 	45
scalar tree_4_3_u07_r10_network.node[29].content_store 	decision_no[29] 	8435
scalar tree_4_3_u07_r10_network.node[29].content_store 	decision_ratio[29] 	0.0053066037735849
scalar tree_4_3_u07_r10_network.node[30].core_layer 	interests[30] 	12152
scalar tree_4_3_u07_r10_network.node[30].core_layer 	data[30] 	8687
scalar tree_4_3_u07_r10_network.node[30].content_store 	p_hit[30] 	0.28513824884793
scalar tree_4_3_u07_r10_network.node[30].content_store 	hits[30] 	3465
scalar tree_4_3_u07_r10_network.node[30].content_store 	misses[30] 	8687
scalar tree_4_3_u07_r10_network.node[30].content_store 	decision_yes[30] 	18
scalar tree_4_3_u07_r10_network.node[30].content_store 	decision_no[30] 	8669
scalar tree_4_3_u07_r10_network.node[30].content_store 	decision_ratio[30] 	0.0020720617013929
scalar tree_4_3_u07_r10_network.node[31].core_layer 	interests[31] 	11969
scalar tree_4_3_u07_r10_network.node[31].core_layer 	data[31] 	8510
scalar tree_4_3_u07_r10_network.node[31].content_store 	p_hit[31] 	0.28899657448408
scalar tree_4_3_u07_r10_network.node[31].content_store 	hits[31] 	3459
scalar tree_4_3_u07_r10_network.node[31].content_store 	misses[31] 	8510
scalar tree_4_3_u07_r10_network.node[31].content_store 	decision_yes[31] 	23
scalar tree_4_3_u07_r10_network.node[31].content_store 	decision_no[31] 	8487
scalar tree_4_3_u07_r10_network.node[31].content_store 	decision_ratio[31] 	0.0027027027027027
scalar tree_4_3_u07_r10_network.node[32].core_layer 	interests[32] 	12365
scalar tree_4_3_u07_r10_network.node[32].core_layer 	data[32] 	8747
scalar tree_4_3_u07_r10_network.node[32].content_store 	p_hit[32] 	0.29260008087343
scalar tree_4_3_u07_r10_network.node[32].content_store 	hits[32] 	3618
scalar tree_4_3_u07_r10_network.node[32].content_store 	misses[32] 	8747
scalar tree_4_3_u07_r10_network.node[32].content_store 	decision_yes[32] 	35
scalar tree_4_3_u07_r10_network.node[32].content_store 	decision_no[32] 	8712
scalar tree_4_3_u07_r10_network.node[32].content_store 	decision_ratio[32] 	0.0040013718989368
scalar tree_4_3_u07_r10_network.node[33].core_layer 	interests[33] 	12451
scalar tree_4_3_u07_r10_network.node[33].core_layer 	data[33] 	8785
scalar tree_4_3_u07_r10_network.node[33].content_store 	p_hit[33] 	0.29443418199341
scalar tree_4_3_u07_r10_network.node[33].content_store 	hits[33] 	3666
scalar tree_4_3_u07_r10_network.node[33].content_store 	misses[33] 	8785
scalar tree_4_3_u07_r10_network.node[33].content_store 	decision_yes[33] 	42
scalar tree_4_3_u07_r10_network.node[33].content_store 	decision_no[33] 	8743
scalar tree_4_3_u07_r10_network.node[33].content_store 	decision_ratio[33] 	0.0047808764940239
scalar tree_4_3_u07_r10_network.node[34].core_layer 	interests[34] 	12259
scalar tree_4_3_u07_r10_network.node[34].core_layer 	data[34] 	8678
scalar tree_4_3_u07_r10_network.node[34].content_store 	p_hit[34] 	0.2921119177747
scalar tree_4_3_u07_r10_network.node[34].content_store 	hits[34] 	3581
scalar tree_4_3_u07_r10_network.node[34].content_store 	misses[34] 	8678
scalar tree_4_3_u07_r10_network.node[34].content_store 	decision_yes[34] 	33
scalar tree_4_3_u07_r10_network.node[34].content_store 	decision_no[34] 	8645
scalar tree_4_3_u07_r10_network.node[34].content_store 	decision_ratio[34] 	0.0038027195206269
scalar tree_4_3_u07_r10_network.node[35].core_layer 	interests[35] 	12030
scalar tree_4_3_u07_r10_network.node[35].core_layer 	data[35] 	8460
scalar tree_4_3_u07_r10_network.node[35].content_store 	p_hit[35] 	0.29675810473815
scalar tree_4_3_u07_r10_network.node[35].content_store 	hits[35] 	3570
scalar tree_4_3_u07_r10_network.node[35].content_store 	misses[35] 	8460
scalar tree_4_3_u07_r10_network.node[35].content_store 	decision_yes[35] 	27
scalar tree_4_3_u07_r10_network.node[35].content_store 	decision_no[35] 	8433
scalar tree_4_3_u07_r10_network.node[35].content_store 	decision_ratio[35] 	0.0031914893617021
scalar tree_4_3_u07_r10_network.node[36].core_layer 	interests[36] 	12046
scalar tree_4_3_u07_r10_network.node[36].core_layer 	data[36] 	8461
scalar tree_4_3_u07_r10_network.node[36].content_store 	p_hit[36] 	0.29760916486801
scalar tree_4_3_u07_r10_network.node[36].content_store 	hits[36] 	3585
scalar tree_4_3_u07_r10_network.node[36].content_store 	misses[36] 	8461
scalar tree_4_3_u07_r10_network.node[36].content_store 	decision_yes[36] 	32
scalar tree_4_3_u07_r10_network.node[36].content_store 	decision_no[36] 	8429
scalar tree_4_3_u07_r10_network.node[36].content_store 	decision_ratio[36] 	0.003782058858291
scalar tree_4_3_u07_r10_network.node[37].core_layer 	interests[37] 	12242
scalar tree_4_3_u07_r10_network.node[37].core_layer 	data[37] 	8705
scalar tree_4_3_u07_r10_network.node[37].content_store 	p_hit[37] 	0.28892337853292
scalar tree_4_3_u07_r10_network.node[37].content_store 	hits[37] 	3537
scalar tree_4_3_u07_r10_network.node[37].content_store 	misses[37] 	8705
scalar tree_4_3_u07_r10_network.node[37].content_store 	decision_yes[37] 	18
scalar tree_4_3_u07_r10_network.node[37].content_store 	decision_no[37] 	8687
scalar tree_4_3_u07_r10_network.node[37].content_store 	decision_ratio[37] 	0.002067777139575
scalar tree_4_3_u07_r10_network.node[38].core_layer 	interests[38] 	12478
scalar tree_4_3_u07_r10_network.node[38].core_layer 	data[38] 	8688
scalar tree_4_3_u07_r10_network.node[38].content_store 	p_hit[38] 	0.30373457284821
scalar tree_4_3_u07_r10_network.node[38].content_store 	hits[38] 	3790
scalar tree_4_3_u07_r10_network.node[38].content_store 	misses[38] 	8688
scalar tree_4_3_u07_r10_network.node[38].content_store 	decision_yes[38] 	37
scalar tree_4_3_u07_r10_network.node[38].content_store 	decision_no[38] 	8651
scalar tree_4_3_u07_r10_network.node[38].content_store 	decision_ratio[38] 	0.0042587476979742
scalar tree_4_3_u07_r10_network.node[39].core_layer 	interests[39] 	12060
scalar tree_4_3_u07_r10_network.node[39].core_layer 	data[39] 	8634
scalar tree_4_3_u07_r10_network.node[39].content_store 	p_hit[39] 	0.28416252072968
scalar tree_4_3_u07_r10_network.node[39].content_store 	hits[39] 	3427
scalar tree_4_3_u07_r10_network.node[39].content_store 	misses[39] 	8633
scalar tree_4_3_u07_r10_network.node[39].content_store 	decision_yes[39] 	36
scalar tree_4_3_u07_r10_network.node[39].content_store 	decision_no[39] 	8598
scalar tree_4_3_u07_r10_network.node[39].content_store 	decision_ratio[39] 	0.0041695621959694
scalar tree_4_3_u07_r10_network.client[13] 	hdistance[13] 	2.656331620187
scalar tree_4_3_u07_r10_network.client[13] 	downloads[13] 	11869
scalar tree_4_3_u07_r10_network.client[13] 	avg_time[13] 	0.004110874123
scalar tree_4_3_u07_r10_network.client[14] 	hdistance[14] 	2.5769901220221
scalar tree_4_3_u07_r10_network.client[14] 	downloads[14] 	12047
scalar tree_4_3_u07_r10_network.client[14] 	avg_time[14] 	0.003982018752
scalar tree_4_3_u07_r10_network.client[15] 	hdistance[15] 	2.5883192078543
scalar tree_4_3_u07_r10_network.client[15] 	downloads[15] 	11917
scalar tree_4_3_u07_r10_network.client[15] 	avg_time[15] 	0.004010402322
scalar tree_4_3_u07_r10_network.client[16] 	hdistance[16] 	2.5902585990459
scalar tree_4_3_u07_r10_network.client[16] 	downloads[16] 	11949
scalar tree_4_3_u07_r10_network.client[16] 	avg_time[16] 	0.004000164384
scalar tree_4_3_u07_r10_network.client[17] 	hdistance[17] 	2.6153651756381
scalar tree_4_3_u07_r10_network.client[17] 	downloads[17] 	11871
scalar tree_4_3_u07_r10_network.client[17] 	avg_time[17] 	0.004051045802
scalar tree_4_3_u07_r10_network.client[18] 	hdistance[18] 	2.5356039736205
scalar tree_4_3_u07_r10_network.client[18] 	downloads[18] 	11979
scalar tree_4_3_u07_r10_network.client[18] 	avg_time[18] 	0.003922695052
scalar tree_4_3_u07_r10_network.client[19] 	hdistance[19] 	2.5948253995096
scalar tree_4_3_u07_r10_network.client[19] 	downloads[19] 	11827
scalar tree_4_3_u07_r10_network.client[19] 	avg_time[19] 	0.004013694544
scalar tree_4_3_u07_r10_network.client[20] 	hdistance[20] 	2.5631294215564
scalar tree_4_3_u07_r10_network.client[20] 	downloads[20] 	12015
scalar tree_4_3_u07_r10_network.client[20] 	avg_time[20] 	0.003969035698
scalar tree_4_3_u07_r10_network.client[21] 	hdistance[21] 	2.6015151515152
scalar tree_4_3_u07_r10_network.client[21] 	downloads[21] 	11880
scalar tree_4_3_u07_r10_network.client[21] 	avg_time[21] 	0.004035713047
scalar tree_4_3_u07_r10_network.client[22] 	hdistance[22] 	2.6318879476642
scalar tree_4_3_u07_r10_network.client[22] 	downloads[22] 	11923
scalar tree_4_3_u07_r10_network.client[22] 	avg_time[22] 	0.004082526609
scalar tree_4_3_u07_r10_network.client[23] 	hdistance[23] 	2.5674244276053
scalar tree_4_3_u07_r10_network.client[23] 	downloads[23] 	12273
scalar tree_4_3_u07_r10_network.client[23] 	avg_time[23] 	0.003976035993
scalar tree_4_3_u07_r10_network.client[24] 	hdistance[24] 	2.6033705990322
scalar tree_4_3_u07_r10_network.client[24] 	downloads[24] 	11986
scalar tree_4_3_u07_r10_network.client[24] 	avg_time[24] 	0.004025830593
scalar tree_4_3_u07_r10_network.client[25] 	hdistance[25] 	2.581150530504
scalar tree_4_3_u07_r10_network.client[25] 	downloads[25] 	12064
scalar tree_4_3_u07_r10_network.client[25] 	avg_time[25] 	0.00399436039
scalar tree_4_3_u07_r10_network.client[26] 	hdistance[26] 	2.6197230101785
scalar tree_4_3_u07_r10_network.client[26] 	downloads[26] 	11986
scalar tree_4_3_u07_r10_network.client[26] 	avg_time[26] 	0.004045550134
scalar tree_4_3_u07_r10_network.client[27] 	hdistance[27] 	2.6142916493561
scalar tree_4_3_u07_r10_network.client[27] 	downloads[27] 	12035
scalar tree_4_3_u07_r10_network.client[27] 	avg_time[27] 	0.004019938833
scalar tree_4_3_u07_r10_network.client[28] 	hdistance[28] 	2.6501964718669
scalar tree_4_3_u07_r10_network.client[28] 	downloads[28] 	11961
scalar tree_4_3_u07_r10_network.client[28] 	avg_time[28] 	0.004087113492
scalar tree_4_3_u07_r10_network.client[29] 	hdistance[29] 	2.5952984948419
scalar tree_4_3_u07_r10_network.client[29] 	downloads[29] 	11826
scalar tree_4_3_u07_r10_network.client[29] 	avg_time[29] 	0.003988327816
scalar tree_4_3_u07_r10_network.client[30] 	hdistance[30] 	2.678094131319
scalar tree_4_3_u07_r10_network.client[30] 	downloads[30] 	12047
scalar tree_4_3_u07_r10_network.client[30] 	avg_time[30] 	0.004122683133
scalar tree_4_3_u07_r10_network.client[31] 	hdistance[31] 	2.6557556378324
scalar tree_4_3_u07_r10_network.client[31] 	downloads[31] 	11884
scalar tree_4_3_u07_r10_network.client[31] 	avg_time[31] 	0.00409239016
scalar tree_4_3_u07_r10_network.client[32] 	hdistance[32] 	2.6357399815946
scalar tree_4_3_u07_r10_network.client[32] 	downloads[32] 	11953
scalar tree_4_3_u07_r10_network.client[32] 	avg_time[32] 	0.004055380605
scalar tree_4_3_u07_r10_network.client[33] 	hdistance[33] 	2.6281005356407
scalar tree_4_3_u07_r10_network.client[33] 	downloads[33] 	12135
scalar tree_4_3_u07_r10_network.client[33] 	avg_time[33] 	0.004038892761
scalar tree_4_3_u07_r10_network.client[34] 	hdistance[34] 	2.6462776993941
scalar tree_4_3_u07_r10_network.client[34] 	downloads[34] 	12049
scalar tree_4_3_u07_r10_network.client[34] 	avg_time[34] 	0.004079173697
scalar tree_4_3_u07_r10_network.client[35] 	hdistance[35] 	2.6385958990803
scalar tree_4_3_u07_r10_network.client[35] 	downloads[35] 	11851
scalar tree_4_3_u07_r10_network.client[35] 	avg_time[35] 	0.004059232508
scalar tree_4_3_u07_r10_network.client[36] 	hdistance[36] 	2.626868192181
scalar tree_4_3_u07_r10_network.client[36] 	downloads[36] 	11843
scalar tree_4_3_u07_r10_network.client[36] 	avg_time[36] 	0.004047788979
scalar tree_4_3_u07_r10_network.client[37] 	hdistance[37] 	2.6548286090969
scalar tree_4_3_u07_r10_network.client[37] 	downloads[37] 	12136
scalar tree_4_3_u07_r10_network.client[37] 	avg_time[37] 	0.004084209235
scalar tree_4_3_u07_r10_network.client[38] 	hdistance[38] 	2.6275148175975
scalar tree_4_3_u07_r10_network.client[38] 	downloads[38] 	11979
scalar tree_4_3_u07_r10_network.client[38] 	avg_time[38] 	0.004034557508
scalar tree_4_3_u07_r10_network.client[39] 	hdistance[39] 	2.6655778894472
scalar tree_4_3_u07_r10_network.client[39] 	downloads[39] 	11940
scalar tree_4_3_u07_r10_network.client[39] 	avg_time[39] 	0.004105476596
