version 2
run General-467-20160901-10:09:18-8710
attr a 0.9
attr cd tfc
attr configname General
attr cr lru
attr datetime 20160901-10:09:18
attr experiment General
attr fsize 1
attr inifile hw5115/scenario_Y/omnetp.ini
attr iterationvars "$name=tree_4_3, $un=07, $rep=16, $cd=tfc, $cr=lru, $fsize=1, $a=0.9, $sl=nrr, $ttl=1000, $variance=0.05"
attr iterationvars2 "$name=tree_4_3, $un=07, $rep=16, $cd=tfc, $cr=lru, $fsize=1, $a=0.9, $sl=nrr, $ttl=1000, $variance=0.05, $repetition=0"
attr measurement "$name=tree_4_3, $un=07, $rep=16, $cd=tfc, $cr=lru, $fsize=1, $a=0.9, $sl=nrr, $ttl=1000, $variance=0.05"
attr name tree_4_3
attr network networks.${name}_u${un}_r${rep}_network
attr processid 8710
attr rep 16
attr repetition 0
attr replication #0
attr resultdir results
attr runnumber 467
attr seedset 16
attr sl nrr
attr ttl 1000
attr un 07
attr variance 0.05

scalar . 	a 	0.9
scalar . 	fsize 	1
scalar . 	rep 	16
scalar . 	ttl 	1000
scalar . 	un 	07
scalar . 	variance 	0.05
scalar tree_4_3_u07_r16_network.content_distribution 	repo-0 	0
scalar tree_4_3_u07_r16_network.content_distribution 	client-0 	13
scalar tree_4_3_u07_r16_network.content_distribution 	client-1 	14
scalar tree_4_3_u07_r16_network.content_distribution 	client-2 	15
scalar tree_4_3_u07_r16_network.content_distribution 	client-3 	16
scalar tree_4_3_u07_r16_network.content_distribution 	client-4 	17
scalar tree_4_3_u07_r16_network.content_distribution 	client-5 	18
scalar tree_4_3_u07_r16_network.content_distribution 	client-6 	19
scalar tree_4_3_u07_r16_network.content_distribution 	client-7 	20
scalar tree_4_3_u07_r16_network.content_distribution 	client-8 	21
scalar tree_4_3_u07_r16_network.content_distribution 	client-9 	22
scalar tree_4_3_u07_r16_network.content_distribution 	client-10 	23
scalar tree_4_3_u07_r16_network.content_distribution 	client-11 	24
scalar tree_4_3_u07_r16_network.content_distribution 	client-12 	25
scalar tree_4_3_u07_r16_network.content_distribution 	client-13 	26
scalar tree_4_3_u07_r16_network.content_distribution 	client-14 	27
scalar tree_4_3_u07_r16_network.content_distribution 	client-15 	28
scalar tree_4_3_u07_r16_network.content_distribution 	client-16 	29
scalar tree_4_3_u07_r16_network.content_distribution 	client-17 	30
scalar tree_4_3_u07_r16_network.content_distribution 	client-18 	31
scalar tree_4_3_u07_r16_network.content_distribution 	client-19 	32
scalar tree_4_3_u07_r16_network.content_distribution 	client-20 	33
scalar tree_4_3_u07_r16_network.content_distribution 	client-21 	34
scalar tree_4_3_u07_r16_network.content_distribution 	client-22 	35
scalar tree_4_3_u07_r16_network.content_distribution 	client-23 	36
scalar tree_4_3_u07_r16_network.content_distribution 	client-24 	37
scalar tree_4_3_u07_r16_network.content_distribution 	client-25 	38
scalar tree_4_3_u07_r16_network.content_distribution 	client-26 	39
scalar tree_4_3_u07_r16_network.content_distribution 	repo-0_card 	100000
scalar tree_4_3_u07_r16_network.content_distribution 	repo-0_price 	0
scalar tree_4_3_u07_r16_network.statistics 	stabilization_time 	2245
scalar tree_4_3_u07_r16_network.statistics 	p_hit 	0.23020786510651
scalar tree_4_3_u07_r16_network.statistics 	interests 	24499.825
scalar tree_4_3_u07_r16_network.statistics 	data 	16391.85
scalar tree_4_3_u07_r16_network.statistics 	hdistance 	2.610807111358
scalar tree_4_3_u07_r16_network.statistics 	avg_time 	0.00404343104
scalar tree_4_3_u07_r16_network.statistics 	downloads 	324314
scalar tree_4_3_u07_r16_network.statistics 	total_cost 	0
scalar tree_4_3_u07_r16_network.statistics 	total_replicas 	100000
scalar tree_4_3_u07_r16_network.statistics 	inner_hit 	0.41093199800194
scalar tree_4_3_u07_r16_network.node[0].core_layer 	interests[0] 	194314
scalar tree_4_3_u07_r16_network.node[0].core_layer 	repo_load[0] 	191043
scalar tree_4_3_u07_r16_network.node[0].core_layer 	data[0] 	0
scalar tree_4_3_u07_r16_network.node[0].core_layer 	repo_int[0] 	191043
scalar tree_4_3_u07_r16_network.node[0].content_store 	p_hit[0] 	0.016833578640757
scalar tree_4_3_u07_r16_network.node[0].content_store 	hits[0] 	3271
scalar tree_4_3_u07_r16_network.node[0].content_store 	misses[0] 	191043
scalar tree_4_3_u07_r16_network.node[0].content_store 	decision_yes[0] 	995
scalar tree_4_3_u07_r16_network.node[0].content_store 	decision_no[0] 	190048
scalar tree_4_3_u07_r16_network.node[0].content_store 	decision_ratio[0] 	0.0052082515454636
scalar tree_4_3_u07_r16_network.node[1].core_layer 	interests[1] 	134955
scalar tree_4_3_u07_r16_network.node[1].core_layer 	data[1] 	131497
scalar tree_4_3_u07_r16_network.node[1].content_store 	p_hit[1] 	0.02560112630136
scalar tree_4_3_u07_r16_network.node[1].content_store 	hits[1] 	3455
scalar tree_4_3_u07_r16_network.node[1].content_store 	misses[1] 	131500
scalar tree_4_3_u07_r16_network.node[1].content_store 	decision_yes[1] 	100
scalar tree_4_3_u07_r16_network.node[1].content_store 	decision_no[1] 	131397
scalar tree_4_3_u07_r16_network.node[1].content_store 	decision_ratio[1] 	0.00076047362297239
scalar tree_4_3_u07_r16_network.node[2].core_layer 	interests[2] 	33344
scalar tree_4_3_u07_r16_network.node[2].core_layer 	data[2] 	30633
scalar tree_4_3_u07_r16_network.node[2].content_store 	p_hit[2] 	0.081303982725528
scalar tree_4_3_u07_r16_network.node[2].content_store 	hits[2] 	2711
scalar tree_4_3_u07_r16_network.node[2].content_store 	misses[2] 	30633
scalar tree_4_3_u07_r16_network.node[2].content_store 	decision_yes[2] 	53
scalar tree_4_3_u07_r16_network.node[2].content_store 	decision_no[2] 	30580
scalar tree_4_3_u07_r16_network.node[2].content_store 	decision_ratio[2] 	0.0017301602846603
scalar tree_4_3_u07_r16_network.node[3].core_layer 	interests[3] 	42287
scalar tree_4_3_u07_r16_network.node[3].core_layer 	data[3] 	39064
scalar tree_4_3_u07_r16_network.node[3].content_store 	p_hit[3] 	0.076217277177383
scalar tree_4_3_u07_r16_network.node[3].content_store 	hits[3] 	3223
scalar tree_4_3_u07_r16_network.node[3].content_store 	misses[3] 	39064
scalar tree_4_3_u07_r16_network.node[3].content_store 	decision_yes[3] 	99
scalar tree_4_3_u07_r16_network.node[3].content_store 	decision_no[3] 	38965
scalar tree_4_3_u07_r16_network.node[3].content_store 	decision_ratio[3] 	0.002534302682777
scalar tree_4_3_u07_r16_network.node[4].core_layer 	interests[4] 	41379
scalar tree_4_3_u07_r16_network.node[4].core_layer 	data[4] 	39087
scalar tree_4_3_u07_r16_network.node[4].content_store 	p_hit[4] 	0.055390415428116
scalar tree_4_3_u07_r16_network.node[4].content_store 	hits[4] 	2292
scalar tree_4_3_u07_r16_network.node[4].content_store 	misses[4] 	39087
scalar tree_4_3_u07_r16_network.node[4].content_store 	decision_yes[4] 	68
scalar tree_4_3_u07_r16_network.node[4].content_store 	decision_no[4] 	39019
scalar tree_4_3_u07_r16_network.node[4].content_store 	decision_ratio[4] 	0.0017397088546064
scalar tree_4_3_u07_r16_network.node[5].core_layer 	interests[5] 	27432
scalar tree_4_3_u07_r16_network.node[5].core_layer 	data[5] 	24582
scalar tree_4_3_u07_r16_network.node[5].content_store 	p_hit[5] 	0.10389326334208
scalar tree_4_3_u07_r16_network.node[5].content_store 	hits[5] 	2850
scalar tree_4_3_u07_r16_network.node[5].content_store 	misses[5] 	24582
scalar tree_4_3_u07_r16_network.node[5].content_store 	decision_yes[5] 	117
scalar tree_4_3_u07_r16_network.node[5].content_store 	decision_no[5] 	24465
scalar tree_4_3_u07_r16_network.node[5].content_store 	decision_ratio[5] 	0.00475958018062
scalar tree_4_3_u07_r16_network.node[6].core_layer 	interests[6] 	12038
scalar tree_4_3_u07_r16_network.node[6].core_layer 	data[6] 	9278
scalar tree_4_3_u07_r16_network.node[6].content_store 	p_hit[6] 	0.22927396577505
scalar tree_4_3_u07_r16_network.node[6].content_store 	hits[6] 	2760
scalar tree_4_3_u07_r16_network.node[6].content_store 	misses[6] 	9278
scalar tree_4_3_u07_r16_network.node[6].content_store 	decision_yes[6] 	140
scalar tree_4_3_u07_r16_network.node[6].content_store 	decision_no[6] 	9138
scalar tree_4_3_u07_r16_network.node[6].content_store 	decision_ratio[6] 	0.015089458935115
scalar tree_4_3_u07_r16_network.node[7].core_layer 	interests[7] 	43063
scalar tree_4_3_u07_r16_network.node[7].core_layer 	data[7] 	40170
scalar tree_4_3_u07_r16_network.node[7].content_store 	p_hit[7] 	0.067180642314748
scalar tree_4_3_u07_r16_network.node[7].content_store 	hits[7] 	2893
scalar tree_4_3_u07_r16_network.node[7].content_store 	misses[7] 	40170
scalar tree_4_3_u07_r16_network.node[7].content_store 	decision_yes[7] 	114
scalar tree_4_3_u07_r16_network.node[7].content_store 	decision_no[7] 	40056
scalar tree_4_3_u07_r16_network.node[7].content_store 	decision_ratio[7] 	0.0028379387602689
scalar tree_4_3_u07_r16_network.node[8].core_layer 	interests[8] 	17964
scalar tree_4_3_u07_r16_network.node[8].core_layer 	data[8] 	16501
scalar tree_4_3_u07_r16_network.node[8].content_store 	p_hit[8] 	0.08144065909597
scalar tree_4_3_u07_r16_network.node[8].content_store 	hits[8] 	1463
scalar tree_4_3_u07_r16_network.node[8].content_store 	misses[8] 	16501
scalar tree_4_3_u07_r16_network.node[8].content_store 	decision_yes[8] 	66
scalar tree_4_3_u07_r16_network.node[8].content_store 	decision_no[8] 	16435
scalar tree_4_3_u07_r16_network.node[8].content_store 	decision_ratio[8] 	0.0039997575904491
scalar tree_4_3_u07_r16_network.node[9].core_layer 	interests[9] 	19673
scalar tree_4_3_u07_r16_network.node[9].core_layer 	data[9] 	17062
scalar tree_4_3_u07_r16_network.node[9].content_store 	p_hit[9] 	0.13271997153459
scalar tree_4_3_u07_r16_network.node[9].content_store 	hits[9] 	2611
scalar tree_4_3_u07_r16_network.node[9].content_store 	misses[9] 	17062
scalar tree_4_3_u07_r16_network.node[9].content_store 	decision_yes[9] 	93
scalar tree_4_3_u07_r16_network.node[9].content_store 	decision_no[9] 	16969
scalar tree_4_3_u07_r16_network.node[9].content_store 	decision_ratio[9] 	0.0054507091782909
scalar tree_4_3_u07_r16_network.node[10].core_layer 	interests[10] 	34817
scalar tree_4_3_u07_r16_network.node[10].core_layer 	data[10] 	32176
scalar tree_4_3_u07_r16_network.node[10].content_store 	p_hit[10] 	0.075853749605078
scalar tree_4_3_u07_r16_network.node[10].content_store 	hits[10] 	2641
scalar tree_4_3_u07_r16_network.node[10].content_store 	misses[10] 	32176
scalar tree_4_3_u07_r16_network.node[10].content_store 	decision_yes[10] 	102
scalar tree_4_3_u07_r16_network.node[10].content_store 	decision_no[10] 	32074
scalar tree_4_3_u07_r16_network.node[10].content_store 	decision_ratio[10] 	0.0031700646444555
scalar tree_4_3_u07_r16_network.node[11].core_layer 	interests[11] 	34129
scalar tree_4_3_u07_r16_network.node[11].core_layer 	data[11] 	32130
scalar tree_4_3_u07_r16_network.node[11].content_store 	p_hit[11] 	0.058542588414545
scalar tree_4_3_u07_r16_network.node[11].content_store 	hits[11] 	1998
scalar tree_4_3_u07_r16_network.node[11].content_store 	misses[11] 	32131
scalar tree_4_3_u07_r16_network.node[11].content_store 	decision_yes[11] 	74
scalar tree_4_3_u07_r16_network.node[11].content_store 	decision_no[11] 	32056
scalar tree_4_3_u07_r16_network.node[11].content_store 	decision_ratio[11] 	0.0023031434796141
scalar tree_4_3_u07_r16_network.node[12].core_layer 	interests[12] 	11099
scalar tree_4_3_u07_r16_network.node[12].core_layer 	data[12] 	8781
scalar tree_4_3_u07_r16_network.node[12].content_store 	p_hit[12] 	0.20884764393189
scalar tree_4_3_u07_r16_network.node[12].content_store 	hits[12] 	2318
scalar tree_4_3_u07_r16_network.node[12].content_store 	misses[12] 	8781
scalar tree_4_3_u07_r16_network.node[12].content_store 	decision_yes[12] 	74
scalar tree_4_3_u07_r16_network.node[12].content_store 	decision_no[12] 	8707
scalar tree_4_3_u07_r16_network.node[12].content_store 	decision_ratio[12] 	0.0084272861860836
scalar tree_4_3_u07_r16_network.node[13].core_layer 	interests[13] 	12217
scalar tree_4_3_u07_r16_network.node[13].core_layer 	data[13] 	8654
scalar tree_4_3_u07_r16_network.node[13].content_store 	p_hit[13] 	0.29164279282966
scalar tree_4_3_u07_r16_network.node[13].content_store 	hits[13] 	3563
scalar tree_4_3_u07_r16_network.node[13].content_store 	misses[13] 	8654
scalar tree_4_3_u07_r16_network.node[13].content_store 	decision_yes[13] 	25
scalar tree_4_3_u07_r16_network.node[13].content_store 	decision_no[13] 	8629
scalar tree_4_3_u07_r16_network.node[13].content_store 	decision_ratio[13] 	0.0028888375317772
scalar tree_4_3_u07_r16_network.node[14].core_layer 	interests[14] 	12657
scalar tree_4_3_u07_r16_network.node[14].core_layer 	data[14] 	8771
scalar tree_4_3_u07_r16_network.node[14].content_store 	p_hit[14] 	0.30694477364304
scalar tree_4_3_u07_r16_network.node[14].content_store 	hits[14] 	3885
scalar tree_4_3_u07_r16_network.node[14].content_store 	misses[14] 	8772
scalar tree_4_3_u07_r16_network.node[14].content_store 	decision_yes[14] 	42
scalar tree_4_3_u07_r16_network.node[14].content_store 	decision_no[14] 	8729
scalar tree_4_3_u07_r16_network.node[14].content_store 	decision_ratio[14] 	0.0047885075818037
scalar tree_4_3_u07_r16_network.node[15].core_layer 	interests[15] 	12103
scalar tree_4_3_u07_r16_network.node[15].core_layer 	data[15] 	8425
scalar tree_4_3_u07_r16_network.node[15].content_store 	p_hit[15] 	0.30380897298191
scalar tree_4_3_u07_r16_network.node[15].content_store 	hits[15] 	3677
scalar tree_4_3_u07_r16_network.node[15].content_store 	misses[15] 	8426
scalar tree_4_3_u07_r16_network.node[15].content_store 	decision_yes[15] 	21
scalar tree_4_3_u07_r16_network.node[15].content_store 	decision_no[15] 	8404
scalar tree_4_3_u07_r16_network.node[15].content_store 	decision_ratio[15] 	0.0024925816023739
scalar tree_4_3_u07_r16_network.node[16].core_layer 	interests[16] 	12614
scalar tree_4_3_u07_r16_network.node[16].core_layer 	data[16] 	8814
scalar tree_4_3_u07_r16_network.node[16].content_store 	p_hit[16] 	0.3012525765023
scalar tree_4_3_u07_r16_network.node[16].content_store 	hits[16] 	3800
scalar tree_4_3_u07_r16_network.node[16].content_store 	misses[16] 	8814
scalar tree_4_3_u07_r16_network.node[16].content_store 	decision_yes[16] 	29
scalar tree_4_3_u07_r16_network.node[16].content_store 	decision_no[16] 	8785
scalar tree_4_3_u07_r16_network.node[16].content_store 	decision_ratio[16] 	0.0032902201043794
scalar tree_4_3_u07_r16_network.node[17].core_layer 	interests[17] 	12196
scalar tree_4_3_u07_r16_network.node[17].core_layer 	data[17] 	8635
scalar tree_4_3_u07_r16_network.node[17].content_store 	p_hit[17] 	0.29198097736963
scalar tree_4_3_u07_r16_network.node[17].content_store 	hits[17] 	3561
scalar tree_4_3_u07_r16_network.node[17].content_store 	misses[17] 	8635
scalar tree_4_3_u07_r16_network.node[17].content_store 	decision_yes[17] 	18
scalar tree_4_3_u07_r16_network.node[17].content_store 	decision_no[17] 	8617
scalar tree_4_3_u07_r16_network.node[17].content_store 	decision_ratio[17] 	0.0020845396641575
scalar tree_4_3_u07_r16_network.node[18].core_layer 	interests[18] 	12580
scalar tree_4_3_u07_r16_network.node[18].core_layer 	data[18] 	8767
scalar tree_4_3_u07_r16_network.node[18].content_store 	p_hit[18] 	0.30310015898251
scalar tree_4_3_u07_r16_network.node[18].content_store 	hits[18] 	3813
scalar tree_4_3_u07_r16_network.node[18].content_store 	misses[18] 	8767
scalar tree_4_3_u07_r16_network.node[18].content_store 	decision_yes[18] 	43
scalar tree_4_3_u07_r16_network.node[18].content_store 	decision_no[18] 	8724
scalar tree_4_3_u07_r16_network.node[18].content_store 	decision_ratio[18] 	0.0049047564731379
scalar tree_4_3_u07_r16_network.node[19].core_layer 	interests[19] 	12498
scalar tree_4_3_u07_r16_network.node[19].core_layer 	data[19] 	8545
scalar tree_4_3_u07_r16_network.node[19].content_store 	p_hit[19] 	0.31629060649704
scalar tree_4_3_u07_r16_network.node[19].content_store 	hits[19] 	3953
scalar tree_4_3_u07_r16_network.node[19].content_store 	misses[19] 	8545
scalar tree_4_3_u07_r16_network.node[19].content_store 	decision_yes[19] 	39
scalar tree_4_3_u07_r16_network.node[19].content_store 	decision_no[19] 	8506
scalar tree_4_3_u07_r16_network.node[19].content_store 	decision_ratio[19] 	0.0045640725570509
scalar tree_4_3_u07_r16_network.node[20].core_layer 	interests[20] 	12562
scalar tree_4_3_u07_r16_network.node[20].core_layer 	data[20] 	8779
scalar tree_4_3_u07_r16_network.node[20].content_store 	p_hit[20] 	0.30106670912275
scalar tree_4_3_u07_r16_network.node[20].content_store 	hits[20] 	3782
scalar tree_4_3_u07_r16_network.node[20].content_store 	misses[20] 	8780
scalar tree_4_3_u07_r16_network.node[20].content_store 	decision_yes[20] 	51
scalar tree_4_3_u07_r16_network.node[20].content_store 	decision_no[20] 	8728
scalar tree_4_3_u07_r16_network.node[20].content_store 	decision_ratio[20] 	0.0058093176899419
scalar tree_4_3_u07_r16_network.node[21].core_layer 	interests[21] 	12260
scalar tree_4_3_u07_r16_network.node[21].core_layer 	data[21] 	8674
scalar tree_4_3_u07_r16_network.node[21].content_store 	p_hit[21] 	0.29249592169657
scalar tree_4_3_u07_r16_network.node[21].content_store 	hits[21] 	3586
scalar tree_4_3_u07_r16_network.node[21].content_store 	misses[21] 	8674
scalar tree_4_3_u07_r16_network.node[21].content_store 	decision_yes[21] 	31
scalar tree_4_3_u07_r16_network.node[21].content_store 	decision_no[21] 	8643
scalar tree_4_3_u07_r16_network.node[21].content_store 	decision_ratio[21] 	0.0035738990085312
scalar tree_4_3_u07_r16_network.node[22].core_layer 	interests[22] 	12358
scalar tree_4_3_u07_r16_network.node[22].core_layer 	data[22] 	8700
scalar tree_4_3_u07_r16_network.node[22].content_store 	p_hit[22] 	0.29600258941576
scalar tree_4_3_u07_r16_network.node[22].content_store 	hits[22] 	3658
scalar tree_4_3_u07_r16_network.node[22].content_store 	misses[22] 	8700
scalar tree_4_3_u07_r16_network.node[22].content_store 	decision_yes[22] 	17
scalar tree_4_3_u07_r16_network.node[22].content_store 	decision_no[22] 	8683
scalar tree_4_3_u07_r16_network.node[22].content_store 	decision_ratio[22] 	0.0019540229885057
scalar tree_4_3_u07_r16_network.node[23].core_layer 	interests[23] 	12349
scalar tree_4_3_u07_r16_network.node[23].core_layer 	data[23] 	8709
scalar tree_4_3_u07_r16_network.node[23].content_store 	p_hit[23] 	0.29476070936918
scalar tree_4_3_u07_r16_network.node[23].content_store 	hits[23] 	3640
scalar tree_4_3_u07_r16_network.node[23].content_store 	misses[23] 	8709
scalar tree_4_3_u07_r16_network.node[23].content_store 	decision_yes[23] 	17
scalar tree_4_3_u07_r16_network.node[23].content_store 	decision_no[23] 	8692
scalar tree_4_3_u07_r16_network.node[23].content_store 	decision_ratio[23] 	0.0019520036743599
scalar tree_4_3_u07_r16_network.node[24].core_layer 	interests[24] 	12636
scalar tree_4_3_u07_r16_network.node[24].core_layer 	data[24] 	8845
scalar tree_4_3_u07_r16_network.node[24].content_store 	p_hit[24] 	0.30001582779361
scalar tree_4_3_u07_r16_network.node[24].content_store 	hits[24] 	3791
scalar tree_4_3_u07_r16_network.node[24].content_store 	misses[24] 	8845
scalar tree_4_3_u07_r16_network.node[24].content_store 	decision_yes[24] 	46
scalar tree_4_3_u07_r16_network.node[24].content_store 	decision_no[24] 	8799
scalar tree_4_3_u07_r16_network.node[24].content_store 	decision_ratio[24] 	0.0052006783493499
scalar tree_4_3_u07_r16_network.node[25].core_layer 	interests[25] 	12579
scalar tree_4_3_u07_r16_network.node[25].core_layer 	data[25] 	8686
scalar tree_4_3_u07_r16_network.node[25].content_store 	p_hit[25] 	0.30948406073615
scalar tree_4_3_u07_r16_network.node[25].content_store 	hits[25] 	3893
scalar tree_4_3_u07_r16_network.node[25].content_store 	misses[25] 	8686
scalar tree_4_3_u07_r16_network.node[25].content_store 	decision_yes[25] 	41
scalar tree_4_3_u07_r16_network.node[25].content_store 	decision_no[25] 	8645
scalar tree_4_3_u07_r16_network.node[25].content_store 	decision_ratio[25] 	0.004720239465807
scalar tree_4_3_u07_r16_network.node[26].core_layer 	interests[26] 	12159
scalar tree_4_3_u07_r16_network.node[26].core_layer 	data[26] 	8622
scalar tree_4_3_u07_r16_network.node[26].content_store 	p_hit[26] 	0.29089563286454
scalar tree_4_3_u07_r16_network.node[26].content_store 	hits[26] 	3537
scalar tree_4_3_u07_r16_network.node[26].content_store 	misses[26] 	8622
scalar tree_4_3_u07_r16_network.node[26].content_store 	decision_yes[26] 	23
scalar tree_4_3_u07_r16_network.node[26].content_store 	decision_no[26] 	8599
scalar tree_4_3_u07_r16_network.node[26].content_store 	decision_ratio[26] 	0.0026675945256321
scalar tree_4_3_u07_r16_network.node[27].core_layer 	interests[27] 	12239
scalar tree_4_3_u07_r16_network.node[27].core_layer 	data[27] 	8689
scalar tree_4_3_u07_r16_network.node[27].content_store 	p_hit[27] 	0.290056377155
scalar tree_4_3_u07_r16_network.node[27].content_store 	hits[27] 	3550
scalar tree_4_3_u07_r16_network.node[27].content_store 	misses[27] 	8689
scalar tree_4_3_u07_r16_network.node[27].content_store 	decision_yes[27] 	31
scalar tree_4_3_u07_r16_network.node[27].content_store 	decision_no[27] 	8658
scalar tree_4_3_u07_r16_network.node[27].content_store 	decision_ratio[27] 	0.0035677293129244
scalar tree_4_3_u07_r16_network.node[28].core_layer 	interests[28] 	12645
scalar tree_4_3_u07_r16_network.node[28].core_layer 	data[28] 	8817
scalar tree_4_3_u07_r16_network.node[28].content_store 	p_hit[28] 	0.30272835112693
scalar tree_4_3_u07_r16_network.node[28].content_store 	hits[28] 	3828
scalar tree_4_3_u07_r16_network.node[28].content_store 	misses[28] 	8817
scalar tree_4_3_u07_r16_network.node[28].content_store 	decision_yes[28] 	43
scalar tree_4_3_u07_r16_network.node[28].content_store 	decision_no[28] 	8774
scalar tree_4_3_u07_r16_network.node[28].content_store 	decision_ratio[28] 	0.0048769422706136
scalar tree_4_3_u07_r16_network.node[29].core_layer 	interests[29] 	12255
scalar tree_4_3_u07_r16_network.node[29].core_layer 	data[29] 	8626
scalar tree_4_3_u07_r16_network.node[29].content_store 	p_hit[29] 	0.29612403100775
scalar tree_4_3_u07_r16_network.node[29].content_store 	hits[29] 	3629
scalar tree_4_3_u07_r16_network.node[29].content_store 	misses[29] 	8626
scalar tree_4_3_u07_r16_network.node[29].content_store 	decision_yes[29] 	26
scalar tree_4_3_u07_r16_network.node[29].content_store 	decision_no[29] 	8600
scalar tree_4_3_u07_r16_network.node[29].content_store 	decision_ratio[29] 	0.0030141432877348
scalar tree_4_3_u07_r16_network.node[30].core_layer 	interests[30] 	12284
scalar tree_4_3_u07_r16_network.node[30].core_layer 	data[30] 	8706
scalar tree_4_3_u07_r16_network.node[30].content_store 	p_hit[30] 	0.29127320091176
scalar tree_4_3_u07_r16_network.node[30].content_store 	hits[30] 	3578
scalar tree_4_3_u07_r16_network.node[30].content_store 	misses[30] 	8706
scalar tree_4_3_u07_r16_network.node[30].content_store 	decision_yes[30] 	25
scalar tree_4_3_u07_r16_network.node[30].content_store 	decision_no[30] 	8681
scalar tree_4_3_u07_r16_network.node[30].content_store 	decision_ratio[30] 	0.0028715828164484
scalar tree_4_3_u07_r16_network.node[31].core_layer 	interests[31] 	12135
scalar tree_4_3_u07_r16_network.node[31].core_layer 	data[31] 	8682
scalar tree_4_3_u07_r16_network.node[31].content_store 	p_hit[31] 	0.28454882571075
scalar tree_4_3_u07_r16_network.node[31].content_store 	hits[31] 	3453
scalar tree_4_3_u07_r16_network.node[31].content_store 	misses[31] 	8682
scalar tree_4_3_u07_r16_network.node[31].content_store 	decision_yes[31] 	25
scalar tree_4_3_u07_r16_network.node[31].content_store 	decision_no[31] 	8657
scalar tree_4_3_u07_r16_network.node[31].content_store 	decision_ratio[31] 	0.0028795208477309
scalar tree_4_3_u07_r16_network.node[32].core_layer 	interests[32] 	12276
scalar tree_4_3_u07_r16_network.node[32].core_layer 	data[32] 	8727
scalar tree_4_3_u07_r16_network.node[32].content_store 	p_hit[32] 	0.28910068426197
scalar tree_4_3_u07_r16_network.node[32].content_store 	hits[32] 	3549
scalar tree_4_3_u07_r16_network.node[32].content_store 	misses[32] 	8727
scalar tree_4_3_u07_r16_network.node[32].content_store 	decision_yes[32] 	30
scalar tree_4_3_u07_r16_network.node[32].content_store 	decision_no[32] 	8697
scalar tree_4_3_u07_r16_network.node[32].content_store 	decision_ratio[32] 	0.003437607425232
scalar tree_4_3_u07_r16_network.node[33].core_layer 	interests[33] 	12267
scalar tree_4_3_u07_r16_network.node[33].core_layer 	data[33] 	8662
scalar tree_4_3_u07_r16_network.node[33].content_store 	p_hit[33] 	0.29387788375316
scalar tree_4_3_u07_r16_network.node[33].content_store 	hits[33] 	3605
scalar tree_4_3_u07_r16_network.node[33].content_store 	misses[33] 	8662
scalar tree_4_3_u07_r16_network.node[33].content_store 	decision_yes[33] 	34
scalar tree_4_3_u07_r16_network.node[33].content_store 	decision_no[33] 	8628
scalar tree_4_3_u07_r16_network.node[33].content_store 	decision_ratio[33] 	0.0039251904871854
scalar tree_4_3_u07_r16_network.node[34].core_layer 	interests[34] 	12029
scalar tree_4_3_u07_r16_network.node[34].core_layer 	data[34] 	8618
scalar tree_4_3_u07_r16_network.node[34].content_store 	p_hit[34] 	0.28356471859672
scalar tree_4_3_u07_r16_network.node[34].content_store 	hits[34] 	3411
scalar tree_4_3_u07_r16_network.node[34].content_store 	misses[34] 	8618
scalar tree_4_3_u07_r16_network.node[34].content_store 	decision_yes[34] 	34
scalar tree_4_3_u07_r16_network.node[34].content_store 	decision_no[34] 	8584
scalar tree_4_3_u07_r16_network.node[34].content_store 	decision_ratio[34] 	0.0039452309120446
scalar tree_4_3_u07_r16_network.node[35].core_layer 	interests[35] 	12205
scalar tree_4_3_u07_r16_network.node[35].core_layer 	data[35] 	8725
scalar tree_4_3_u07_r16_network.node[35].content_store 	p_hit[35] 	0.28512904547317
scalar tree_4_3_u07_r16_network.node[35].content_store 	hits[35] 	3480
scalar tree_4_3_u07_r16_network.node[35].content_store 	misses[35] 	8725
scalar tree_4_3_u07_r16_network.node[35].content_store 	decision_yes[35] 	29
scalar tree_4_3_u07_r16_network.node[35].content_store 	decision_no[35] 	8696
scalar tree_4_3_u07_r16_network.node[35].content_store 	decision_ratio[35] 	0.003323782234957
scalar tree_4_3_u07_r16_network.node[36].core_layer 	interests[36] 	12483
scalar tree_4_3_u07_r16_network.node[36].core_layer 	data[36] 	8765
scalar tree_4_3_u07_r16_network.node[36].content_store 	p_hit[36] 	0.29784506929424
scalar tree_4_3_u07_r16_network.node[36].content_store 	hits[36] 	3718
scalar tree_4_3_u07_r16_network.node[36].content_store 	misses[36] 	8765
scalar tree_4_3_u07_r16_network.node[36].content_store 	decision_yes[36] 	62
scalar tree_4_3_u07_r16_network.node[36].content_store 	decision_no[36] 	8703
scalar tree_4_3_u07_r16_network.node[36].content_store 	decision_ratio[36] 	0.0070735881346264
scalar tree_4_3_u07_r16_network.node[37].core_layer 	interests[37] 	12324
scalar tree_4_3_u07_r16_network.node[37].core_layer 	data[37] 	8660
scalar tree_4_3_u07_r16_network.node[37].content_store 	p_hit[37] 	0.29730606945797
scalar tree_4_3_u07_r16_network.node[37].content_store 	hits[37] 	3664
scalar tree_4_3_u07_r16_network.node[37].content_store 	misses[37] 	8660
scalar tree_4_3_u07_r16_network.node[37].content_store 	decision_yes[37] 	46
scalar tree_4_3_u07_r16_network.node[37].content_store 	decision_no[37] 	8614
scalar tree_4_3_u07_r16_network.node[37].content_store 	decision_ratio[37] 	0.0053117782909931
scalar tree_4_3_u07_r16_network.node[38].core_layer 	interests[38] 	12295
scalar tree_4_3_u07_r16_network.node[38].core_layer 	data[38] 	8635
scalar tree_4_3_u07_r16_network.node[38].content_store 	p_hit[38] 	0.29768198454656
scalar tree_4_3_u07_r16_network.node[38].content_store 	hits[38] 	3660
scalar tree_4_3_u07_r16_network.node[38].content_store 	misses[38] 	8635
scalar tree_4_3_u07_r16_network.node[38].content_store 	decision_yes[38] 	48
scalar tree_4_3_u07_r16_network.node[38].content_store 	decision_no[38] 	8587
scalar tree_4_3_u07_r16_network.node[38].content_store 	decision_ratio[38] 	0.0055587724377533
scalar tree_4_3_u07_r16_network.node[39].core_layer 	interests[39] 	12294
scalar tree_4_3_u07_r16_network.node[39].core_layer 	data[39] 	8775
scalar tree_4_3_u07_r16_network.node[39].content_store 	p_hit[39] 	0.28623718887262
scalar tree_4_3_u07_r16_network.node[39].content_store 	hits[39] 	3519
scalar tree_4_3_u07_r16_network.node[39].content_store 	misses[39] 	8775
scalar tree_4_3_u07_r16_network.node[39].content_store 	decision_yes[39] 	20
scalar tree_4_3_u07_r16_network.node[39].content_store 	decision_no[39] 	8755
scalar tree_4_3_u07_r16_network.node[39].content_store 	decision_ratio[39] 	0.0022792022792023
scalar tree_4_3_u07_r16_network.client[13] 	hdistance[13] 	2.6397132377459
scalar tree_4_3_u07_r16_network.client[13] 	downloads[13] 	11996
scalar tree_4_3_u07_r16_network.client[13] 	avg_time[13] 	0.004092194378
scalar tree_4_3_u07_r16_network.client[14] 	hdistance[14] 	2.585035138487
scalar tree_4_3_u07_r16_network.client[14] 	downloads[14] 	12095
scalar tree_4_3_u07_r16_network.client[14] 	avg_time[14] 	0.004003469471
scalar tree_4_3_u07_r16_network.client[15] 	hdistance[15] 	2.5871374527112
scalar tree_4_3_u07_r16_network.client[15] 	downloads[15] 	11895
scalar tree_4_3_u07_r16_network.client[15] 	avg_time[15] 	0.004014716101
scalar tree_4_3_u07_r16_network.client[16] 	hdistance[16] 	2.5867653103165
scalar tree_4_3_u07_r16_network.client[16] 	downloads[16] 	12165
scalar tree_4_3_u07_r16_network.client[16] 	avg_time[16] 	0.004003778266
scalar tree_4_3_u07_r16_network.client[17] 	hdistance[17] 	2.6226304311357
scalar tree_4_3_u07_r16_network.client[17] 	downloads[17] 	11922
scalar tree_4_3_u07_r16_network.client[17] 	avg_time[17] 	0.004071293764
scalar tree_4_3_u07_r16_network.client[18] 	hdistance[18] 	2.5648601543697
scalar tree_4_3_u07_r16_network.client[18] 	downloads[18] 	12049
scalar tree_4_3_u07_r16_network.client[18] 	avg_time[18] 	0.003974932641
scalar tree_4_3_u07_r16_network.client[19] 	hdistance[19] 	2.5690864531395
scalar tree_4_3_u07_r16_network.client[19] 	downloads[19] 	11833
scalar tree_4_3_u07_r16_network.client[19] 	avg_time[19] 	0.003981573993
scalar tree_4_3_u07_r16_network.client[20] 	hdistance[20] 	2.5772107712766
scalar tree_4_3_u07_r16_network.client[20] 	downloads[20] 	12032
scalar tree_4_3_u07_r16_network.client[20] 	avg_time[20] 	0.003992802658
scalar tree_4_3_u07_r16_network.client[21] 	hdistance[21] 	2.6014426664456
scalar tree_4_3_u07_r16_network.client[21] 	downloads[21] 	12061
scalar tree_4_3_u07_r16_network.client[21] 	avg_time[21] 	0.004043608631
scalar tree_4_3_u07_r16_network.client[22] 	hdistance[22] 	2.6006625258799
scalar tree_4_3_u07_r16_network.client[22] 	downloads[22] 	12075
scalar tree_4_3_u07_r16_network.client[22] 	avg_time[22] 	0.004040216458
scalar tree_4_3_u07_r16_network.client[23] 	hdistance[23] 	2.6078754427877
scalar tree_4_3_u07_r16_network.client[23] 	downloads[23] 	12139
scalar tree_4_3_u07_r16_network.client[23] 	avg_time[23] 	0.004042339868
scalar tree_4_3_u07_r16_network.client[24] 	hdistance[24] 	2.5695867768595
scalar tree_4_3_u07_r16_network.client[24] 	downloads[24] 	12100
scalar tree_4_3_u07_r16_network.client[24] 	avg_time[24] 	0.003985947358
scalar tree_4_3_u07_r16_network.client[25] 	hdistance[25] 	2.575904419751
scalar tree_4_3_u07_r16_network.client[25] 	downloads[25] 	11969
scalar tree_4_3_u07_r16_network.client[25] 	avg_time[25] 	0.00399531827
scalar tree_4_3_u07_r16_network.client[26] 	hdistance[26] 	2.6415707853927
scalar tree_4_3_u07_r16_network.client[26] 	downloads[26] 	11994
scalar tree_4_3_u07_r16_network.client[26] 	avg_time[26] 	0.004084372537
scalar tree_4_3_u07_r16_network.client[27] 	hdistance[27] 	2.638503468781
scalar tree_4_3_u07_r16_network.client[27] 	downloads[27] 	12108
scalar tree_4_3_u07_r16_network.client[27] 	avg_time[27] 	0.004086386146
scalar tree_4_3_u07_r16_network.client[28] 	hdistance[28] 	2.6003160871735
scalar tree_4_3_u07_r16_network.client[28] 	downloads[28] 	12022
scalar tree_4_3_u07_r16_network.client[28] 	avg_time[28] 	0.004027113958
scalar tree_4_3_u07_r16_network.client[29] 	hdistance[29] 	2.6093814860938
scalar tree_4_3_u07_r16_network.client[29] 	downloads[29] 	12045
scalar tree_4_3_u07_r16_network.client[29] 	avg_time[29] 	0.004038519213
scalar tree_4_3_u07_r16_network.client[30] 	hdistance[30] 	2.6319104848736
scalar tree_4_3_u07_r16_network.client[30] 	downloads[30] 	12065
scalar tree_4_3_u07_r16_network.client[30] 	avg_time[30] 	0.004074758725
scalar tree_4_3_u07_r16_network.client[31] 	hdistance[31] 	2.6342340834937
scalar tree_4_3_u07_r16_network.client[31] 	downloads[31] 	11953
scalar tree_4_3_u07_r16_network.client[31] 	avg_time[31] 	0.004093362701
scalar tree_4_3_u07_r16_network.client[32] 	hdistance[32] 	2.6241778369828
scalar tree_4_3_u07_r16_network.client[32] 	downloads[32] 	12011
scalar tree_4_3_u07_r16_network.client[32] 	avg_time[32] 	0.004075261336
scalar tree_4_3_u07_r16_network.client[33] 	hdistance[33] 	2.6104060913706
scalar tree_4_3_u07_r16_network.client[33] 	downloads[33] 	11820
scalar tree_4_3_u07_r16_network.client[33] 	avg_time[33] 	0.004038882123
scalar tree_4_3_u07_r16_network.client[34] 	hdistance[34] 	2.6636892222129
scalar tree_4_3_u07_r16_network.client[34] 	downloads[34] 	11867
scalar tree_4_3_u07_r16_network.client[34] 	avg_time[34] 	0.004115611738
scalar tree_4_3_u07_r16_network.client[35] 	hdistance[35] 	2.6562863311742
scalar tree_4_3_u07_r16_network.client[35] 	downloads[35] 	12042
scalar tree_4_3_u07_r16_network.client[35] 	avg_time[35] 	0.004107066693
scalar tree_4_3_u07_r16_network.client[36] 	hdistance[36] 	2.6203066721923
scalar tree_4_3_u07_r16_network.client[36] 	downloads[36] 	12065
scalar tree_4_3_u07_r16_network.client[36] 	avg_time[36] 	0.004034808417
scalar tree_4_3_u07_r16_network.client[37] 	hdistance[37] 	2.5892287010586
scalar tree_4_3_u07_r16_network.client[37] 	downloads[37] 	11902
scalar tree_4_3_u07_r16_network.client[37] 	avg_time[37] 	0.004011087604
scalar tree_4_3_u07_r16_network.client[38] 	hdistance[38] 	2.6245699420995
scalar tree_4_3_u07_r16_network.client[38] 	downloads[38] 	11917
scalar tree_4_3_u07_r16_network.client[38] 	avg_time[38] 	0.004036415598
scalar tree_4_3_u07_r16_network.client[39] 	hdistance[39] 	2.6593000328623
scalar tree_4_3_u07_r16_network.client[39] 	downloads[39] 	12172
scalar tree_4_3_u07_r16_network.client[39] 	avg_time[39] 	0.004106799434
