version 2
run General-437-20160901-09:06:59-8710
attr a 0.9
attr cd tfc
attr configname General
attr cr lru
attr datetime 20160901-09:06:59
attr experiment General
attr fsize 1
attr inifile hw5115/scenario_Y/omnetp.ini
attr iterationvars "$name=tree_4_3, $un=07, $rep=6, $cd=tfc, $cr=lru, $fsize=1, $a=0.9, $sl=nrr, $ttl=1000, $variance=0.05"
attr iterationvars2 "$name=tree_4_3, $un=07, $rep=6, $cd=tfc, $cr=lru, $fsize=1, $a=0.9, $sl=nrr, $ttl=1000, $variance=0.05, $repetition=0"
attr measurement "$name=tree_4_3, $un=07, $rep=6, $cd=tfc, $cr=lru, $fsize=1, $a=0.9, $sl=nrr, $ttl=1000, $variance=0.05"
attr name tree_4_3
attr network networks.${name}_u${un}_r${rep}_network
attr processid 8710
attr rep 6
attr repetition 0
attr replication #0
attr resultdir results
attr runnumber 437
attr seedset 6
attr sl nrr
attr ttl 1000
attr un 07
attr variance 0.05

scalar . 	a 	0.9
scalar . 	fsize 	1
scalar . 	rep 	6
scalar . 	ttl 	1000
scalar . 	un 	07
scalar . 	variance 	0.05
scalar tree_4_3_u07_r6_network.content_distribution 	repo-0 	0
scalar tree_4_3_u07_r6_network.content_distribution 	client-0 	13
scalar tree_4_3_u07_r6_network.content_distribution 	client-1 	14
scalar tree_4_3_u07_r6_network.content_distribution 	client-2 	15
scalar tree_4_3_u07_r6_network.content_distribution 	client-3 	16
scalar tree_4_3_u07_r6_network.content_distribution 	client-4 	17
scalar tree_4_3_u07_r6_network.content_distribution 	client-5 	18
scalar tree_4_3_u07_r6_network.content_distribution 	client-6 	19
scalar tree_4_3_u07_r6_network.content_distribution 	client-7 	20
scalar tree_4_3_u07_r6_network.content_distribution 	client-8 	21
scalar tree_4_3_u07_r6_network.content_distribution 	client-9 	22
scalar tree_4_3_u07_r6_network.content_distribution 	client-10 	23
scalar tree_4_3_u07_r6_network.content_distribution 	client-11 	24
scalar tree_4_3_u07_r6_network.content_distribution 	client-12 	25
scalar tree_4_3_u07_r6_network.content_distribution 	client-13 	26
scalar tree_4_3_u07_r6_network.content_distribution 	client-14 	27
scalar tree_4_3_u07_r6_network.content_distribution 	client-15 	28
scalar tree_4_3_u07_r6_network.content_distribution 	client-16 	29
scalar tree_4_3_u07_r6_network.content_distribution 	client-17 	30
scalar tree_4_3_u07_r6_network.content_distribution 	client-18 	31
scalar tree_4_3_u07_r6_network.content_distribution 	client-19 	32
scalar tree_4_3_u07_r6_network.content_distribution 	client-20 	33
scalar tree_4_3_u07_r6_network.content_distribution 	client-21 	34
scalar tree_4_3_u07_r6_network.content_distribution 	client-22 	35
scalar tree_4_3_u07_r6_network.content_distribution 	client-23 	36
scalar tree_4_3_u07_r6_network.content_distribution 	client-24 	37
scalar tree_4_3_u07_r6_network.content_distribution 	client-25 	38
scalar tree_4_3_u07_r6_network.content_distribution 	client-26 	39
scalar tree_4_3_u07_r6_network.content_distribution 	repo-0_card 	100000
scalar tree_4_3_u07_r6_network.content_distribution 	repo-0_price 	0
scalar tree_4_3_u07_r6_network.statistics 	stabilization_time 	2489.2
scalar tree_4_3_u07_r6_network.statistics 	p_hit 	0.2306440844506
scalar tree_4_3_u07_r6_network.statistics 	interests 	24444.775
scalar tree_4_3_u07_r6_network.statistics 	data 	16347.125
scalar tree_4_3_u07_r6_network.statistics 	hdistance 	2.6099542498608
scalar tree_4_3_u07_r6_network.statistics 	avg_time 	0.004037561061
scalar tree_4_3_u07_r6_network.statistics 	downloads 	323903
scalar tree_4_3_u07_r6_network.statistics 	total_cost 	0
scalar tree_4_3_u07_r6_network.statistics 	total_replicas 	100000
scalar tree_4_3_u07_r6_network.statistics 	inner_hit 	0.40884771058002
scalar tree_4_3_u07_r6_network.node[0].core_layer 	interests[0] 	194891
scalar tree_4_3_u07_r6_network.node[0].core_layer 	repo_load[0] 	191476
scalar tree_4_3_u07_r6_network.node[0].core_layer 	data[0] 	0
scalar tree_4_3_u07_r6_network.node[0].core_layer 	repo_int[0] 	191476
scalar tree_4_3_u07_r6_network.node[0].content_store 	p_hit[0] 	0.017522615205423
scalar tree_4_3_u07_r6_network.node[0].content_store 	hits[0] 	3415
scalar tree_4_3_u07_r6_network.node[0].content_store 	misses[0] 	191476
scalar tree_4_3_u07_r6_network.node[0].content_store 	decision_yes[0] 	953
scalar tree_4_3_u07_r6_network.node[0].content_store 	decision_no[0] 	190523
scalar tree_4_3_u07_r6_network.node[0].content_store 	decision_ratio[0] 	0.0049771250705049
scalar tree_4_3_u07_r6_network.node[1].core_layer 	interests[1] 	129333
scalar tree_4_3_u07_r6_network.node[1].core_layer 	data[1] 	125933
scalar tree_4_3_u07_r6_network.node[1].content_store 	p_hit[1] 	0.026280995569576
scalar tree_4_3_u07_r6_network.node[1].content_store 	hits[1] 	3399
scalar tree_4_3_u07_r6_network.node[1].content_store 	misses[1] 	125934
scalar tree_4_3_u07_r6_network.node[1].content_store 	decision_yes[1] 	138
scalar tree_4_3_u07_r6_network.node[1].content_store 	decision_no[1] 	125795
scalar tree_4_3_u07_r6_network.node[1].content_store 	decision_ratio[1] 	0.0010958207935966
scalar tree_4_3_u07_r6_network.node[2].core_layer 	interests[2] 	70748
scalar tree_4_3_u07_r6_network.node[2].core_layer 	data[2] 	67844
scalar tree_4_3_u07_r6_network.node[2].content_store 	p_hit[2] 	0.041047096737717
scalar tree_4_3_u07_r6_network.node[2].content_store 	hits[2] 	2904
scalar tree_4_3_u07_r6_network.node[2].content_store 	misses[2] 	67844
scalar tree_4_3_u07_r6_network.node[2].content_store 	decision_yes[2] 	80
scalar tree_4_3_u07_r6_network.node[2].content_store 	decision_no[2] 	67764
scalar tree_4_3_u07_r6_network.node[2].content_store 	decision_ratio[2] 	0.0011791757561465
scalar tree_4_3_u07_r6_network.node[3].core_layer 	interests[3] 	9573
scalar tree_4_3_u07_r6_network.node[3].core_layer 	data[3] 	7877
scalar tree_4_3_u07_r6_network.node[3].content_store 	p_hit[3] 	0.17716494306905
scalar tree_4_3_u07_r6_network.node[3].content_store 	hits[3] 	1696
scalar tree_4_3_u07_r6_network.node[3].content_store 	misses[3] 	7877
scalar tree_4_3_u07_r6_network.node[3].content_store 	decision_yes[3] 	46
scalar tree_4_3_u07_r6_network.node[3].content_store 	decision_no[3] 	7831
scalar tree_4_3_u07_r6_network.node[3].content_store 	decision_ratio[3] 	0.0058397867208328
scalar tree_4_3_u07_r6_network.node[4].core_layer 	interests[4] 	41755
scalar tree_4_3_u07_r6_network.node[4].core_layer 	data[4] 	39280
scalar tree_4_3_u07_r6_network.node[4].content_store 	p_hit[4] 	0.059274338402587
scalar tree_4_3_u07_r6_network.node[4].content_store 	hits[4] 	2475
scalar tree_4_3_u07_r6_network.node[4].content_store 	misses[4] 	39280
scalar tree_4_3_u07_r6_network.node[4].content_store 	decision_yes[4] 	69
scalar tree_4_3_u07_r6_network.node[4].content_store 	decision_no[4] 	39211
scalar tree_4_3_u07_r6_network.node[4].content_store 	decision_ratio[4] 	0.0017566191446029
scalar tree_4_3_u07_r6_network.node[5].core_layer 	interests[5] 	18551
scalar tree_4_3_u07_r6_network.node[5].core_layer 	data[5] 	16382
scalar tree_4_3_u07_r6_network.node[5].content_store 	p_hit[5] 	0.11692092070508
scalar tree_4_3_u07_r6_network.node[5].content_store 	hits[5] 	2169
scalar tree_4_3_u07_r6_network.node[5].content_store 	misses[5] 	16382
scalar tree_4_3_u07_r6_network.node[5].content_store 	decision_yes[5] 	41
scalar tree_4_3_u07_r6_network.node[5].content_store 	decision_no[5] 	16341
scalar tree_4_3_u07_r6_network.node[5].content_store 	decision_ratio[5] 	0.0025027469173483
scalar tree_4_3_u07_r6_network.node[6].core_layer 	interests[6] 	19253
scalar tree_4_3_u07_r6_network.node[6].core_layer 	data[6] 	16723
scalar tree_4_3_u07_r6_network.node[6].content_store 	p_hit[6] 	0.13140809224536
scalar tree_4_3_u07_r6_network.node[6].content_store 	hits[6] 	2530
scalar tree_4_3_u07_r6_network.node[6].content_store 	misses[6] 	16723
scalar tree_4_3_u07_r6_network.node[6].content_store 	decision_yes[6] 	101
scalar tree_4_3_u07_r6_network.node[6].content_store 	decision_no[6] 	16622
scalar tree_4_3_u07_r6_network.node[6].content_store 	decision_ratio[6] 	0.0060395861986486
scalar tree_4_3_u07_r6_network.node[7].core_layer 	interests[7] 	35273
scalar tree_4_3_u07_r6_network.node[7].core_layer 	data[7] 	31962
scalar tree_4_3_u07_r6_network.node[7].content_store 	p_hit[7] 	0.093867830918833
scalar tree_4_3_u07_r6_network.node[7].content_store 	hits[7] 	3311
scalar tree_4_3_u07_r6_network.node[7].content_store 	misses[7] 	31962
scalar tree_4_3_u07_r6_network.node[7].content_store 	decision_yes[7] 	71
scalar tree_4_3_u07_r6_network.node[7].content_store 	decision_no[7] 	31891
scalar tree_4_3_u07_r6_network.node[7].content_store 	decision_ratio[7] 	0.002221387898129
scalar tree_4_3_u07_r6_network.node[8].core_layer 	interests[8] 	26688
scalar tree_4_3_u07_r6_network.node[8].core_layer 	data[8] 	24264
scalar tree_4_3_u07_r6_network.node[8].content_store 	p_hit[8] 	0.090827338129496
scalar tree_4_3_u07_r6_network.node[8].content_store 	hits[8] 	2424
scalar tree_4_3_u07_r6_network.node[8].content_store 	misses[8] 	24264
scalar tree_4_3_u07_r6_network.node[8].content_store 	decision_yes[8] 	85
scalar tree_4_3_u07_r6_network.node[8].content_store 	decision_no[8] 	24179
scalar tree_4_3_u07_r6_network.node[8].content_store 	decision_ratio[8] 	0.003503132212331
scalar tree_4_3_u07_r6_network.node[9].core_layer 	interests[9] 	18841
scalar tree_4_3_u07_r6_network.node[9].core_layer 	data[9] 	16783
scalar tree_4_3_u07_r6_network.node[9].content_store 	p_hit[9] 	0.10917679528687
scalar tree_4_3_u07_r6_network.node[9].content_store 	hits[9] 	2057
scalar tree_4_3_u07_r6_network.node[9].content_store 	misses[9] 	16784
scalar tree_4_3_u07_r6_network.node[9].content_store 	decision_yes[9] 	80
scalar tree_4_3_u07_r6_network.node[9].content_store 	decision_no[9] 	16703
scalar tree_4_3_u07_r6_network.node[9].content_store 	decision_ratio[9] 	0.0047667282369064
scalar tree_4_3_u07_r6_network.node[10].core_layer 	interests[10] 	34125
scalar tree_4_3_u07_r6_network.node[10].core_layer 	data[10] 	31582
scalar tree_4_3_u07_r6_network.node[10].content_store 	p_hit[10] 	0.074520146520147
scalar tree_4_3_u07_r6_network.node[10].content_store 	hits[10] 	2543
scalar tree_4_3_u07_r6_network.node[10].content_store 	misses[10] 	31582
scalar tree_4_3_u07_r6_network.node[10].content_store 	decision_yes[10] 	74
scalar tree_4_3_u07_r6_network.node[10].content_store 	decision_no[10] 	31508
scalar tree_4_3_u07_r6_network.node[10].content_store 	decision_ratio[10] 	0.0023431068330061
scalar tree_4_3_u07_r6_network.node[11].core_layer 	interests[11] 	35581
scalar tree_4_3_u07_r6_network.node[11].core_layer 	data[11] 	32890
scalar tree_4_3_u07_r6_network.node[11].content_store 	p_hit[11] 	0.07563025210084
scalar tree_4_3_u07_r6_network.node[11].content_store 	hits[11] 	2691
scalar tree_4_3_u07_r6_network.node[11].content_store 	misses[11] 	32890
scalar tree_4_3_u07_r6_network.node[11].content_store 	decision_yes[11] 	125
scalar tree_4_3_u07_r6_network.node[11].content_store 	decision_no[11] 	32765
scalar tree_4_3_u07_r6_network.node[11].content_store 	decision_ratio[11] 	0.0038005472788081
scalar tree_4_3_u07_r6_network.node[12].core_layer 	interests[12] 	10646
scalar tree_4_3_u07_r6_network.node[12].core_layer 	data[12] 	8416
scalar tree_4_3_u07_r6_network.node[12].content_store 	p_hit[12] 	0.20946834491828
scalar tree_4_3_u07_r6_network.node[12].content_store 	hits[12] 	2230
scalar tree_4_3_u07_r6_network.node[12].content_store 	misses[12] 	8416
scalar tree_4_3_u07_r6_network.node[12].content_store 	decision_yes[12] 	73
scalar tree_4_3_u07_r6_network.node[12].content_store 	decision_no[12] 	8343
scalar tree_4_3_u07_r6_network.node[12].content_store 	decision_ratio[12] 	0.0086739543726236
scalar tree_4_3_u07_r6_network.node[13].core_layer 	interests[13] 	12102
scalar tree_4_3_u07_r6_network.node[13].core_layer 	data[13] 	8609
scalar tree_4_3_u07_r6_network.node[13].content_store 	p_hit[13] 	0.28862997851595
scalar tree_4_3_u07_r6_network.node[13].content_store 	hits[13] 	3493
scalar tree_4_3_u07_r6_network.node[13].content_store 	misses[13] 	8609
scalar tree_4_3_u07_r6_network.node[13].content_store 	decision_yes[13] 	20
scalar tree_4_3_u07_r6_network.node[13].content_store 	decision_no[13] 	8589
scalar tree_4_3_u07_r6_network.node[13].content_store 	decision_ratio[13] 	0.0023231501916599
scalar tree_4_3_u07_r6_network.node[14].core_layer 	interests[14] 	12266
scalar tree_4_3_u07_r6_network.node[14].core_layer 	data[14] 	8623
scalar tree_4_3_u07_r6_network.node[14].content_store 	p_hit[14] 	0.29699983694766
scalar tree_4_3_u07_r6_network.node[14].content_store 	hits[14] 	3643
scalar tree_4_3_u07_r6_network.node[14].content_store 	misses[14] 	8623
scalar tree_4_3_u07_r6_network.node[14].content_store 	decision_yes[14] 	47
scalar tree_4_3_u07_r6_network.node[14].content_store 	decision_no[14] 	8576
scalar tree_4_3_u07_r6_network.node[14].content_store 	decision_ratio[14] 	0.0054505392554795
scalar tree_4_3_u07_r6_network.node[15].core_layer 	interests[15] 	12425
scalar tree_4_3_u07_r6_network.node[15].core_layer 	data[15] 	8654
scalar tree_4_3_u07_r6_network.node[15].content_store 	p_hit[15] 	0.30350100603622
scalar tree_4_3_u07_r6_network.node[15].content_store 	hits[15] 	3771
scalar tree_4_3_u07_r6_network.node[15].content_store 	misses[15] 	8654
scalar tree_4_3_u07_r6_network.node[15].content_store 	decision_yes[15] 	41
scalar tree_4_3_u07_r6_network.node[15].content_store 	decision_no[15] 	8613
scalar tree_4_3_u07_r6_network.node[15].content_store 	decision_ratio[15] 	0.0047376935521146
scalar tree_4_3_u07_r6_network.node[16].core_layer 	interests[16] 	12383
scalar tree_4_3_u07_r6_network.node[16].core_layer 	data[16] 	8616
scalar tree_4_3_u07_r6_network.node[16].content_store 	p_hit[16] 	0.30420738108697
scalar tree_4_3_u07_r6_network.node[16].content_store 	hits[16] 	3767
scalar tree_4_3_u07_r6_network.node[16].content_store 	misses[16] 	8616
scalar tree_4_3_u07_r6_network.node[16].content_store 	decision_yes[16] 	30
scalar tree_4_3_u07_r6_network.node[16].content_store 	decision_no[16] 	8586
scalar tree_4_3_u07_r6_network.node[16].content_store 	decision_ratio[16] 	0.0034818941504178
scalar tree_4_3_u07_r6_network.node[17].core_layer 	interests[17] 	12142
scalar tree_4_3_u07_r6_network.node[17].core_layer 	data[17] 	8612
scalar tree_4_3_u07_r6_network.node[17].content_store 	p_hit[17] 	0.29072640421677
scalar tree_4_3_u07_r6_network.node[17].content_store 	hits[17] 	3530
scalar tree_4_3_u07_r6_network.node[17].content_store 	misses[17] 	8612
scalar tree_4_3_u07_r6_network.node[17].content_store 	decision_yes[17] 	27
scalar tree_4_3_u07_r6_network.node[17].content_store 	decision_no[17] 	8585
scalar tree_4_3_u07_r6_network.node[17].content_store 	decision_ratio[17] 	0.0031351602415235
scalar tree_4_3_u07_r6_network.node[18].core_layer 	interests[18] 	12727
scalar tree_4_3_u07_r6_network.node[18].core_layer 	data[18] 	8912
scalar tree_4_3_u07_r6_network.node[18].content_store 	p_hit[18] 	0.29975642335193
scalar tree_4_3_u07_r6_network.node[18].content_store 	hits[18] 	3815
scalar tree_4_3_u07_r6_network.node[18].content_store 	misses[18] 	8912
scalar tree_4_3_u07_r6_network.node[18].content_store 	decision_yes[18] 	49
scalar tree_4_3_u07_r6_network.node[18].content_store 	decision_no[18] 	8863
scalar tree_4_3_u07_r6_network.node[18].content_store 	decision_ratio[18] 	0.0054982046678636
scalar tree_4_3_u07_r6_network.node[19].core_layer 	interests[19] 	12463
scalar tree_4_3_u07_r6_network.node[19].core_layer 	data[19] 	8603
scalar tree_4_3_u07_r6_network.node[19].content_store 	p_hit[19] 	0.30971676161438
scalar tree_4_3_u07_r6_network.node[19].content_store 	hits[19] 	3860
scalar tree_4_3_u07_r6_network.node[19].content_store 	misses[19] 	8603
scalar tree_4_3_u07_r6_network.node[19].content_store 	decision_yes[19] 	47
scalar tree_4_3_u07_r6_network.node[19].content_store 	decision_no[19] 	8556
scalar tree_4_3_u07_r6_network.node[19].content_store 	decision_ratio[19] 	0.0054632105079623
scalar tree_4_3_u07_r6_network.node[20].core_layer 	interests[20] 	12103
scalar tree_4_3_u07_r6_network.node[20].core_layer 	data[20] 	8536
scalar tree_4_3_u07_r6_network.node[20].content_store 	p_hit[20] 	0.29472031727671
scalar tree_4_3_u07_r6_network.node[20].content_store 	hits[20] 	3567
scalar tree_4_3_u07_r6_network.node[20].content_store 	misses[20] 	8536
scalar tree_4_3_u07_r6_network.node[20].content_store 	decision_yes[20] 	26
scalar tree_4_3_u07_r6_network.node[20].content_store 	decision_no[20] 	8510
scalar tree_4_3_u07_r6_network.node[20].content_store 	decision_ratio[20] 	0.0030459231490159
scalar tree_4_3_u07_r6_network.node[21].core_layer 	interests[21] 	12128
scalar tree_4_3_u07_r6_network.node[21].core_layer 	data[21] 	8602
scalar tree_4_3_u07_r6_network.node[21].content_store 	p_hit[21] 	0.29073218997361
scalar tree_4_3_u07_r6_network.node[21].content_store 	hits[21] 	3526
scalar tree_4_3_u07_r6_network.node[21].content_store 	misses[21] 	8602
scalar tree_4_3_u07_r6_network.node[21].content_store 	decision_yes[21] 	25
scalar tree_4_3_u07_r6_network.node[21].content_store 	decision_no[21] 	8577
scalar tree_4_3_u07_r6_network.node[21].content_store 	decision_ratio[21] 	0.0029063008602651
scalar tree_4_3_u07_r6_network.node[22].core_layer 	interests[22] 	12147
scalar tree_4_3_u07_r6_network.node[22].core_layer 	data[22] 	8657
scalar tree_4_3_u07_r6_network.node[22].content_store 	p_hit[22] 	0.28731374001811
scalar tree_4_3_u07_r6_network.node[22].content_store 	hits[22] 	3490
scalar tree_4_3_u07_r6_network.node[22].content_store 	misses[22] 	8657
scalar tree_4_3_u07_r6_network.node[22].content_store 	decision_yes[22] 	17
scalar tree_4_3_u07_r6_network.node[22].content_store 	decision_no[22] 	8640
scalar tree_4_3_u07_r6_network.node[22].content_store 	decision_ratio[22] 	0.0019637287744022
scalar tree_4_3_u07_r6_network.node[23].core_layer 	interests[23] 	12374
scalar tree_4_3_u07_r6_network.node[23].core_layer 	data[23] 	8711
scalar tree_4_3_u07_r6_network.node[23].content_store 	p_hit[23] 	0.29602392112494
scalar tree_4_3_u07_r6_network.node[23].content_store 	hits[23] 	3663
scalar tree_4_3_u07_r6_network.node[23].content_store 	misses[23] 	8711
scalar tree_4_3_u07_r6_network.node[23].content_store 	decision_yes[23] 	33
scalar tree_4_3_u07_r6_network.node[23].content_store 	decision_no[23] 	8678
scalar tree_4_3_u07_r6_network.node[23].content_store 	decision_ratio[23] 	0.0037883136264493
scalar tree_4_3_u07_r6_network.node[24].core_layer 	interests[24] 	12629
scalar tree_4_3_u07_r6_network.node[24].core_layer 	data[24] 	8752
scalar tree_4_3_u07_r6_network.node[24].content_store 	p_hit[24] 	0.30691266133502
scalar tree_4_3_u07_r6_network.node[24].content_store 	hits[24] 	3876
scalar tree_4_3_u07_r6_network.node[24].content_store 	misses[24] 	8753
scalar tree_4_3_u07_r6_network.node[24].content_store 	decision_yes[24] 	34
scalar tree_4_3_u07_r6_network.node[24].content_store 	decision_no[24] 	8718
scalar tree_4_3_u07_r6_network.node[24].content_store 	decision_ratio[24] 	0.0038848263254113
scalar tree_4_3_u07_r6_network.node[25].core_layer 	interests[25] 	12549
scalar tree_4_3_u07_r6_network.node[25].core_layer 	data[25] 	8807
scalar tree_4_3_u07_r6_network.node[25].content_store 	p_hit[25] 	0.29819109092358
scalar tree_4_3_u07_r6_network.node[25].content_store 	hits[25] 	3742
scalar tree_4_3_u07_r6_network.node[25].content_store 	misses[25] 	8807
scalar tree_4_3_u07_r6_network.node[25].content_store 	decision_yes[25] 	47
scalar tree_4_3_u07_r6_network.node[25].content_store 	decision_no[25] 	8760
scalar tree_4_3_u07_r6_network.node[25].content_store 	decision_ratio[25] 	0.005336664017259
scalar tree_4_3_u07_r6_network.node[26].core_layer 	interests[26] 	12093
scalar tree_4_3_u07_r6_network.node[26].core_layer 	data[26] 	8508
scalar tree_4_3_u07_r6_network.node[26].content_store 	p_hit[26] 	0.29645249317787
scalar tree_4_3_u07_r6_network.node[26].content_store 	hits[26] 	3585
scalar tree_4_3_u07_r6_network.node[26].content_store 	misses[26] 	8508
scalar tree_4_3_u07_r6_network.node[26].content_store 	decision_yes[26] 	24
scalar tree_4_3_u07_r6_network.node[26].content_store 	decision_no[26] 	8484
scalar tree_4_3_u07_r6_network.node[26].content_store 	decision_ratio[26] 	0.002820874471086
scalar tree_4_3_u07_r6_network.node[27].core_layer 	interests[27] 	12071
scalar tree_4_3_u07_r6_network.node[27].core_layer 	data[27] 	8508
scalar tree_4_3_u07_r6_network.node[27].content_store 	p_hit[27] 	0.29517024273051
scalar tree_4_3_u07_r6_network.node[27].content_store 	hits[27] 	3563
scalar tree_4_3_u07_r6_network.node[27].content_store 	misses[27] 	8508
scalar tree_4_3_u07_r6_network.node[27].content_store 	decision_yes[27] 	29
scalar tree_4_3_u07_r6_network.node[27].content_store 	decision_no[27] 	8479
scalar tree_4_3_u07_r6_network.node[27].content_store 	decision_ratio[27] 	0.0034085566525623
scalar tree_4_3_u07_r6_network.node[28].core_layer 	interests[28] 	12319
scalar tree_4_3_u07_r6_network.node[28].core_layer 	data[28] 	8788
scalar tree_4_3_u07_r6_network.node[28].content_store 	p_hit[28] 	0.28663040831236
scalar tree_4_3_u07_r6_network.node[28].content_store 	hits[28] 	3531
scalar tree_4_3_u07_r6_network.node[28].content_store 	misses[28] 	8788
scalar tree_4_3_u07_r6_network.node[28].content_store 	decision_yes[28] 	26
scalar tree_4_3_u07_r6_network.node[28].content_store 	decision_no[28] 	8762
scalar tree_4_3_u07_r6_network.node[28].content_store 	decision_ratio[28] 	0.0029585798816568
scalar tree_4_3_u07_r6_network.node[29].core_layer 	interests[29] 	12362
scalar tree_4_3_u07_r6_network.node[29].core_layer 	data[29] 	8653
scalar tree_4_3_u07_r6_network.node[29].content_store 	p_hit[29] 	0.30003235722375
scalar tree_4_3_u07_r6_network.node[29].content_store 	hits[29] 	3709
scalar tree_4_3_u07_r6_network.node[29].content_store 	misses[29] 	8653
scalar tree_4_3_u07_r6_network.node[29].content_store 	decision_yes[29] 	40
scalar tree_4_3_u07_r6_network.node[29].content_store 	decision_no[29] 	8613
scalar tree_4_3_u07_r6_network.node[29].content_store 	decision_ratio[29] 	0.0046226742170346
scalar tree_4_3_u07_r6_network.node[30].core_layer 	interests[30] 	12116
scalar tree_4_3_u07_r6_network.node[30].core_layer 	data[30] 	8654
scalar tree_4_3_u07_r6_network.node[30].content_store 	p_hit[30] 	0.28565533179267
scalar tree_4_3_u07_r6_network.node[30].content_store 	hits[30] 	3461
scalar tree_4_3_u07_r6_network.node[30].content_store 	misses[30] 	8655
scalar tree_4_3_u07_r6_network.node[30].content_store 	decision_yes[30] 	30
scalar tree_4_3_u07_r6_network.node[30].content_store 	decision_no[30] 	8624
scalar tree_4_3_u07_r6_network.node[30].content_store 	decision_ratio[30] 	0.0034666050381327
scalar tree_4_3_u07_r6_network.node[31].core_layer 	interests[31] 	12066
scalar tree_4_3_u07_r6_network.node[31].core_layer 	data[31] 	8635
scalar tree_4_3_u07_r6_network.node[31].content_store 	p_hit[31] 	0.28435272666998
scalar tree_4_3_u07_r6_network.node[31].content_store 	hits[31] 	3431
scalar tree_4_3_u07_r6_network.node[31].content_store 	misses[31] 	8635
scalar tree_4_3_u07_r6_network.node[31].content_store 	decision_yes[31] 	21
scalar tree_4_3_u07_r6_network.node[31].content_store 	decision_no[31] 	8614
scalar tree_4_3_u07_r6_network.node[31].content_store 	decision_ratio[31] 	0.0024319629415171
scalar tree_4_3_u07_r6_network.node[32].core_layer 	interests[32] 	12642
scalar tree_4_3_u07_r6_network.node[32].core_layer 	data[32] 	8820
scalar tree_4_3_u07_r6_network.node[32].content_store 	p_hit[32] 	0.30240468280335
scalar tree_4_3_u07_r6_network.node[32].content_store 	hits[32] 	3823
scalar tree_4_3_u07_r6_network.node[32].content_store 	misses[32] 	8819
scalar tree_4_3_u07_r6_network.node[32].content_store 	decision_yes[32] 	32
scalar tree_4_3_u07_r6_network.node[32].content_store 	decision_no[32] 	8788
scalar tree_4_3_u07_r6_network.node[32].content_store 	decision_ratio[32] 	0.0036281179138322
scalar tree_4_3_u07_r6_network.node[33].core_layer 	interests[33] 	12368
scalar tree_4_3_u07_r6_network.node[33].core_layer 	data[33] 	8640
scalar tree_4_3_u07_r6_network.node[33].content_store 	p_hit[33] 	0.30142302716688
scalar tree_4_3_u07_r6_network.node[33].content_store 	hits[33] 	3728
scalar tree_4_3_u07_r6_network.node[33].content_store 	misses[33] 	8640
scalar tree_4_3_u07_r6_network.node[33].content_store 	decision_yes[33] 	45
scalar tree_4_3_u07_r6_network.node[33].content_store 	decision_no[33] 	8595
scalar tree_4_3_u07_r6_network.node[33].content_store 	decision_ratio[33] 	0.0052083333333333
scalar tree_4_3_u07_r6_network.node[34].core_layer 	interests[34] 	12329
scalar tree_4_3_u07_r6_network.node[34].core_layer 	data[34] 	8668
scalar tree_4_3_u07_r6_network.node[34].content_store 	p_hit[34] 	0.29694216887014
scalar tree_4_3_u07_r6_network.node[34].content_store 	hits[34] 	3661
scalar tree_4_3_u07_r6_network.node[34].content_store 	misses[34] 	8668
scalar tree_4_3_u07_r6_network.node[34].content_store 	decision_yes[34] 	24
scalar tree_4_3_u07_r6_network.node[34].content_store 	decision_no[34] 	8644
scalar tree_4_3_u07_r6_network.node[34].content_store 	decision_ratio[34] 	0.0027688047992617
scalar tree_4_3_u07_r6_network.node[35].core_layer 	interests[35] 	12417
scalar tree_4_3_u07_r6_network.node[35].core_layer 	data[35] 	8765
scalar tree_4_3_u07_r6_network.node[35].content_store 	p_hit[35] 	0.29411290972054
scalar tree_4_3_u07_r6_network.node[35].content_store 	hits[35] 	3652
scalar tree_4_3_u07_r6_network.node[35].content_store 	misses[35] 	8765
scalar tree_4_3_u07_r6_network.node[35].content_store 	decision_yes[35] 	18
scalar tree_4_3_u07_r6_network.node[35].content_store 	decision_no[35] 	8747
scalar tree_4_3_u07_r6_network.node[35].content_store 	decision_ratio[35] 	0.0020536223616657
scalar tree_4_3_u07_r6_network.node[36].core_layer 	interests[36] 	12534
scalar tree_4_3_u07_r6_network.node[36].core_layer 	data[36] 	8759
scalar tree_4_3_u07_r6_network.node[36].content_store 	p_hit[36] 	0.30118078825594
scalar tree_4_3_u07_r6_network.node[36].content_store 	hits[36] 	3775
scalar tree_4_3_u07_r6_network.node[36].content_store 	misses[36] 	8759
scalar tree_4_3_u07_r6_network.node[36].content_store 	decision_yes[36] 	36
scalar tree_4_3_u07_r6_network.node[36].content_store 	decision_no[36] 	8723
scalar tree_4_3_u07_r6_network.node[36].content_store 	decision_ratio[36] 	0.0041100582258249
scalar tree_4_3_u07_r6_network.node[37].core_layer 	interests[37] 	12339
scalar tree_4_3_u07_r6_network.node[37].core_layer 	data[37] 	8651
scalar tree_4_3_u07_r6_network.node[37].content_store 	p_hit[37] 	0.29888969932734
scalar tree_4_3_u07_r6_network.node[37].content_store 	hits[37] 	3688
scalar tree_4_3_u07_r6_network.node[37].content_store 	misses[37] 	8651
scalar tree_4_3_u07_r6_network.node[37].content_store 	decision_yes[37] 	51
scalar tree_4_3_u07_r6_network.node[37].content_store 	decision_no[37] 	8600
scalar tree_4_3_u07_r6_network.node[37].content_store 	decision_ratio[37] 	0.0058952722228644
scalar tree_4_3_u07_r6_network.node[38].core_layer 	interests[38] 	12377
scalar tree_4_3_u07_r6_network.node[38].core_layer 	data[38] 	8778
scalar tree_4_3_u07_r6_network.node[38].content_store 	p_hit[38] 	0.29078128787267
scalar tree_4_3_u07_r6_network.node[38].content_store 	hits[38] 	3599
scalar tree_4_3_u07_r6_network.node[38].content_store 	misses[38] 	8778
scalar tree_4_3_u07_r6_network.node[38].content_store 	decision_yes[38] 	46
scalar tree_4_3_u07_r6_network.node[38].content_store 	decision_no[38] 	8732
scalar tree_4_3_u07_r6_network.node[38].content_store 	decision_ratio[38] 	0.0052403736614263
scalar tree_4_3_u07_r6_network.node[39].core_layer 	interests[39] 	12062
scalar tree_4_3_u07_r6_network.node[39].core_layer 	data[39] 	8428
scalar tree_4_3_u07_r6_network.node[39].content_store 	p_hit[39] 	0.30119383186868
scalar tree_4_3_u07_r6_network.node[39].content_store 	hits[39] 	3633
scalar tree_4_3_u07_r6_network.node[39].content_store 	misses[39] 	8429
scalar tree_4_3_u07_r6_network.node[39].content_store 	decision_yes[39] 	22
scalar tree_4_3_u07_r6_network.node[39].content_store 	decision_no[39] 	8406
scalar tree_4_3_u07_r6_network.node[39].content_store 	decision_ratio[39] 	0.0026103464641671
scalar tree_4_3_u07_r6_network.client[13] 	hdistance[13] 	2.6371177209887
scalar tree_4_3_u07_r6_network.client[13] 	downloads[13] 	11935
scalar tree_4_3_u07_r6_network.client[13] 	avg_time[13] 	0.004089816843
scalar tree_4_3_u07_r6_network.client[14] 	hdistance[14] 	2.5837537840565
scalar tree_4_3_u07_r6_network.client[14] 	downloads[14] 	11892
scalar tree_4_3_u07_r6_network.client[14] 	avg_time[14] 	0.003994615282
scalar tree_4_3_u07_r6_network.client[15] 	hdistance[15] 	2.6080026843386
scalar tree_4_3_u07_r6_network.client[15] 	downloads[15] 	11921
scalar tree_4_3_u07_r6_network.client[15] 	avg_time[15] 	0.004028350332
scalar tree_4_3_u07_r6_network.client[16] 	hdistance[16] 	2.5892514395393
scalar tree_4_3_u07_r6_network.client[16] 	downloads[16] 	11983
scalar tree_4_3_u07_r6_network.client[16] 	avg_time[16] 	0.00399248638
scalar tree_4_3_u07_r6_network.client[17] 	hdistance[17] 	2.6311236796141
scalar tree_4_3_u07_r6_network.client[17] 	downloads[17] 	12023
scalar tree_4_3_u07_r6_network.client[17] 	avg_time[17] 	0.004084002654
scalar tree_4_3_u07_r6_network.client[18] 	hdistance[18] 	2.6079679973875
scalar tree_4_3_u07_r6_network.client[18] 	downloads[18] 	12249
scalar tree_4_3_u07_r6_network.client[18] 	avg_time[18] 	0.004035428403
scalar tree_4_3_u07_r6_network.client[19] 	hdistance[19] 	2.5741978609626
scalar tree_4_3_u07_r6_network.client[19] 	downloads[19] 	11968
scalar tree_4_3_u07_r6_network.client[19] 	avg_time[19] 	0.003973760343
scalar tree_4_3_u07_r6_network.client[20] 	hdistance[20] 	2.6138821359712
scalar tree_4_3_u07_r6_network.client[20] 	downloads[20] 	11929
scalar tree_4_3_u07_r6_network.client[20] 	avg_time[20] 	0.004049121033
scalar tree_4_3_u07_r6_network.client[21] 	hdistance[21] 	2.6342054668562
scalar tree_4_3_u07_r6_network.client[21] 	downloads[21] 	11963
scalar tree_4_3_u07_r6_network.client[21] 	avg_time[21] 	0.004080277873
scalar tree_4_3_u07_r6_network.client[22] 	hdistance[22] 	2.6282853566959
scalar tree_4_3_u07_r6_network.client[22] 	downloads[22] 	11985
scalar tree_4_3_u07_r6_network.client[22] 	avg_time[22] 	0.004081932762
scalar tree_4_3_u07_r6_network.client[23] 	hdistance[23] 	2.6214231451
scalar tree_4_3_u07_r6_network.client[23] 	downloads[23] 	11847
scalar tree_4_3_u07_r6_network.client[23] 	avg_time[23] 	0.004056889112
scalar tree_4_3_u07_r6_network.client[24] 	hdistance[24] 	2.5757600793126
scalar tree_4_3_u07_r6_network.client[24] 	downloads[24] 	12104
scalar tree_4_3_u07_r6_network.client[24] 	avg_time[24] 	0.003989091523
scalar tree_4_3_u07_r6_network.client[25] 	hdistance[25] 	2.5859582228117
scalar tree_4_3_u07_r6_network.client[25] 	downloads[25] 	12064
scalar tree_4_3_u07_r6_network.client[25] 	avg_time[25] 	0.004007788771
scalar tree_4_3_u07_r6_network.client[26] 	hdistance[26] 	2.6238956668069
scalar tree_4_3_u07_r6_network.client[26] 	downloads[26] 	11885
scalar tree_4_3_u07_r6_network.client[26] 	avg_time[26] 	0.004057548553
scalar tree_4_3_u07_r6_network.client[27] 	hdistance[27] 	2.6235373347925
scalar tree_4_3_u07_r6_network.client[27] 	downloads[27] 	11879
scalar tree_4_3_u07_r6_network.client[27] 	avg_time[27] 	0.004056230714
scalar tree_4_3_u07_r6_network.client[28] 	hdistance[28] 	2.6548410938655
scalar tree_4_3_u07_r6_network.client[28] 	downloads[28] 	12177
scalar tree_4_3_u07_r6_network.client[28] 	avg_time[28] 	0.004105770169
scalar tree_4_3_u07_r6_network.client[29] 	hdistance[29] 	2.6291083768751
scalar tree_4_3_u07_r6_network.client[29] 	downloads[29] 	11866
scalar tree_4_3_u07_r6_network.client[29] 	avg_time[29] 	0.004049887492
scalar tree_4_3_u07_r6_network.client[30] 	hdistance[30] 	2.650573173793
scalar tree_4_3_u07_r6_network.client[30] 	downloads[30] 	11951
scalar tree_4_3_u07_r6_network.client[30] 	avg_time[30] 	0.004096725345
scalar tree_4_3_u07_r6_network.client[31] 	hdistance[31] 	2.6349618704433
scalar tree_4_3_u07_r6_network.client[31] 	downloads[31] 	11933
scalar tree_4_3_u07_r6_network.client[31] 	avg_time[31] 	0.004088155897
scalar tree_4_3_u07_r6_network.client[32] 	hdistance[32] 	2.599154369093
scalar tree_4_3_u07_r6_network.client[32] 	downloads[32] 	12062
scalar tree_4_3_u07_r6_network.client[32] 	avg_time[32] 	0.004024205218
scalar tree_4_3_u07_r6_network.client[33] 	hdistance[33] 	2.5666444518494
scalar tree_4_3_u07_r6_network.client[33] 	downloads[33] 	12004
scalar tree_4_3_u07_r6_network.client[33] 	avg_time[33] 	0.003967148801
scalar tree_4_3_u07_r6_network.client[34] 	hdistance[34] 	2.6016381236039
scalar tree_4_3_u07_r6_network.client[34] 	downloads[34] 	12087
scalar tree_4_3_u07_r6_network.client[34] 	avg_time[34] 	0.004027960915
scalar tree_4_3_u07_r6_network.client[35] 	hdistance[35] 	2.6192981014219
scalar tree_4_3_u07_r6_network.client[35] 	downloads[35] 	12167
scalar tree_4_3_u07_r6_network.client[35] 	avg_time[35] 	0.004055392708
scalar tree_4_3_u07_r6_network.client[36] 	hdistance[36] 	2.5708632203809
scalar tree_4_3_u07_r6_network.client[36] 	downloads[36] 	12129
scalar tree_4_3_u07_r6_network.client[36] 	avg_time[36] 	0.003972954353
scalar tree_4_3_u07_r6_network.client[37] 	hdistance[37] 	2.5755275669364
scalar tree_4_3_u07_r6_network.client[37] 	downloads[37] 	11989
scalar tree_4_3_u07_r6_network.client[37] 	avg_time[37] 	0.003984482795
scalar tree_4_3_u07_r6_network.client[38] 	hdistance[38] 	2.6185463659148
scalar tree_4_3_u07_r6_network.client[38] 	downloads[38] 	11970
scalar tree_4_3_u07_r6_network.client[38] 	avg_time[38] 	0.004048117275
scalar tree_4_3_u07_r6_network.client[39] 	hdistance[39] 	2.6092454568294
scalar tree_4_3_u07_r6_network.client[39] 	downloads[39] 	11941
scalar tree_4_3_u07_r6_network.client[39] 	avg_time[39] 	0.004016007124
