version 2
run General-440-20160901-09:13:36-8710
attr a 0.9
attr cd tfc
attr configname General
attr cr lru
attr datetime 20160901-09:13:36
attr experiment General
attr fsize 1
attr inifile hw5115/scenario_Y/omnetp.ini
attr iterationvars "$name=tree_4_3, $un=07, $rep=7, $cd=tfc, $cr=lru, $fsize=1, $a=0.9, $sl=nrr, $ttl=1000, $variance=0.05"
attr iterationvars2 "$name=tree_4_3, $un=07, $rep=7, $cd=tfc, $cr=lru, $fsize=1, $a=0.9, $sl=nrr, $ttl=1000, $variance=0.05, $repetition=0"
attr measurement "$name=tree_4_3, $un=07, $rep=7, $cd=tfc, $cr=lru, $fsize=1, $a=0.9, $sl=nrr, $ttl=1000, $variance=0.05"
attr name tree_4_3
attr network networks.${name}_u${un}_r${rep}_network
attr processid 8710
attr rep 7
attr repetition 0
attr replication #0
attr resultdir results
attr runnumber 440
attr seedset 7
attr sl nrr
attr ttl 1000
attr un 07
attr variance 0.05

scalar . 	a 	0.9
scalar . 	fsize 	1
scalar . 	rep 	7
scalar . 	ttl 	1000
scalar . 	un 	07
scalar . 	variance 	0.05
scalar tree_4_3_u07_r7_network.content_distribution 	repo-0 	0
scalar tree_4_3_u07_r7_network.content_distribution 	client-0 	13
scalar tree_4_3_u07_r7_network.content_distribution 	client-1 	14
scalar tree_4_3_u07_r7_network.content_distribution 	client-2 	15
scalar tree_4_3_u07_r7_network.content_distribution 	client-3 	16
scalar tree_4_3_u07_r7_network.content_distribution 	client-4 	17
scalar tree_4_3_u07_r7_network.content_distribution 	client-5 	18
scalar tree_4_3_u07_r7_network.content_distribution 	client-6 	19
scalar tree_4_3_u07_r7_network.content_distribution 	client-7 	20
scalar tree_4_3_u07_r7_network.content_distribution 	client-8 	21
scalar tree_4_3_u07_r7_network.content_distribution 	client-9 	22
scalar tree_4_3_u07_r7_network.content_distribution 	client-10 	23
scalar tree_4_3_u07_r7_network.content_distribution 	client-11 	24
scalar tree_4_3_u07_r7_network.content_distribution 	client-12 	25
scalar tree_4_3_u07_r7_network.content_distribution 	client-13 	26
scalar tree_4_3_u07_r7_network.content_distribution 	client-14 	27
scalar tree_4_3_u07_r7_network.content_distribution 	client-15 	28
scalar tree_4_3_u07_r7_network.content_distribution 	client-16 	29
scalar tree_4_3_u07_r7_network.content_distribution 	client-17 	30
scalar tree_4_3_u07_r7_network.content_distribution 	client-18 	31
scalar tree_4_3_u07_r7_network.content_distribution 	client-19 	32
scalar tree_4_3_u07_r7_network.content_distribution 	client-20 	33
scalar tree_4_3_u07_r7_network.content_distribution 	client-21 	34
scalar tree_4_3_u07_r7_network.content_distribution 	client-22 	35
scalar tree_4_3_u07_r7_network.content_distribution 	client-23 	36
scalar tree_4_3_u07_r7_network.content_distribution 	client-24 	37
scalar tree_4_3_u07_r7_network.content_distribution 	client-25 	38
scalar tree_4_3_u07_r7_network.content_distribution 	client-26 	39
scalar tree_4_3_u07_r7_network.content_distribution 	repo-0_card 	100000
scalar tree_4_3_u07_r7_network.content_distribution 	repo-0_price 	0
scalar tree_4_3_u07_r7_network.statistics 	stabilization_time 	2064.4
scalar tree_4_3_u07_r7_network.statistics 	p_hit 	0.2291433467794
scalar tree_4_3_u07_r7_network.statistics 	interests 	24466.375
scalar tree_4_3_u07_r7_network.statistics 	data 	16356.675
scalar tree_4_3_u07_r7_network.statistics 	hdistance 	2.6040604546355
scalar tree_4_3_u07_r7_network.statistics 	avg_time 	0.004033986417
scalar tree_4_3_u07_r7_network.statistics 	downloads 	324378
scalar tree_4_3_u07_r7_network.statistics 	total_cost 	0
scalar tree_4_3_u07_r7_network.statistics 	total_replicas 	100000
scalar tree_4_3_u07_r7_network.statistics 	inner_hit 	0.4129564890344
scalar tree_4_3_u07_r7_network.node[0].core_layer 	interests[0] 	193863
scalar tree_4_3_u07_r7_network.node[0].core_layer 	repo_load[0] 	190424
scalar tree_4_3_u07_r7_network.node[0].core_layer 	data[0] 	0
scalar tree_4_3_u07_r7_network.node[0].core_layer 	repo_int[0] 	190424
scalar tree_4_3_u07_r7_network.node[0].content_store 	p_hit[0] 	0.017739331383503
scalar tree_4_3_u07_r7_network.node[0].content_store 	hits[0] 	3439
scalar tree_4_3_u07_r7_network.node[0].content_store 	misses[0] 	190424
scalar tree_4_3_u07_r7_network.node[0].content_store 	decision_yes[0] 	955
scalar tree_4_3_u07_r7_network.node[0].content_store 	decision_no[0] 	189469
scalar tree_4_3_u07_r7_network.node[0].content_store 	decision_ratio[0] 	0.0050151241440155
scalar tree_4_3_u07_r7_network.node[1].core_layer 	interests[1] 	135605
scalar tree_4_3_u07_r7_network.node[1].core_layer 	data[1] 	132121
scalar tree_4_3_u07_r7_network.node[1].content_store 	p_hit[1] 	0.025670144906161
scalar tree_4_3_u07_r7_network.node[1].content_store 	hits[1] 	3481
scalar tree_4_3_u07_r7_network.node[1].content_store 	misses[1] 	132124
scalar tree_4_3_u07_r7_network.node[1].content_store 	decision_yes[1] 	132
scalar tree_4_3_u07_r7_network.node[1].content_store 	decision_no[1] 	131989
scalar tree_4_3_u07_r7_network.node[1].content_store 	decision_ratio[1] 	0.00099908417284156
scalar tree_4_3_u07_r7_network.node[2].core_layer 	interests[2] 	56382
scalar tree_4_3_u07_r7_network.node[2].core_layer 	data[2] 	53197
scalar tree_4_3_u07_r7_network.node[2].content_store 	p_hit[2] 	0.056471923663581
scalar tree_4_3_u07_r7_network.node[2].content_store 	hits[2] 	3184
scalar tree_4_3_u07_r7_network.node[2].content_store 	misses[2] 	53198
scalar tree_4_3_u07_r7_network.node[2].content_store 	decision_yes[2] 	86
scalar tree_4_3_u07_r7_network.node[2].content_store 	decision_no[2] 	53111
scalar tree_4_3_u07_r7_network.node[2].content_store 	decision_ratio[2] 	0.0016166325168713
scalar tree_4_3_u07_r7_network.node[3].core_layer 	interests[3] 	18276
scalar tree_4_3_u07_r7_network.node[3].core_layer 	data[3] 	15946
scalar tree_4_3_u07_r7_network.node[3].content_store 	p_hit[3] 	0.12748960385205
scalar tree_4_3_u07_r7_network.node[3].content_store 	hits[3] 	2330
scalar tree_4_3_u07_r7_network.node[3].content_store 	misses[3] 	15946
scalar tree_4_3_u07_r7_network.node[3].content_store 	decision_yes[3] 	64
scalar tree_4_3_u07_r7_network.node[3].content_store 	decision_no[3] 	15882
scalar tree_4_3_u07_r7_network.node[3].content_store 	decision_ratio[3] 	0.0040135457167942
scalar tree_4_3_u07_r7_network.node[4].core_layer 	interests[4] 	41807
scalar tree_4_3_u07_r7_network.node[4].core_layer 	data[4] 	39297
scalar tree_4_3_u07_r7_network.node[4].content_store 	p_hit[4] 	0.06001387327481
scalar tree_4_3_u07_r7_network.node[4].content_store 	hits[4] 	2509
scalar tree_4_3_u07_r7_network.node[4].content_store 	misses[4] 	39298
scalar tree_4_3_u07_r7_network.node[4].content_store 	decision_yes[4] 	73
scalar tree_4_3_u07_r7_network.node[4].content_store 	decision_no[4] 	39224
scalar tree_4_3_u07_r7_network.node[4].content_store 	decision_ratio[4] 	0.0018576481665267
scalar tree_4_3_u07_r7_network.node[5].core_layer 	interests[5] 	19613
scalar tree_4_3_u07_r7_network.node[5].core_layer 	data[5] 	16627
scalar tree_4_3_u07_r7_network.node[5].content_store 	p_hit[5] 	0.1522459593127
scalar tree_4_3_u07_r7_network.node[5].content_store 	hits[5] 	2986
scalar tree_4_3_u07_r7_network.node[5].content_store 	misses[5] 	16627
scalar tree_4_3_u07_r7_network.node[5].content_store 	decision_yes[5] 	80
scalar tree_4_3_u07_r7_network.node[5].content_store 	decision_no[5] 	16547
scalar tree_4_3_u07_r7_network.node[5].content_store 	decision_ratio[5] 	0.0048114512539845
scalar tree_4_3_u07_r7_network.node[6].core_layer 	interests[6] 	19305
scalar tree_4_3_u07_r7_network.node[6].core_layer 	data[6] 	16872
scalar tree_4_3_u07_r7_network.node[6].content_store 	p_hit[6] 	0.12602952602953
scalar tree_4_3_u07_r7_network.node[6].content_store 	hits[6] 	2433
scalar tree_4_3_u07_r7_network.node[6].content_store 	misses[6] 	16872
scalar tree_4_3_u07_r7_network.node[6].content_store 	decision_yes[6] 	87
scalar tree_4_3_u07_r7_network.node[6].content_store 	decision_no[6] 	16785
scalar tree_4_3_u07_r7_network.node[6].content_store 	decision_ratio[6] 	0.0051564722617354
scalar tree_4_3_u07_r7_network.node[7].core_layer 	interests[7] 	34899
scalar tree_4_3_u07_r7_network.node[7].core_layer 	data[7] 	32096
scalar tree_4_3_u07_r7_network.node[7].content_store 	p_hit[7] 	0.080317487607095
scalar tree_4_3_u07_r7_network.node[7].content_store 	hits[7] 	2803
scalar tree_4_3_u07_r7_network.node[7].content_store 	misses[7] 	32096
scalar tree_4_3_u07_r7_network.node[7].content_store 	decision_yes[7] 	76
scalar tree_4_3_u07_r7_network.node[7].content_store 	decision_no[7] 	32020
scalar tree_4_3_u07_r7_network.node[7].content_store 	decision_ratio[7] 	0.0023678963110668
scalar tree_4_3_u07_r7_network.node[8].core_layer 	interests[8] 	26815
scalar tree_4_3_u07_r7_network.node[8].core_layer 	data[8] 	24387
scalar tree_4_3_u07_r7_network.node[8].content_store 	p_hit[8] 	0.090509043445833
scalar tree_4_3_u07_r7_network.node[8].content_store 	hits[8] 	2427
scalar tree_4_3_u07_r7_network.node[8].content_store 	misses[8] 	24388
scalar tree_4_3_u07_r7_network.node[8].content_store 	decision_yes[8] 	78
scalar tree_4_3_u07_r7_network.node[8].content_store 	decision_no[8] 	24309
scalar tree_4_3_u07_r7_network.node[8].content_store 	decision_ratio[8] 	0.0031984253905769
scalar tree_4_3_u07_r7_network.node[9].core_layer 	interests[9] 	18935
scalar tree_4_3_u07_r7_network.node[9].core_layer 	data[9] 	16877
scalar tree_4_3_u07_r7_network.node[9].content_store 	p_hit[9] 	0.1086876155268
scalar tree_4_3_u07_r7_network.node[9].content_store 	hits[9] 	2058
scalar tree_4_3_u07_r7_network.node[9].content_store 	misses[9] 	16877
scalar tree_4_3_u07_r7_network.node[9].content_store 	decision_yes[9] 	73
scalar tree_4_3_u07_r7_network.node[9].content_store 	decision_no[9] 	16804
scalar tree_4_3_u07_r7_network.node[9].content_store 	decision_ratio[9] 	0.0043254132843515
scalar tree_4_3_u07_r7_network.node[10].core_layer 	interests[10] 	42307
scalar tree_4_3_u07_r7_network.node[10].core_layer 	data[10] 	39296
scalar tree_4_3_u07_r7_network.node[10].content_store 	p_hit[10] 	0.071122982012433
scalar tree_4_3_u07_r7_network.node[10].content_store 	hits[10] 	3009
scalar tree_4_3_u07_r7_network.node[10].content_store 	misses[10] 	39298
scalar tree_4_3_u07_r7_network.node[10].content_store 	decision_yes[10] 	94
scalar tree_4_3_u07_r7_network.node[10].content_store 	decision_no[10] 	39202
scalar tree_4_3_u07_r7_network.node[10].content_store 	decision_ratio[10] 	0.0023921009771987
scalar tree_4_3_u07_r7_network.node[11].core_layer 	interests[11] 	19336
scalar tree_4_3_u07_r7_network.node[11].core_layer 	data[11] 	16955
scalar tree_4_3_u07_r7_network.node[11].content_store 	p_hit[11] 	0.12303475382706
scalar tree_4_3_u07_r7_network.node[11].content_store 	hits[11] 	2379
scalar tree_4_3_u07_r7_network.node[11].content_store 	misses[11] 	16957
scalar tree_4_3_u07_r7_network.node[11].content_store 	decision_yes[11] 	106
scalar tree_4_3_u07_r7_network.node[11].content_store 	decision_no[11] 	16849
scalar tree_4_3_u07_r7_network.node[11].content_store 	decision_ratio[11] 	0.0062518431141256
scalar tree_4_3_u07_r7_network.node[12].core_layer 	interests[12] 	18465
scalar tree_4_3_u07_r7_network.node[12].core_layer 	data[12] 	16519
scalar tree_4_3_u07_r7_network.node[12].content_store 	p_hit[12] 	0.10533441646358
scalar tree_4_3_u07_r7_network.node[12].content_store 	hits[12] 	1945
scalar tree_4_3_u07_r7_network.node[12].content_store 	misses[12] 	16520
scalar tree_4_3_u07_r7_network.node[12].content_store 	decision_yes[12] 	63
scalar tree_4_3_u07_r7_network.node[12].content_store 	decision_no[12] 	16456
scalar tree_4_3_u07_r7_network.node[12].content_store 	decision_ratio[12] 	0.0038137901810037
scalar tree_4_3_u07_r7_network.node[13].core_layer 	interests[13] 	12101
scalar tree_4_3_u07_r7_network.node[13].core_layer 	data[13] 	8581
scalar tree_4_3_u07_r7_network.node[13].content_store 	p_hit[13] 	0.29088505082225
scalar tree_4_3_u07_r7_network.node[13].content_store 	hits[13] 	3520
scalar tree_4_3_u07_r7_network.node[13].content_store 	misses[13] 	8581
scalar tree_4_3_u07_r7_network.node[13].content_store 	decision_yes[13] 	24
scalar tree_4_3_u07_r7_network.node[13].content_store 	decision_no[13] 	8557
scalar tree_4_3_u07_r7_network.node[13].content_store 	decision_ratio[13] 	0.0027968768208833
scalar tree_4_3_u07_r7_network.node[14].core_layer 	interests[14] 	12601
scalar tree_4_3_u07_r7_network.node[14].core_layer 	data[14] 	8798
scalar tree_4_3_u07_r7_network.node[14].content_store 	p_hit[14] 	0.30180144432982
scalar tree_4_3_u07_r7_network.node[14].content_store 	hits[14] 	3803
scalar tree_4_3_u07_r7_network.node[14].content_store 	misses[14] 	8798
scalar tree_4_3_u07_r7_network.node[14].content_store 	decision_yes[14] 	38
scalar tree_4_3_u07_r7_network.node[14].content_store 	decision_no[14] 	8760
scalar tree_4_3_u07_r7_network.node[14].content_store 	decision_ratio[14] 	0.0043191634462378
scalar tree_4_3_u07_r7_network.node[15].core_layer 	interests[15] 	12580
scalar tree_4_3_u07_r7_network.node[15].core_layer 	data[15] 	8778
scalar tree_4_3_u07_r7_network.node[15].content_store 	p_hit[15] 	0.30222575516693
scalar tree_4_3_u07_r7_network.node[15].content_store 	hits[15] 	3802
scalar tree_4_3_u07_r7_network.node[15].content_store 	misses[15] 	8778
scalar tree_4_3_u07_r7_network.node[15].content_store 	decision_yes[15] 	49
scalar tree_4_3_u07_r7_network.node[15].content_store 	decision_no[15] 	8729
scalar tree_4_3_u07_r7_network.node[15].content_store 	decision_ratio[15] 	0.0055821371610845
scalar tree_4_3_u07_r7_network.node[16].core_layer 	interests[16] 	12574
scalar tree_4_3_u07_r7_network.node[16].core_layer 	data[16] 	8757
scalar tree_4_3_u07_r7_network.node[16].content_store 	p_hit[16] 	0.30356290758708
scalar tree_4_3_u07_r7_network.node[16].content_store 	hits[16] 	3817
scalar tree_4_3_u07_r7_network.node[16].content_store 	misses[16] 	8757
scalar tree_4_3_u07_r7_network.node[16].content_store 	decision_yes[16] 	31
scalar tree_4_3_u07_r7_network.node[16].content_store 	decision_no[16] 	8726
scalar tree_4_3_u07_r7_network.node[16].content_store 	decision_ratio[16] 	0.0035400251227589
scalar tree_4_3_u07_r7_network.node[17].core_layer 	interests[17] 	12083
scalar tree_4_3_u07_r7_network.node[17].core_layer 	data[17] 	8514
scalar tree_4_3_u07_r7_network.node[17].content_store 	p_hit[17] 	0.29537366548043
scalar tree_4_3_u07_r7_network.node[17].content_store 	hits[17] 	3569
scalar tree_4_3_u07_r7_network.node[17].content_store 	misses[17] 	8514
scalar tree_4_3_u07_r7_network.node[17].content_store 	decision_yes[17] 	13
scalar tree_4_3_u07_r7_network.node[17].content_store 	decision_no[17] 	8501
scalar tree_4_3_u07_r7_network.node[17].content_store 	decision_ratio[17] 	0.0015268968757341
scalar tree_4_3_u07_r7_network.node[18].core_layer 	interests[18] 	12416
scalar tree_4_3_u07_r7_network.node[18].core_layer 	data[18] 	8669
scalar tree_4_3_u07_r7_network.node[18].content_store 	p_hit[18] 	0.30178801546392
scalar tree_4_3_u07_r7_network.node[18].content_store 	hits[18] 	3747
scalar tree_4_3_u07_r7_network.node[18].content_store 	misses[18] 	8669
scalar tree_4_3_u07_r7_network.node[18].content_store 	decision_yes[18] 	39
scalar tree_4_3_u07_r7_network.node[18].content_store 	decision_no[18] 	8630
scalar tree_4_3_u07_r7_network.node[18].content_store 	decision_ratio[18] 	0.0044987887876341
scalar tree_4_3_u07_r7_network.node[19].core_layer 	interests[19] 	12412
scalar tree_4_3_u07_r7_network.node[19].core_layer 	data[19] 	8610
scalar tree_4_3_u07_r7_network.node[19].content_store 	p_hit[19] 	0.30631646793426
scalar tree_4_3_u07_r7_network.node[19].content_store 	hits[19] 	3802
scalar tree_4_3_u07_r7_network.node[19].content_store 	misses[19] 	8610
scalar tree_4_3_u07_r7_network.node[19].content_store 	decision_yes[19] 	46
scalar tree_4_3_u07_r7_network.node[19].content_store 	decision_no[19] 	8564
scalar tree_4_3_u07_r7_network.node[19].content_store 	decision_ratio[19] 	0.00534262485482
scalar tree_4_3_u07_r7_network.node[20].core_layer 	interests[20] 	12235
scalar tree_4_3_u07_r7_network.node[20].core_layer 	data[20] 	8665
scalar tree_4_3_u07_r7_network.node[20].content_store 	p_hit[20] 	0.29178586023702
scalar tree_4_3_u07_r7_network.node[20].content_store 	hits[20] 	3570
scalar tree_4_3_u07_r7_network.node[20].content_store 	misses[20] 	8665
scalar tree_4_3_u07_r7_network.node[20].content_store 	decision_yes[20] 	30
scalar tree_4_3_u07_r7_network.node[20].content_store 	decision_no[20] 	8635
scalar tree_4_3_u07_r7_network.node[20].content_store 	decision_ratio[20] 	0.0034622042700519
scalar tree_4_3_u07_r7_network.node[21].core_layer 	interests[21] 	12216
scalar tree_4_3_u07_r7_network.node[21].core_layer 	data[21] 	8737
scalar tree_4_3_u07_r7_network.node[21].content_store 	p_hit[21] 	0.28479043876883
scalar tree_4_3_u07_r7_network.node[21].content_store 	hits[21] 	3479
scalar tree_4_3_u07_r7_network.node[21].content_store 	misses[21] 	8737
scalar tree_4_3_u07_r7_network.node[21].content_store 	decision_yes[21] 	36
scalar tree_4_3_u07_r7_network.node[21].content_store 	decision_no[21] 	8701
scalar tree_4_3_u07_r7_network.node[21].content_store 	decision_ratio[21] 	0.0041204074625157
scalar tree_4_3_u07_r7_network.node[22].core_layer 	interests[22] 	12150
scalar tree_4_3_u07_r7_network.node[22].core_layer 	data[22] 	8575
scalar tree_4_3_u07_r7_network.node[22].content_store 	p_hit[22] 	0.29423868312757
scalar tree_4_3_u07_r7_network.node[22].content_store 	hits[22] 	3575
scalar tree_4_3_u07_r7_network.node[22].content_store 	misses[22] 	8575
scalar tree_4_3_u07_r7_network.node[22].content_store 	decision_yes[22] 	18
scalar tree_4_3_u07_r7_network.node[22].content_store 	decision_no[22] 	8557
scalar tree_4_3_u07_r7_network.node[22].content_store 	decision_ratio[22] 	0.0020991253644315
scalar tree_4_3_u07_r7_network.node[23].core_layer 	interests[23] 	12408
scalar tree_4_3_u07_r7_network.node[23].core_layer 	data[23] 	8507
scalar tree_4_3_u07_r7_network.node[23].content_store 	p_hit[23] 	0.31439393939394
scalar tree_4_3_u07_r7_network.node[23].content_store 	hits[23] 	3901
scalar tree_4_3_u07_r7_network.node[23].content_store 	misses[23] 	8507
scalar tree_4_3_u07_r7_network.node[23].content_store 	decision_yes[23] 	42
scalar tree_4_3_u07_r7_network.node[23].content_store 	decision_no[23] 	8465
scalar tree_4_3_u07_r7_network.node[23].content_store 	decision_ratio[23] 	0.0049371106147878
scalar tree_4_3_u07_r7_network.node[24].core_layer 	interests[24] 	12282
scalar tree_4_3_u07_r7_network.node[24].core_layer 	data[24] 	8674
scalar tree_4_3_u07_r7_network.node[24].content_store 	p_hit[24] 	0.29376323074418
scalar tree_4_3_u07_r7_network.node[24].content_store 	hits[24] 	3608
scalar tree_4_3_u07_r7_network.node[24].content_store 	misses[24] 	8674
scalar tree_4_3_u07_r7_network.node[24].content_store 	decision_yes[24] 	23
scalar tree_4_3_u07_r7_network.node[24].content_store 	decision_no[24] 	8651
scalar tree_4_3_u07_r7_network.node[24].content_store 	decision_ratio[24] 	0.0026516024902006
scalar tree_4_3_u07_r7_network.node[25].core_layer 	interests[25] 	12638
scalar tree_4_3_u07_r7_network.node[25].core_layer 	data[25] 	8804
scalar tree_4_3_u07_r7_network.node[25].content_store 	p_hit[25] 	0.30337078651685
scalar tree_4_3_u07_r7_network.node[25].content_store 	hits[25] 	3834
scalar tree_4_3_u07_r7_network.node[25].content_store 	misses[25] 	8804
scalar tree_4_3_u07_r7_network.node[25].content_store 	decision_yes[25] 	51
scalar tree_4_3_u07_r7_network.node[25].content_store 	decision_no[25] 	8753
scalar tree_4_3_u07_r7_network.node[25].content_store 	decision_ratio[25] 	0.0057928214447978
scalar tree_4_3_u07_r7_network.node[26].core_layer 	interests[26] 	12156
scalar tree_4_3_u07_r7_network.node[26].core_layer 	data[26] 	8663
scalar tree_4_3_u07_r7_network.node[26].content_store 	p_hit[26] 	0.28734781178019
scalar tree_4_3_u07_r7_network.node[26].content_store 	hits[26] 	3493
scalar tree_4_3_u07_r7_network.node[26].content_store 	misses[26] 	8663
scalar tree_4_3_u07_r7_network.node[26].content_store 	decision_yes[26] 	38
scalar tree_4_3_u07_r7_network.node[26].content_store 	decision_no[26] 	8625
scalar tree_4_3_u07_r7_network.node[26].content_store 	decision_ratio[26] 	0.0043864711993536
scalar tree_4_3_u07_r7_network.node[27].core_layer 	interests[27] 	12252
scalar tree_4_3_u07_r7_network.node[27].core_layer 	data[27] 	8736
scalar tree_4_3_u07_r7_network.node[27].content_store 	p_hit[27] 	0.2869735553379
scalar tree_4_3_u07_r7_network.node[27].content_store 	hits[27] 	3516
scalar tree_4_3_u07_r7_network.node[27].content_store 	misses[27] 	8736
scalar tree_4_3_u07_r7_network.node[27].content_store 	decision_yes[27] 	22
scalar tree_4_3_u07_r7_network.node[27].content_store 	decision_no[27] 	8714
scalar tree_4_3_u07_r7_network.node[27].content_store 	decision_ratio[27] 	0.002518315018315
scalar tree_4_3_u07_r7_network.node[28].core_layer 	interests[28] 	12174
scalar tree_4_3_u07_r7_network.node[28].core_layer 	data[28] 	8595
scalar tree_4_3_u07_r7_network.node[28].content_store 	p_hit[28] 	0.29398718580582
scalar tree_4_3_u07_r7_network.node[28].content_store 	hits[28] 	3579
scalar tree_4_3_u07_r7_network.node[28].content_store 	misses[28] 	8595
scalar tree_4_3_u07_r7_network.node[28].content_store 	decision_yes[28] 	17
scalar tree_4_3_u07_r7_network.node[28].content_store 	decision_no[28] 	8578
scalar tree_4_3_u07_r7_network.node[28].content_store 	decision_ratio[28] 	0.001977894124491
scalar tree_4_3_u07_r7_network.node[29].core_layer 	interests[29] 	12438
scalar tree_4_3_u07_r7_network.node[29].core_layer 	data[29] 	8666
scalar tree_4_3_u07_r7_network.node[29].content_store 	p_hit[29] 	0.30326419038431
scalar tree_4_3_u07_r7_network.node[29].content_store 	hits[29] 	3772
scalar tree_4_3_u07_r7_network.node[29].content_store 	misses[29] 	8666
scalar tree_4_3_u07_r7_network.node[29].content_store 	decision_yes[29] 	48
scalar tree_4_3_u07_r7_network.node[29].content_store 	decision_no[29] 	8618
scalar tree_4_3_u07_r7_network.node[29].content_store 	decision_ratio[29] 	0.005538887606739
scalar tree_4_3_u07_r7_network.node[30].core_layer 	interests[30] 	12366
scalar tree_4_3_u07_r7_network.node[30].core_layer 	data[30] 	8810
scalar tree_4_3_u07_r7_network.node[30].content_store 	p_hit[30] 	0.28756267184215
scalar tree_4_3_u07_r7_network.node[30].content_store 	hits[30] 	3556
scalar tree_4_3_u07_r7_network.node[30].content_store 	misses[30] 	8810
scalar tree_4_3_u07_r7_network.node[30].content_store 	decision_yes[30] 	35
scalar tree_4_3_u07_r7_network.node[30].content_store 	decision_no[30] 	8775
scalar tree_4_3_u07_r7_network.node[30].content_store 	decision_ratio[30] 	0.0039727582292849
scalar tree_4_3_u07_r7_network.node[31].core_layer 	interests[31] 	12138
scalar tree_4_3_u07_r7_network.node[31].core_layer 	data[31] 	8612
scalar tree_4_3_u07_r7_network.node[31].content_store 	p_hit[31] 	0.29041028175976
scalar tree_4_3_u07_r7_network.node[31].content_store 	hits[31] 	3525
scalar tree_4_3_u07_r7_network.node[31].content_store 	misses[31] 	8613
scalar tree_4_3_u07_r7_network.node[31].content_store 	decision_yes[31] 	24
scalar tree_4_3_u07_r7_network.node[31].content_store 	decision_no[31] 	8588
scalar tree_4_3_u07_r7_network.node[31].content_store 	decision_ratio[31] 	0.0027868091035764
scalar tree_4_3_u07_r7_network.node[32].core_layer 	interests[32] 	12481
scalar tree_4_3_u07_r7_network.node[32].core_layer 	data[32] 	8617
scalar tree_4_3_u07_r7_network.node[32].content_store 	p_hit[32] 	0.30959057767807
scalar tree_4_3_u07_r7_network.node[32].content_store 	hits[32] 	3864
scalar tree_4_3_u07_r7_network.node[32].content_store 	misses[32] 	8617
scalar tree_4_3_u07_r7_network.node[32].content_store 	decision_yes[32] 	42
scalar tree_4_3_u07_r7_network.node[32].content_store 	decision_no[32] 	8575
scalar tree_4_3_u07_r7_network.node[32].content_store 	decision_ratio[32] 	0.0048740861088546
scalar tree_4_3_u07_r7_network.node[33].core_layer 	interests[33] 	12491
scalar tree_4_3_u07_r7_network.node[33].core_layer 	data[33] 	8663
scalar tree_4_3_u07_r7_network.node[33].content_store 	p_hit[33] 	0.3064606516692
scalar tree_4_3_u07_r7_network.node[33].content_store 	hits[33] 	3828
scalar tree_4_3_u07_r7_network.node[33].content_store 	misses[33] 	8663
scalar tree_4_3_u07_r7_network.node[33].content_store 	decision_yes[33] 	57
scalar tree_4_3_u07_r7_network.node[33].content_store 	decision_no[33] 	8606
scalar tree_4_3_u07_r7_network.node[33].content_store 	decision_ratio[33] 	0.0065797067990304
scalar tree_4_3_u07_r7_network.node[34].core_layer 	interests[34] 	12537
scalar tree_4_3_u07_r7_network.node[34].core_layer 	data[34] 	8765
scalar tree_4_3_u07_r7_network.node[34].content_store 	p_hit[34] 	0.30086942649757
scalar tree_4_3_u07_r7_network.node[34].content_store 	hits[34] 	3772
scalar tree_4_3_u07_r7_network.node[34].content_store 	misses[34] 	8765
scalar tree_4_3_u07_r7_network.node[34].content_store 	decision_yes[34] 	34
scalar tree_4_3_u07_r7_network.node[34].content_store 	decision_no[34] 	8731
scalar tree_4_3_u07_r7_network.node[34].content_store 	decision_ratio[34] 	0.0038790644609241
scalar tree_4_3_u07_r7_network.node[35].core_layer 	interests[35] 	12223
scalar tree_4_3_u07_r7_network.node[35].core_layer 	data[35] 	8657
scalar tree_4_3_u07_r7_network.node[35].content_store 	p_hit[35] 	0.29166325779269
scalar tree_4_3_u07_r7_network.node[35].content_store 	hits[35] 	3565
scalar tree_4_3_u07_r7_network.node[35].content_store 	misses[35] 	8658
scalar tree_4_3_u07_r7_network.node[35].content_store 	decision_yes[35] 	24
scalar tree_4_3_u07_r7_network.node[35].content_store 	decision_no[35] 	8633
scalar tree_4_3_u07_r7_network.node[35].content_store 	decision_ratio[35] 	0.0027723229756267
scalar tree_4_3_u07_r7_network.node[36].core_layer 	interests[36] 	12115
scalar tree_4_3_u07_r7_network.node[36].core_layer 	data[36] 	8615
scalar tree_4_3_u07_r7_network.node[36].content_store 	p_hit[36] 	0.28881551795295
scalar tree_4_3_u07_r7_network.node[36].content_store 	hits[36] 	3499
scalar tree_4_3_u07_r7_network.node[36].content_store 	misses[36] 	8616
scalar tree_4_3_u07_r7_network.node[36].content_store 	decision_yes[36] 	27
scalar tree_4_3_u07_r7_network.node[36].content_store 	decision_no[36] 	8588
scalar tree_4_3_u07_r7_network.node[36].content_store 	decision_ratio[36] 	0.0031340684852002
scalar tree_4_3_u07_r7_network.node[37].core_layer 	interests[37] 	12525
scalar tree_4_3_u07_r7_network.node[37].core_layer 	data[37] 	8755
scalar tree_4_3_u07_r7_network.node[37].content_store 	p_hit[37] 	0.30091816367265
scalar tree_4_3_u07_r7_network.node[37].content_store 	hits[37] 	3769
scalar tree_4_3_u07_r7_network.node[37].content_store 	misses[37] 	8756
scalar tree_4_3_u07_r7_network.node[37].content_store 	decision_yes[37] 	44
scalar tree_4_3_u07_r7_network.node[37].content_store 	decision_no[37] 	8711
scalar tree_4_3_u07_r7_network.node[37].content_store 	decision_ratio[37] 	0.0050256996002284
scalar tree_4_3_u07_r7_network.node[38].core_layer 	interests[38] 	12214
scalar tree_4_3_u07_r7_network.node[38].core_layer 	data[38] 	8677
scalar tree_4_3_u07_r7_network.node[38].content_store 	p_hit[38] 	0.28958572130342
scalar tree_4_3_u07_r7_network.node[38].content_store 	hits[38] 	3537
scalar tree_4_3_u07_r7_network.node[38].content_store 	misses[38] 	8677
scalar tree_4_3_u07_r7_network.node[38].content_store 	decision_yes[38] 	34
scalar tree_4_3_u07_r7_network.node[38].content_store 	decision_no[38] 	8643
scalar tree_4_3_u07_r7_network.node[38].content_store 	decision_ratio[38] 	0.0039184049786793
scalar tree_4_3_u07_r7_network.node[39].core_layer 	interests[39] 	12241
scalar tree_4_3_u07_r7_network.node[39].core_layer 	data[39] 	8577
scalar tree_4_3_u07_r7_network.node[39].content_store 	p_hit[39] 	0.29932195082101
scalar tree_4_3_u07_r7_network.node[39].content_store 	hits[39] 	3664
scalar tree_4_3_u07_r7_network.node[39].content_store 	misses[39] 	8577
scalar tree_4_3_u07_r7_network.node[39].content_store 	decision_yes[39] 	36
scalar tree_4_3_u07_r7_network.node[39].content_store 	decision_no[39] 	8541
scalar tree_4_3_u07_r7_network.node[39].content_store 	decision_ratio[39] 	0.0041972717733473
scalar tree_4_3_u07_r7_network.client[13] 	hdistance[13] 	2.6337341293198
scalar tree_4_3_u07_r7_network.client[13] 	downloads[13] 	11893
scalar tree_4_3_u07_r7_network.client[13] 	avg_time[13] 	0.004082062096
scalar tree_4_3_u07_r7_network.client[14] 	hdistance[14] 	2.577823577906
scalar tree_4_3_u07_r7_network.client[14] 	downloads[14] 	12130
scalar tree_4_3_u07_r7_network.client[14] 	avg_time[14] 	0.003993401767
scalar tree_4_3_u07_r7_network.client[15] 	hdistance[15] 	2.6047437385968
scalar tree_4_3_u07_r7_network.client[15] 	downloads[15] 	12058
scalar tree_4_3_u07_r7_network.client[15] 	avg_time[15] 	0.004027862287
scalar tree_4_3_u07_r7_network.client[16] 	hdistance[16] 	2.5927740863787
scalar tree_4_3_u07_r7_network.client[16] 	downloads[16] 	12040
scalar tree_4_3_u07_r7_network.client[16] 	avg_time[16] 	0.004013239669
scalar tree_4_3_u07_r7_network.client[17] 	hdistance[17] 	2.6120168067227
scalar tree_4_3_u07_r7_network.client[17] 	downloads[17] 	11900
scalar tree_4_3_u07_r7_network.client[17] 	avg_time[17] 	0.004050603098
scalar tree_4_3_u07_r7_network.client[18] 	hdistance[18] 	2.5698324022347
scalar tree_4_3_u07_r7_network.client[18] 	downloads[18] 	11993
scalar tree_4_3_u07_r7_network.client[18] 	avg_time[18] 	0.003981319444
scalar tree_4_3_u07_r7_network.client[19] 	hdistance[19] 	2.5914132078642
scalar tree_4_3_u07_r7_network.client[19] 	downloads[19] 	11902
scalar tree_4_3_u07_r7_network.client[19] 	avg_time[19] 	0.004007726801
scalar tree_4_3_u07_r7_network.client[20] 	hdistance[20] 	2.6340330208247
scalar tree_4_3_u07_r7_network.client[20] 	downloads[20] 	12053
scalar tree_4_3_u07_r7_network.client[20] 	avg_time[20] 	0.004088107838
scalar tree_4_3_u07_r7_network.client[21] 	hdistance[21] 	2.650460466274
scalar tree_4_3_u07_r7_network.client[21] 	downloads[21] 	12053
scalar tree_4_3_u07_r7_network.client[21] 	avg_time[21] 	0.004107356154
scalar tree_4_3_u07_r7_network.client[22] 	hdistance[22] 	2.6190276613579
scalar tree_4_3_u07_r7_network.client[22] 	downloads[22] 	11930
scalar tree_4_3_u07_r7_network.client[22] 	avg_time[22] 	0.004071245955
scalar tree_4_3_u07_r7_network.client[23] 	hdistance[23] 	2.5601793115115
scalar tree_4_3_u07_r7_network.client[23] 	downloads[23] 	11823
scalar tree_4_3_u07_r7_network.client[23] 	avg_time[23] 	0.003963965596
scalar tree_4_3_u07_r7_network.client[24] 	hdistance[24] 	2.6088218224028
scalar tree_4_3_u07_r7_network.client[24] 	downloads[24] 	12061
scalar tree_4_3_u07_r7_network.client[24] 	avg_time[24] 	0.004060503506
scalar tree_4_3_u07_r7_network.client[25] 	hdistance[25] 	2.5878792903333
scalar tree_4_3_u07_r7_network.client[25] 	downloads[25] 	12062
scalar tree_4_3_u07_r7_network.client[25] 	avg_time[25] 	0.004009613957
scalar tree_4_3_u07_r7_network.client[26] 	hdistance[26] 	2.6441272226396
scalar tree_4_3_u07_r7_network.client[26] 	downloads[26] 	11979
scalar tree_4_3_u07_r7_network.client[26] 	avg_time[26] 	0.004096666165
scalar tree_4_3_u07_r7_network.client[27] 	hdistance[27] 	2.6518346339034
scalar tree_4_3_u07_r7_network.client[27] 	downloads[27] 	12046
scalar tree_4_3_u07_r7_network.client[27] 	avg_time[27] 	0.004106090302
scalar tree_4_3_u07_r7_network.client[28] 	hdistance[28] 	2.6138482023968
scalar tree_4_3_u07_r7_network.client[28] 	downloads[28] 	12016
scalar tree_4_3_u07_r7_network.client[28] 	avg_time[28] 	0.004050096871
scalar tree_4_3_u07_r7_network.client[29] 	hdistance[29] 	2.5826276515469
scalar tree_4_3_u07_r7_network.client[29] 	downloads[29] 	11927
scalar tree_4_3_u07_r7_network.client[29] 	avg_time[29] 	0.00399597918
scalar tree_4_3_u07_r7_network.client[30] 	hdistance[30] 	2.6295749220417
scalar tree_4_3_u07_r7_network.client[30] 	downloads[30] 	12186
scalar tree_4_3_u07_r7_network.client[30] 	avg_time[30] 	0.004077955292
scalar tree_4_3_u07_r7_network.client[31] 	hdistance[31] 	2.611752887996
scalar tree_4_3_u07_r7_network.client[31] 	downloads[31] 	11946
scalar tree_4_3_u07_r7_network.client[31] 	avg_time[31] 	0.004056417549
scalar tree_4_3_u07_r7_network.client[32] 	hdistance[32] 	2.5470598034316
scalar tree_4_3_u07_r7_network.client[32] 	downloads[32] 	12006
scalar tree_4_3_u07_r7_network.client[32] 	avg_time[32] 	0.003940924098
scalar tree_4_3_u07_r7_network.client[33] 	hdistance[33] 	2.5382328654005
scalar tree_4_3_u07_r7_network.client[33] 	downloads[33] 	12110
scalar tree_4_3_u07_r7_network.client[33] 	avg_time[33] 	0.00393393586
scalar tree_4_3_u07_r7_network.client[34] 	hdistance[34] 	2.5642361111111
scalar tree_4_3_u07_r7_network.client[34] 	downloads[34] 	12096
scalar tree_4_3_u07_r7_network.client[34] 	avg_time[34] 	0.003968581622
scalar tree_4_3_u07_r7_network.client[35] 	hdistance[35] 	2.6171926910299
scalar tree_4_3_u07_r7_network.client[35] 	downloads[35] 	12040
scalar tree_4_3_u07_r7_network.client[35] 	avg_time[35] 	0.004056973732
scalar tree_4_3_u07_r7_network.client[36] 	hdistance[36] 	2.622462674048
scalar tree_4_3_u07_r7_network.client[36] 	downloads[36] 	11922
scalar tree_4_3_u07_r7_network.client[36] 	avg_time[36] 	0.004066428819
scalar tree_4_3_u07_r7_network.client[37] 	hdistance[37] 	2.5823802420023
scalar tree_4_3_u07_r7_network.client[37] 	downloads[37] 	12066
scalar tree_4_3_u07_r7_network.client[37] 	avg_time[37] 	0.00400086789
scalar tree_4_3_u07_r7_network.client[38] 	hdistance[38] 	2.6466688763673
scalar tree_4_3_u07_r7_network.client[38] 	downloads[38] 	12068
scalar tree_4_3_u07_r7_network.client[38] 	avg_time[38] 	0.004079711946
scalar tree_4_3_u07_r7_network.client[39] 	hdistance[39] 	2.6148939695162
scalar tree_4_3_u07_r7_network.client[39] 	downloads[39] 	12072
scalar tree_4_3_u07_r7_network.client[39] 	avg_time[39] 	0.004029995791
