version 2
run General-479-20160901-10:36:45-8710
attr a 0.9
attr cd tfc
attr configname General
attr cr lru
attr datetime 20160901-10:36:45
attr experiment General
attr fsize 1
attr inifile hw5115/scenario_Y/omnetp.ini
attr iterationvars "$name=tree_4_3, $un=07, $rep=20, $cd=tfc, $cr=lru, $fsize=1, $a=0.9, $sl=nrr, $ttl=1000, $variance=0.05"
attr iterationvars2 "$name=tree_4_3, $un=07, $rep=20, $cd=tfc, $cr=lru, $fsize=1, $a=0.9, $sl=nrr, $ttl=1000, $variance=0.05, $repetition=0"
attr measurement "$name=tree_4_3, $un=07, $rep=20, $cd=tfc, $cr=lru, $fsize=1, $a=0.9, $sl=nrr, $ttl=1000, $variance=0.05"
attr name tree_4_3
attr network networks.${name}_u${un}_r${rep}_network
attr processid 8710
attr rep 20
attr repetition 0
attr replication #0
attr resultdir results
attr runnumber 479
attr seedset 20
attr sl nrr
attr ttl 1000
attr un 07
attr variance 0.05

scalar . 	a 	0.9
scalar . 	fsize 	1
scalar . 	rep 	20
scalar . 	ttl 	1000
scalar . 	un 	07
scalar . 	variance 	0.05
scalar tree_4_3_u07_r20_network.content_distribution 	repo-0 	0
scalar tree_4_3_u07_r20_network.content_distribution 	client-0 	13
scalar tree_4_3_u07_r20_network.content_distribution 	client-1 	14
scalar tree_4_3_u07_r20_network.content_distribution 	client-2 	15
scalar tree_4_3_u07_r20_network.content_distribution 	client-3 	16
scalar tree_4_3_u07_r20_network.content_distribution 	client-4 	17
scalar tree_4_3_u07_r20_network.content_distribution 	client-5 	18
scalar tree_4_3_u07_r20_network.content_distribution 	client-6 	19
scalar tree_4_3_u07_r20_network.content_distribution 	client-7 	20
scalar tree_4_3_u07_r20_network.content_distribution 	client-8 	21
scalar tree_4_3_u07_r20_network.content_distribution 	client-9 	22
scalar tree_4_3_u07_r20_network.content_distribution 	client-10 	23
scalar tree_4_3_u07_r20_network.content_distribution 	client-11 	24
scalar tree_4_3_u07_r20_network.content_distribution 	client-12 	25
scalar tree_4_3_u07_r20_network.content_distribution 	client-13 	26
scalar tree_4_3_u07_r20_network.content_distribution 	client-14 	27
scalar tree_4_3_u07_r20_network.content_distribution 	client-15 	28
scalar tree_4_3_u07_r20_network.content_distribution 	client-16 	29
scalar tree_4_3_u07_r20_network.content_distribution 	client-17 	30
scalar tree_4_3_u07_r20_network.content_distribution 	client-18 	31
scalar tree_4_3_u07_r20_network.content_distribution 	client-19 	32
scalar tree_4_3_u07_r20_network.content_distribution 	client-20 	33
scalar tree_4_3_u07_r20_network.content_distribution 	client-21 	34
scalar tree_4_3_u07_r20_network.content_distribution 	client-22 	35
scalar tree_4_3_u07_r20_network.content_distribution 	client-23 	36
scalar tree_4_3_u07_r20_network.content_distribution 	client-24 	37
scalar tree_4_3_u07_r20_network.content_distribution 	client-25 	38
scalar tree_4_3_u07_r20_network.content_distribution 	client-26 	39
scalar tree_4_3_u07_r20_network.content_distribution 	repo-0_card 	100000
scalar tree_4_3_u07_r20_network.content_distribution 	repo-0_price 	0
scalar tree_4_3_u07_r20_network.statistics 	stabilization_time 	2319.4
scalar tree_4_3_u07_r20_network.statistics 	p_hit 	0.22530763965151
scalar tree_4_3_u07_r20_network.statistics 	interests 	24475.575
scalar tree_4_3_u07_r20_network.statistics 	data 	16364.925
scalar tree_4_3_u07_r20_network.statistics 	hdistance 	2.6203787847865
scalar tree_4_3_u07_r20_network.statistics 	avg_time 	0.004035454574
scalar tree_4_3_u07_r20_network.statistics 	downloads 	324422
scalar tree_4_3_u07_r20_network.statistics 	total_cost 	0
scalar tree_4_3_u07_r20_network.statistics 	total_replicas 	100000
scalar tree_4_3_u07_r20_network.statistics 	inner_hit 	0.39740523145779
scalar tree_4_3_u07_r20_network.node[0].core_layer 	interests[0] 	199017
scalar tree_4_3_u07_r20_network.node[0].core_layer 	repo_load[0] 	195495
scalar tree_4_3_u07_r20_network.node[0].core_layer 	data[0] 	0
scalar tree_4_3_u07_r20_network.node[0].core_layer 	repo_int[0] 	195495
scalar tree_4_3_u07_r20_network.node[0].content_store 	p_hit[0] 	0.017696980659944
scalar tree_4_3_u07_r20_network.node[0].content_store 	hits[0] 	3522
scalar tree_4_3_u07_r20_network.node[0].content_store 	misses[0] 	195495
scalar tree_4_3_u07_r20_network.node[0].content_store 	decision_yes[0] 	1015
scalar tree_4_3_u07_r20_network.node[0].content_store 	decision_no[0] 	194480
scalar tree_4_3_u07_r20_network.node[0].content_store 	decision_ratio[0] 	0.0051919486431878
scalar tree_4_3_u07_r20_network.node[1].core_layer 	interests[1] 	70429
scalar tree_4_3_u07_r20_network.node[1].core_layer 	data[1] 	68534
scalar tree_4_3_u07_r20_network.node[1].content_store 	p_hit[1] 	0.026878132587428
scalar tree_4_3_u07_r20_network.node[1].content_store 	hits[1] 	1893
scalar tree_4_3_u07_r20_network.node[1].content_store 	misses[1] 	68536
scalar tree_4_3_u07_r20_network.node[1].content_store 	decision_yes[1] 	64
scalar tree_4_3_u07_r20_network.node[1].content_store 	decision_no[1] 	68470
scalar tree_4_3_u07_r20_network.node[1].content_store 	decision_ratio[1] 	0.0009338430560014
scalar tree_4_3_u07_r20_network.node[2].core_layer 	interests[2] 	107145
scalar tree_4_3_u07_r20_network.node[2].core_layer 	data[2] 	104259
scalar tree_4_3_u07_r20_network.node[2].content_store 	p_hit[2] 	0.026935461290774
scalar tree_4_3_u07_r20_network.node[2].content_store 	hits[2] 	2886
scalar tree_4_3_u07_r20_network.node[2].content_store 	misses[2] 	104259
scalar tree_4_3_u07_r20_network.node[2].content_store 	decision_yes[2] 	92
scalar tree_4_3_u07_r20_network.node[2].content_store 	decision_no[2] 	104167
scalar tree_4_3_u07_r20_network.node[2].content_store 	decision_ratio[2] 	0.00088241782484006
scalar tree_4_3_u07_r20_network.node[3].core_layer 	interests[3] 	31983
scalar tree_4_3_u07_r20_network.node[3].core_layer 	data[3] 	30373
scalar tree_4_3_u07_r20_network.node[3].content_store 	p_hit[3] 	0.050339242722696
scalar tree_4_3_u07_r20_network.node[3].content_store 	hits[3] 	1610
scalar tree_4_3_u07_r20_network.node[3].content_store 	misses[3] 	30373
scalar tree_4_3_u07_r20_network.node[3].content_store 	decision_yes[3] 	34
scalar tree_4_3_u07_r20_network.node[3].content_store 	decision_no[3] 	30339
scalar tree_4_3_u07_r20_network.node[3].content_store 	decision_ratio[3] 	0.0011194152701412
scalar tree_4_3_u07_r20_network.node[4].core_layer 	interests[4] 	33515
scalar tree_4_3_u07_r20_network.node[4].core_layer 	data[4] 	31747
scalar tree_4_3_u07_r20_network.node[4].content_store 	p_hit[4] 	0.052692824108608
scalar tree_4_3_u07_r20_network.node[4].content_store 	hits[4] 	1766
scalar tree_4_3_u07_r20_network.node[4].content_store 	misses[4] 	31749
scalar tree_4_3_u07_r20_network.node[4].content_store 	decision_yes[4] 	54
scalar tree_4_3_u07_r20_network.node[4].content_store 	decision_no[4] 	31693
scalar tree_4_3_u07_r20_network.node[4].content_store 	decision_ratio[4] 	0.0017009481210823
scalar tree_4_3_u07_r20_network.node[5].core_layer 	interests[5] 	26307
scalar tree_4_3_u07_r20_network.node[5].core_layer 	data[5] 	24088
scalar tree_4_3_u07_r20_network.node[5].content_store 	p_hit[5] 	0.084312160261527
scalar tree_4_3_u07_r20_network.node[5].content_store 	hits[5] 	2218
scalar tree_4_3_u07_r20_network.node[5].content_store 	misses[5] 	24089
scalar tree_4_3_u07_r20_network.node[5].content_store 	decision_yes[5] 	54
scalar tree_4_3_u07_r20_network.node[5].content_store 	decision_no[5] 	24034
scalar tree_4_3_u07_r20_network.node[5].content_store 	decision_ratio[5] 	0.0022417801394885
scalar tree_4_3_u07_r20_network.node[6].core_layer 	interests[6] 	19018
scalar tree_4_3_u07_r20_network.node[6].core_layer 	data[6] 	16820
scalar tree_4_3_u07_r20_network.node[6].content_store 	p_hit[6] 	0.11557471868756
scalar tree_4_3_u07_r20_network.node[6].content_store 	hits[6] 	2198
scalar tree_4_3_u07_r20_network.node[6].content_store 	misses[6] 	16820
scalar tree_4_3_u07_r20_network.node[6].content_store 	decision_yes[6] 	63
scalar tree_4_3_u07_r20_network.node[6].content_store 	decision_no[6] 	16757
scalar tree_4_3_u07_r20_network.node[6].content_store 	decision_ratio[6] 	0.0037455410225922
scalar tree_4_3_u07_r20_network.node[7].core_layer 	interests[7] 	33817
scalar tree_4_3_u07_r20_network.node[7].core_layer 	data[7] 	31761
scalar tree_4_3_u07_r20_network.node[7].content_store 	p_hit[7] 	0.060797823579856
scalar tree_4_3_u07_r20_network.node[7].content_store 	hits[7] 	2056
scalar tree_4_3_u07_r20_network.node[7].content_store 	misses[7] 	31761
scalar tree_4_3_u07_r20_network.node[7].content_store 	decision_yes[7] 	48
scalar tree_4_3_u07_r20_network.node[7].content_store 	decision_no[7] 	31713
scalar tree_4_3_u07_r20_network.node[7].content_store 	decision_ratio[7] 	0.0015112874279777
scalar tree_4_3_u07_r20_network.node[8].core_layer 	interests[8] 	26650
scalar tree_4_3_u07_r20_network.node[8].core_layer 	data[8] 	24131
scalar tree_4_3_u07_r20_network.node[8].content_store 	p_hit[8] 	0.094484052532833
scalar tree_4_3_u07_r20_network.node[8].content_store 	hits[8] 	2518
scalar tree_4_3_u07_r20_network.node[8].content_store 	misses[8] 	24132
scalar tree_4_3_u07_r20_network.node[8].content_store 	decision_yes[8] 	65
scalar tree_4_3_u07_r20_network.node[8].content_store 	decision_no[8] 	24066
scalar tree_4_3_u07_r20_network.node[8].content_store 	decision_ratio[8] 	0.0026936305996436
scalar tree_4_3_u07_r20_network.node[9].core_layer 	interests[9] 	19182
scalar tree_4_3_u07_r20_network.node[9].core_layer 	data[9] 	16763
scalar tree_4_3_u07_r20_network.node[9].content_store 	p_hit[9] 	0.12615994161193
scalar tree_4_3_u07_r20_network.node[9].content_store 	hits[9] 	2420
scalar tree_4_3_u07_r20_network.node[9].content_store 	misses[9] 	16762
scalar tree_4_3_u07_r20_network.node[9].content_store 	decision_yes[9] 	83
scalar tree_4_3_u07_r20_network.node[9].content_store 	decision_no[9] 	16680
scalar tree_4_3_u07_r20_network.node[9].content_store 	decision_ratio[9] 	0.0049513810177176
scalar tree_4_3_u07_r20_network.node[10].core_layer 	interests[10] 	26768
scalar tree_4_3_u07_r20_network.node[10].core_layer 	data[10] 	24665
scalar tree_4_3_u07_r20_network.node[10].content_store 	p_hit[10] 	0.078563956963539
scalar tree_4_3_u07_r20_network.node[10].content_store 	hits[10] 	2103
scalar tree_4_3_u07_r20_network.node[10].content_store 	misses[10] 	24665
scalar tree_4_3_u07_r20_network.node[10].content_store 	decision_yes[10] 	90
scalar tree_4_3_u07_r20_network.node[10].content_store 	decision_no[10] 	24575
scalar tree_4_3_u07_r20_network.node[10].content_store 	decision_ratio[10] 	0.0036488951956213
scalar tree_4_3_u07_r20_network.node[11].core_layer 	interests[11] 	42233
scalar tree_4_3_u07_r20_network.node[11].core_layer 	data[11] 	39184
scalar tree_4_3_u07_r20_network.node[11].content_store 	p_hit[11] 	0.072147372907442
scalar tree_4_3_u07_r20_network.node[11].content_store 	hits[11] 	3047
scalar tree_4_3_u07_r20_network.node[11].content_store 	misses[11] 	39186
scalar tree_4_3_u07_r20_network.node[11].content_store 	decision_yes[11] 	86
scalar tree_4_3_u07_r20_network.node[11].content_store 	decision_no[11] 	39098
scalar tree_4_3_u07_r20_network.node[11].content_store 	decision_ratio[11] 	0.0021947733768885
scalar tree_4_3_u07_r20_network.node[12].core_layer 	interests[12] 	10530
scalar tree_4_3_u07_r20_network.node[12].core_layer 	data[12] 	8401
scalar tree_4_3_u07_r20_network.node[12].content_store 	p_hit[12] 	0.20218423551757
scalar tree_4_3_u07_r20_network.node[12].content_store 	hits[12] 	2129
scalar tree_4_3_u07_r20_network.node[12].content_store 	misses[12] 	8401
scalar tree_4_3_u07_r20_network.node[12].content_store 	decision_yes[12] 	56
scalar tree_4_3_u07_r20_network.node[12].content_store 	decision_no[12] 	8345
scalar tree_4_3_u07_r20_network.node[12].content_store 	decision_ratio[12] 	0.006665873110344
scalar tree_4_3_u07_r20_network.node[13].core_layer 	interests[13] 	12240
scalar tree_4_3_u07_r20_network.node[13].core_layer 	data[13] 	8670
scalar tree_4_3_u07_r20_network.node[13].content_store 	p_hit[13] 	0.29158496732026
scalar tree_4_3_u07_r20_network.node[13].content_store 	hits[13] 	3569
scalar tree_4_3_u07_r20_network.node[13].content_store 	misses[13] 	8671
scalar tree_4_3_u07_r20_network.node[13].content_store 	decision_yes[13] 	20
scalar tree_4_3_u07_r20_network.node[13].content_store 	decision_no[13] 	8650
scalar tree_4_3_u07_r20_network.node[13].content_store 	decision_ratio[13] 	0.0023068050749712
scalar tree_4_3_u07_r20_network.node[14].core_layer 	interests[14] 	12152
scalar tree_4_3_u07_r20_network.node[14].core_layer 	data[14] 	8645
scalar tree_4_3_u07_r20_network.node[14].content_store 	p_hit[14] 	0.28859447004608
scalar tree_4_3_u07_r20_network.node[14].content_store 	hits[14] 	3507
scalar tree_4_3_u07_r20_network.node[14].content_store 	misses[14] 	8645
scalar tree_4_3_u07_r20_network.node[14].content_store 	decision_yes[14] 	51
scalar tree_4_3_u07_r20_network.node[14].content_store 	decision_no[14] 	8594
scalar tree_4_3_u07_r20_network.node[14].content_store 	decision_ratio[14] 	0.0058993637941006
scalar tree_4_3_u07_r20_network.node[15].core_layer 	interests[15] 	12423
scalar tree_4_3_u07_r20_network.node[15].core_layer 	data[15] 	8689
scalar tree_4_3_u07_r20_network.node[15].content_store 	p_hit[15] 	0.30057152056669
scalar tree_4_3_u07_r20_network.node[15].content_store 	hits[15] 	3734
scalar tree_4_3_u07_r20_network.node[15].content_store 	misses[15] 	8689
scalar tree_4_3_u07_r20_network.node[15].content_store 	decision_yes[15] 	44
scalar tree_4_3_u07_r20_network.node[15].content_store 	decision_no[15] 	8645
scalar tree_4_3_u07_r20_network.node[15].content_store 	decision_ratio[15] 	0.0050638738635056
scalar tree_4_3_u07_r20_network.node[16].core_layer 	interests[16] 	12504
scalar tree_4_3_u07_r20_network.node[16].core_layer 	data[16] 	8753
scalar tree_4_3_u07_r20_network.node[16].content_store 	p_hit[16] 	0.29998400511836
scalar tree_4_3_u07_r20_network.node[16].content_store 	hits[16] 	3751
scalar tree_4_3_u07_r20_network.node[16].content_store 	misses[16] 	8753
scalar tree_4_3_u07_r20_network.node[16].content_store 	decision_yes[16] 	45
scalar tree_4_3_u07_r20_network.node[16].content_store 	decision_no[16] 	8708
scalar tree_4_3_u07_r20_network.node[16].content_store 	decision_ratio[16] 	0.0051410944818919
scalar tree_4_3_u07_r20_network.node[17].core_layer 	interests[17] 	12252
scalar tree_4_3_u07_r20_network.node[17].core_layer 	data[17] 	8614
scalar tree_4_3_u07_r20_network.node[17].content_store 	p_hit[17] 	0.29684949396017
scalar tree_4_3_u07_r20_network.node[17].content_store 	hits[17] 	3637
scalar tree_4_3_u07_r20_network.node[17].content_store 	misses[17] 	8615
scalar tree_4_3_u07_r20_network.node[17].content_store 	decision_yes[17] 	26
scalar tree_4_3_u07_r20_network.node[17].content_store 	decision_no[17] 	8588
scalar tree_4_3_u07_r20_network.node[17].content_store 	decision_ratio[17] 	0.0030183422335733
scalar tree_4_3_u07_r20_network.node[18].core_layer 	interests[18] 	12153
scalar tree_4_3_u07_r20_network.node[18].core_layer 	data[18] 	8471
scalar tree_4_3_u07_r20_network.node[18].content_store 	p_hit[18] 	0.30297045996873
scalar tree_4_3_u07_r20_network.node[18].content_store 	hits[18] 	3682
scalar tree_4_3_u07_r20_network.node[18].content_store 	misses[18] 	8471
scalar tree_4_3_u07_r20_network.node[18].content_store 	decision_yes[18] 	45
scalar tree_4_3_u07_r20_network.node[18].content_store 	decision_no[18] 	8426
scalar tree_4_3_u07_r20_network.node[18].content_store 	decision_ratio[18] 	0.0053122417660253
scalar tree_4_3_u07_r20_network.node[19].core_layer 	interests[19] 	12243
scalar tree_4_3_u07_r20_network.node[19].core_layer 	data[19] 	8740
scalar tree_4_3_u07_r20_network.node[19].content_store 	p_hit[19] 	0.28604100302214
scalar tree_4_3_u07_r20_network.node[19].content_store 	hits[19] 	3502
scalar tree_4_3_u07_r20_network.node[19].content_store 	misses[19] 	8741
scalar tree_4_3_u07_r20_network.node[19].content_store 	decision_yes[19] 	30
scalar tree_4_3_u07_r20_network.node[19].content_store 	decision_no[19] 	8710
scalar tree_4_3_u07_r20_network.node[19].content_store 	decision_ratio[19] 	0.0034324942791762
scalar tree_4_3_u07_r20_network.node[20].core_layer 	interests[20] 	12268
scalar tree_4_3_u07_r20_network.node[20].core_layer 	data[20] 	8648
scalar tree_4_3_u07_r20_network.node[20].content_store 	p_hit[20] 	0.29507662210629
scalar tree_4_3_u07_r20_network.node[20].content_store 	hits[20] 	3620
scalar tree_4_3_u07_r20_network.node[20].content_store 	misses[20] 	8648
scalar tree_4_3_u07_r20_network.node[20].content_store 	decision_yes[20] 	32
scalar tree_4_3_u07_r20_network.node[20].content_store 	decision_no[20] 	8616
scalar tree_4_3_u07_r20_network.node[20].content_store 	decision_ratio[20] 	0.0037002775208141
scalar tree_4_3_u07_r20_network.node[21].core_layer 	interests[21] 	12147
scalar tree_4_3_u07_r20_network.node[21].core_layer 	data[21] 	8728
scalar tree_4_3_u07_r20_network.node[21].content_store 	p_hit[21] 	0.2814686753931
scalar tree_4_3_u07_r20_network.node[21].content_store 	hits[21] 	3419
scalar tree_4_3_u07_r20_network.node[21].content_store 	misses[21] 	8728
scalar tree_4_3_u07_r20_network.node[21].content_store 	decision_yes[21] 	24
scalar tree_4_3_u07_r20_network.node[21].content_store 	decision_no[21] 	8704
scalar tree_4_3_u07_r20_network.node[21].content_store 	decision_ratio[21] 	0.002749770852429
scalar tree_4_3_u07_r20_network.node[22].core_layer 	interests[22] 	12193
scalar tree_4_3_u07_r20_network.node[22].core_layer 	data[22] 	8602
scalar tree_4_3_u07_r20_network.node[22].content_store 	p_hit[22] 	0.29451324530468
scalar tree_4_3_u07_r20_network.node[22].content_store 	hits[22] 	3591
scalar tree_4_3_u07_r20_network.node[22].content_store 	misses[22] 	8602
scalar tree_4_3_u07_r20_network.node[22].content_store 	decision_yes[22] 	25
scalar tree_4_3_u07_r20_network.node[22].content_store 	decision_no[22] 	8577
scalar tree_4_3_u07_r20_network.node[22].content_store 	decision_ratio[22] 	0.0029063008602651
scalar tree_4_3_u07_r20_network.node[23].core_layer 	interests[23] 	12491
scalar tree_4_3_u07_r20_network.node[23].core_layer 	data[23] 	8864
scalar tree_4_3_u07_r20_network.node[23].content_store 	p_hit[23] 	0.29036906572732
scalar tree_4_3_u07_r20_network.node[23].content_store 	hits[23] 	3627
scalar tree_4_3_u07_r20_network.node[23].content_store 	misses[23] 	8864
scalar tree_4_3_u07_r20_network.node[23].content_store 	decision_yes[23] 	47
scalar tree_4_3_u07_r20_network.node[23].content_store 	decision_no[23] 	8817
scalar tree_4_3_u07_r20_network.node[23].content_store 	decision_ratio[23] 	0.0053023465703971
scalar tree_4_3_u07_r20_network.node[24].core_layer 	interests[24] 	12375
scalar tree_4_3_u07_r20_network.node[24].core_layer 	data[24] 	8731
scalar tree_4_3_u07_r20_network.node[24].content_store 	p_hit[24] 	0.29454545454545
scalar tree_4_3_u07_r20_network.node[24].content_store 	hits[24] 	3645
scalar tree_4_3_u07_r20_network.node[24].content_store 	misses[24] 	8730
scalar tree_4_3_u07_r20_network.node[24].content_store 	decision_yes[24] 	45
scalar tree_4_3_u07_r20_network.node[24].content_store 	decision_no[24] 	8686
scalar tree_4_3_u07_r20_network.node[24].content_store 	decision_ratio[24] 	0.0051540487916619
scalar tree_4_3_u07_r20_network.node[25].core_layer 	interests[25] 	12569
scalar tree_4_3_u07_r20_network.node[25].core_layer 	data[25] 	8810
scalar tree_4_3_u07_r20_network.node[25].content_store 	p_hit[25] 	0.29906913835627
scalar tree_4_3_u07_r20_network.node[25].content_store 	hits[25] 	3759
scalar tree_4_3_u07_r20_network.node[25].content_store 	misses[25] 	8810
scalar tree_4_3_u07_r20_network.node[25].content_store 	decision_yes[25] 	38
scalar tree_4_3_u07_r20_network.node[25].content_store 	decision_no[25] 	8772
scalar tree_4_3_u07_r20_network.node[25].content_store 	decision_ratio[25] 	0.0043132803632236
scalar tree_4_3_u07_r20_network.node[26].core_layer 	interests[26] 	12090
scalar tree_4_3_u07_r20_network.node[26].core_layer 	data[26] 	8477
scalar tree_4_3_u07_r20_network.node[26].content_store 	p_hit[26] 	0.29884201819686
scalar tree_4_3_u07_r20_network.node[26].content_store 	hits[26] 	3613
scalar tree_4_3_u07_r20_network.node[26].content_store 	misses[26] 	8477
scalar tree_4_3_u07_r20_network.node[26].content_store 	decision_yes[26] 	19
scalar tree_4_3_u07_r20_network.node[26].content_store 	decision_no[26] 	8458
scalar tree_4_3_u07_r20_network.node[26].content_store 	decision_ratio[26] 	0.0022413589713342
scalar tree_4_3_u07_r20_network.node[27].core_layer 	interests[27] 	12436
scalar tree_4_3_u07_r20_network.node[27].core_layer 	data[27] 	8626
scalar tree_4_3_u07_r20_network.node[27].content_store 	p_hit[27] 	0.30636860726922
scalar tree_4_3_u07_r20_network.node[27].content_store 	hits[27] 	3810
scalar tree_4_3_u07_r20_network.node[27].content_store 	misses[27] 	8626
scalar tree_4_3_u07_r20_network.node[27].content_store 	decision_yes[27] 	39
scalar tree_4_3_u07_r20_network.node[27].content_store 	decision_no[27] 	8587
scalar tree_4_3_u07_r20_network.node[27].content_store 	decision_ratio[27] 	0.0045212149316021
scalar tree_4_3_u07_r20_network.node[28].core_layer 	interests[28] 	12269
scalar tree_4_3_u07_r20_network.node[28].core_layer 	data[28] 	8621
scalar tree_4_3_u07_r20_network.node[28].content_store 	p_hit[28] 	0.29733474610808
scalar tree_4_3_u07_r20_network.node[28].content_store 	hits[28] 	3648
scalar tree_4_3_u07_r20_network.node[28].content_store 	misses[28] 	8621
scalar tree_4_3_u07_r20_network.node[28].content_store 	decision_yes[28] 	30
scalar tree_4_3_u07_r20_network.node[28].content_store 	decision_no[28] 	8591
scalar tree_4_3_u07_r20_network.node[28].content_store 	decision_ratio[28] 	0.0034798747245099
scalar tree_4_3_u07_r20_network.node[29].core_layer 	interests[29] 	12472
scalar tree_4_3_u07_r20_network.node[29].core_layer 	data[29] 	8716
scalar tree_4_3_u07_r20_network.node[29].content_store 	p_hit[29] 	0.30115458627325
scalar tree_4_3_u07_r20_network.node[29].content_store 	hits[29] 	3756
scalar tree_4_3_u07_r20_network.node[29].content_store 	misses[29] 	8716
scalar tree_4_3_u07_r20_network.node[29].content_store 	decision_yes[29] 	58
scalar tree_4_3_u07_r20_network.node[29].content_store 	decision_no[29] 	8658
scalar tree_4_3_u07_r20_network.node[29].content_store 	decision_ratio[29] 	0.0066544286369894
scalar tree_4_3_u07_r20_network.node[30].core_layer 	interests[30] 	12240
scalar tree_4_3_u07_r20_network.node[30].core_layer 	data[30] 	8663
scalar tree_4_3_u07_r20_network.node[30].content_store 	p_hit[30] 	0.2922385620915
scalar tree_4_3_u07_r20_network.node[30].content_store 	hits[30] 	3577
scalar tree_4_3_u07_r20_network.node[30].content_store 	misses[30] 	8663
scalar tree_4_3_u07_r20_network.node[30].content_store 	decision_yes[30] 	29
scalar tree_4_3_u07_r20_network.node[30].content_store 	decision_no[30] 	8634
scalar tree_4_3_u07_r20_network.node[30].content_store 	decision_ratio[30] 	0.0033475701258225
scalar tree_4_3_u07_r20_network.node[31].core_layer 	interests[31] 	12286
scalar tree_4_3_u07_r20_network.node[31].core_layer 	data[31] 	8700
scalar tree_4_3_u07_r20_network.node[31].content_store 	p_hit[31] 	0.29187693309458
scalar tree_4_3_u07_r20_network.node[31].content_store 	hits[31] 	3586
scalar tree_4_3_u07_r20_network.node[31].content_store 	misses[31] 	8700
scalar tree_4_3_u07_r20_network.node[31].content_store 	decision_yes[31] 	27
scalar tree_4_3_u07_r20_network.node[31].content_store 	decision_no[31] 	8673
scalar tree_4_3_u07_r20_network.node[31].content_store 	decision_ratio[31] 	0.0031034482758621
scalar tree_4_3_u07_r20_network.node[32].core_layer 	interests[32] 	12469
scalar tree_4_3_u07_r20_network.node[32].core_layer 	data[32] 	8643
scalar tree_4_3_u07_r20_network.node[32].content_store 	p_hit[32] 	0.30684096559467
scalar tree_4_3_u07_r20_network.node[32].content_store 	hits[32] 	3826
scalar tree_4_3_u07_r20_network.node[32].content_store 	misses[32] 	8643
scalar tree_4_3_u07_r20_network.node[32].content_store 	decision_yes[32] 	47
scalar tree_4_3_u07_r20_network.node[32].content_store 	decision_no[32] 	8596
scalar tree_4_3_u07_r20_network.node[32].content_store 	decision_ratio[32] 	0.0054379266458406
scalar tree_4_3_u07_r20_network.node[33].core_layer 	interests[33] 	12367
scalar tree_4_3_u07_r20_network.node[33].core_layer 	data[33] 	8624
scalar tree_4_3_u07_r20_network.node[33].content_store 	p_hit[33] 	0.30266030565214
scalar tree_4_3_u07_r20_network.node[33].content_store 	hits[33] 	3743
scalar tree_4_3_u07_r20_network.node[33].content_store 	misses[33] 	8624
scalar tree_4_3_u07_r20_network.node[33].content_store 	decision_yes[33] 	43
scalar tree_4_3_u07_r20_network.node[33].content_store 	decision_no[33] 	8581
scalar tree_4_3_u07_r20_network.node[33].content_store 	decision_ratio[33] 	0.0049860853432282
scalar tree_4_3_u07_r20_network.node[34].core_layer 	interests[34] 	12361
scalar tree_4_3_u07_r20_network.node[34].core_layer 	data[34] 	8618
scalar tree_4_3_u07_r20_network.node[34].content_store 	p_hit[34] 	0.30280721624464
scalar tree_4_3_u07_r20_network.node[34].content_store 	hits[34] 	3743
scalar tree_4_3_u07_r20_network.node[34].content_store 	misses[34] 	8618
scalar tree_4_3_u07_r20_network.node[34].content_store 	decision_yes[34] 	42
scalar tree_4_3_u07_r20_network.node[34].content_store 	decision_no[34] 	8576
scalar tree_4_3_u07_r20_network.node[34].content_store 	decision_ratio[34] 	0.004873520538408
scalar tree_4_3_u07_r20_network.node[35].core_layer 	interests[35] 	12151
scalar tree_4_3_u07_r20_network.node[35].core_layer 	data[35] 	8586
scalar tree_4_3_u07_r20_network.node[35].content_store 	p_hit[35] 	0.29339149041231
scalar tree_4_3_u07_r20_network.node[35].content_store 	hits[35] 	3565
scalar tree_4_3_u07_r20_network.node[35].content_store 	misses[35] 	8586
scalar tree_4_3_u07_r20_network.node[35].content_store 	decision_yes[35] 	22
scalar tree_4_3_u07_r20_network.node[35].content_store 	decision_no[35] 	8564
scalar tree_4_3_u07_r20_network.node[35].content_store 	decision_ratio[35] 	0.0025623107384114
scalar tree_4_3_u07_r20_network.node[36].core_layer 	interests[36] 	12463
scalar tree_4_3_u07_r20_network.node[36].core_layer 	data[36] 	8755
scalar tree_4_3_u07_r20_network.node[36].content_store 	p_hit[36] 	0.29752066115702
scalar tree_4_3_u07_r20_network.node[36].content_store 	hits[36] 	3708
scalar tree_4_3_u07_r20_network.node[36].content_store 	misses[36] 	8755
scalar tree_4_3_u07_r20_network.node[36].content_store 	decision_yes[36] 	43
scalar tree_4_3_u07_r20_network.node[36].content_store 	decision_no[36] 	8712
scalar tree_4_3_u07_r20_network.node[36].content_store 	decision_ratio[36] 	0.0049114791547687
scalar tree_4_3_u07_r20_network.node[37].core_layer 	interests[37] 	12461
scalar tree_4_3_u07_r20_network.node[37].core_layer 	data[37] 	8696
scalar tree_4_3_u07_r20_network.node[37].content_store 	p_hit[37] 	0.30214268517775
scalar tree_4_3_u07_r20_network.node[37].content_store 	hits[37] 	3765
scalar tree_4_3_u07_r20_network.node[37].content_store 	misses[37] 	8696
scalar tree_4_3_u07_r20_network.node[37].content_store 	decision_yes[37] 	47
scalar tree_4_3_u07_r20_network.node[37].content_store 	decision_no[37] 	8649
scalar tree_4_3_u07_r20_network.node[37].content_store 	decision_ratio[37] 	0.0054047838086477
scalar tree_4_3_u07_r20_network.node[38].core_layer 	interests[38] 	12423
scalar tree_4_3_u07_r20_network.node[38].core_layer 	data[38] 	8686
scalar tree_4_3_u07_r20_network.node[38].content_store 	p_hit[38] 	0.30073251227562
scalar tree_4_3_u07_r20_network.node[38].content_store 	hits[38] 	3736
scalar tree_4_3_u07_r20_network.node[38].content_store 	misses[38] 	8687
scalar tree_4_3_u07_r20_network.node[38].content_store 	decision_yes[38] 	52
scalar tree_4_3_u07_r20_network.node[38].content_store 	decision_no[38] 	8634
scalar tree_4_3_u07_r20_network.node[38].content_store 	decision_ratio[38] 	0.0059866451761455
scalar tree_4_3_u07_r20_network.node[39].core_layer 	interests[39] 	11931
scalar tree_4_3_u07_r20_network.node[39].core_layer 	data[39] 	8495
scalar tree_4_3_u07_r20_network.node[39].content_store 	p_hit[39] 	0.28798927164529
scalar tree_4_3_u07_r20_network.node[39].content_store 	hits[39] 	3436
scalar tree_4_3_u07_r20_network.node[39].content_store 	misses[39] 	8495
scalar tree_4_3_u07_r20_network.node[39].content_store 	decision_yes[39] 	30
scalar tree_4_3_u07_r20_network.node[39].content_store 	decision_no[39] 	8465
scalar tree_4_3_u07_r20_network.node[39].content_store 	decision_ratio[39] 	0.0035314891112419
scalar tree_4_3_u07_r20_network.client[13] 	hdistance[13] 	2.6435594480707
scalar tree_4_3_u07_r20_network.client[13] 	downloads[13] 	12103
scalar tree_4_3_u07_r20_network.client[13] 	avg_time[13] 	0.004066988222
scalar tree_4_3_u07_r20_network.client[14] 	hdistance[14] 	2.6421894736842
scalar tree_4_3_u07_r20_network.client[14] 	downloads[14] 	11875
scalar tree_4_3_u07_r20_network.client[14] 	avg_time[14] 	0.004051197054
scalar tree_4_3_u07_r20_network.client[15] 	hdistance[15] 	2.6206839171312
scalar tree_4_3_u07_r20_network.client[15] 	downloads[15] 	12019
scalar tree_4_3_u07_r20_network.client[15] 	avg_time[15] 	0.004016436788
scalar tree_4_3_u07_r20_network.client[16] 	hdistance[16] 	2.6188592152984
scalar tree_4_3_u07_r20_network.client[16] 	downloads[16] 	12132
scalar tree_4_3_u07_r20_network.client[16] 	avg_time[16] 	0.004020115679
scalar tree_4_3_u07_r20_network.client[17] 	hdistance[17] 	2.6275140125289
scalar tree_4_3_u07_r20_network.client[17] 	downloads[17] 	12132
scalar tree_4_3_u07_r20_network.client[17] 	avg_time[17] 	0.004039232042
scalar tree_4_3_u07_r20_network.client[18] 	hdistance[18] 	2.6044215678002
scalar tree_4_3_u07_r20_network.client[18] 	downloads[18] 	11851
scalar tree_4_3_u07_r20_network.client[18] 	avg_time[18] 	0.003989871308
scalar tree_4_3_u07_r20_network.client[19] 	hdistance[19] 	2.6636956342329
scalar tree_4_3_u07_r20_network.client[19] 	downloads[19] 	12117
scalar tree_4_3_u07_r20_network.client[19] 	avg_time[19] 	0.004093858981
scalar tree_4_3_u07_r20_network.client[20] 	hdistance[20] 	2.6602284178704
scalar tree_4_3_u07_r20_network.client[20] 	downloads[20] 	11908
scalar tree_4_3_u07_r20_network.client[20] 	avg_time[20] 	0.004071041726
scalar tree_4_3_u07_r20_network.client[21] 	hdistance[21] 	2.6806491885144
scalar tree_4_3_u07_r20_network.client[21] 	downloads[21] 	12015
scalar tree_4_3_u07_r20_network.client[21] 	avg_time[21] 	0.004123615572
scalar tree_4_3_u07_r20_network.client[22] 	hdistance[22] 	2.6254874305152
scalar tree_4_3_u07_r20_network.client[22] 	downloads[22] 	12053
scalar tree_4_3_u07_r20_network.client[22] 	avg_time[22] 	0.00406006503
scalar tree_4_3_u07_r20_network.client[23] 	hdistance[23] 	2.6151562628845
scalar tree_4_3_u07_r20_network.client[23] 	downloads[23] 	12127
scalar tree_4_3_u07_r20_network.client[23] 	avg_time[23] 	0.004036609529
scalar tree_4_3_u07_r20_network.client[24] 	hdistance[24] 	2.6318170394572
scalar tree_4_3_u07_r20_network.client[24] 	downloads[24] 	11937
scalar tree_4_3_u07_r20_network.client[24] 	avg_time[24] 	0.004057297843
scalar tree_4_3_u07_r20_network.client[25] 	hdistance[25] 	2.6059706415966
scalar tree_4_3_u07_r20_network.client[25] 	downloads[25] 	12126
scalar tree_4_3_u07_r20_network.client[25] 	avg_time[25] 	0.004016655396
scalar tree_4_3_u07_r20_network.client[26] 	hdistance[26] 	2.6160886724326
scalar tree_4_3_u07_r20_network.client[26] 	downloads[26] 	11909
scalar tree_4_3_u07_r20_network.client[26] 	avg_time[26] 	0.004041648337
scalar tree_4_3_u07_r20_network.client[27] 	hdistance[27] 	2.6010855949895
scalar tree_4_3_u07_r20_network.client[27] 	downloads[27] 	11975
scalar tree_4_3_u07_r20_network.client[27] 	avg_time[27] 	0.004006009528
scalar tree_4_3_u07_r20_network.client[28] 	hdistance[28] 	2.6161791439432
scalar tree_4_3_u07_r20_network.client[28] 	downloads[28] 	12102
scalar tree_4_3_u07_r20_network.client[28] 	avg_time[28] 	0.004041477757
scalar tree_4_3_u07_r20_network.client[29] 	hdistance[29] 	2.6056478405316
scalar tree_4_3_u07_r20_network.client[29] 	downloads[29] 	12040
scalar tree_4_3_u07_r20_network.client[29] 	avg_time[29] 	0.004010794353
scalar tree_4_3_u07_r20_network.client[30] 	hdistance[30] 	2.6363108567637
scalar tree_4_3_u07_r20_network.client[30] 	downloads[30] 	12057
scalar tree_4_3_u07_r20_network.client[30] 	avg_time[30] 	0.004072983638
scalar tree_4_3_u07_r20_network.client[31] 	hdistance[31] 	2.6362810667988
scalar tree_4_3_u07_r20_network.client[31] 	downloads[31] 	12111
scalar tree_4_3_u07_r20_network.client[31] 	avg_time[31] 	0.004063740706
scalar tree_4_3_u07_r20_network.client[32] 	hdistance[32] 	2.5678693442213
scalar tree_4_3_u07_r20_network.client[32] 	downloads[32] 	12001
scalar tree_4_3_u07_r20_network.client[32] 	avg_time[32] 	0.003966666438
scalar tree_4_3_u07_r20_network.client[33] 	hdistance[33] 	2.6127389598464
scalar tree_4_3_u07_r20_network.client[33] 	downloads[33] 	11979
scalar tree_4_3_u07_r20_network.client[33] 	avg_time[33] 	0.004009513646
scalar tree_4_3_u07_r20_network.client[34] 	hdistance[34] 	2.5755540631296
scalar tree_4_3_u07_r20_network.client[34] 	downloads[34] 	11912
scalar tree_4_3_u07_r20_network.client[34] 	avg_time[34] 	0.003980520868
scalar tree_4_3_u07_r20_network.client[35] 	hdistance[35] 	2.6141508645894
scalar tree_4_3_u07_r20_network.client[35] 	downloads[35] 	11971
scalar tree_4_3_u07_r20_network.client[35] 	avg_time[35] 	0.004047404651
scalar tree_4_3_u07_r20_network.client[36] 	hdistance[36] 	2.5990041493776
scalar tree_4_3_u07_r20_network.client[36] 	downloads[36] 	12050
scalar tree_4_3_u07_r20_network.client[36] 	avg_time[36] 	0.00401276334
scalar tree_4_3_u07_r20_network.client[37] 	hdistance[37] 	2.6158253072069
scalar tree_4_3_u07_r20_network.client[37] 	downloads[37] 	12044
scalar tree_4_3_u07_r20_network.client[37] 	avg_time[37] 	0.004016436721
scalar tree_4_3_u07_r20_network.client[38] 	hdistance[38] 	2.564311218135
scalar tree_4_3_u07_r20_network.client[38] 	downloads[38] 	12043
scalar tree_4_3_u07_r20_network.client[38] 	avg_time[38] 	0.00396776575
scalar tree_4_3_u07_r20_network.client[39] 	hdistance[39] 	2.6489478576861
scalar tree_4_3_u07_r20_network.client[39] 	downloads[39] 	11833
scalar tree_4_3_u07_r20_network.client[39] 	avg_time[39] 	0.00407656261
