version 2
run General-3-20160823-18:14:25-9702
attr D lcd
attr F spr
attr R lru
attr a 0.9
attr configname General
attr datetime 20160823-18:14:25
attr experiment General
attr inifile hw5115/scenario_C/omnetp.ini
attr iterationvars "$net=dtelecom, $rep=1, $a=0.9, $F=spr, $D=lcd, $R=lru, $window=60, $variance=0.05, $mytime=600"
attr iterationvars2 "$net=dtelecom, $rep=1, $a=0.9, $F=spr, $D=lcd, $R=lru, $window=60, $variance=0.05, $mytime=600, $repetition=0"
attr measurement "$net=dtelecom, $rep=1, $a=0.9, $F=spr, $D=lcd, $R=lru, $window=60, $variance=0.05, $mytime=600"
attr mytime 600
attr net dtelecom
attr network networks.${net=dtelecom}_network
attr processid 9702
attr rep 1
attr repetition 0
attr replication #0
attr resultdir results
attr runnumber 3
attr seedset 1
attr variance 0.05
attr window 60

scalar . 	a 	0.9
scalar . 	mytime 	600
scalar . 	rep 	1
scalar . 	variance 	0.05
scalar . 	window 	60
scalar dtelecom_network.content_distribution 	repo-0 	46
scalar dtelecom_network.content_distribution 	repo-1 	55
scalar dtelecom_network.content_distribution 	repo-2 	1
scalar dtelecom_network.content_distribution 	repo-3 	50
scalar dtelecom_network.content_distribution 	repo-4 	9
scalar dtelecom_network.content_distribution 	repo-5 	58
scalar dtelecom_network.content_distribution 	repo-6 	57
scalar dtelecom_network.content_distribution 	repo-7 	36
scalar dtelecom_network.content_distribution 	repo-8 	44
scalar dtelecom_network.content_distribution 	repo-9 	38
scalar dtelecom_network.content_distribution 	repo-10 	52
scalar dtelecom_network.content_distribution 	repo-11 	3
scalar dtelecom_network.content_distribution 	repo-12 	0
scalar dtelecom_network.content_distribution 	repo-13 	21
scalar dtelecom_network.content_distribution 	repo-14 	56
scalar dtelecom_network.content_distribution 	repo-15 	66
scalar dtelecom_network.content_distribution 	client-0 	46
scalar dtelecom_network.content_distribution 	client-1 	30
scalar dtelecom_network.content_distribution 	client-2 	8
scalar dtelecom_network.content_distribution 	client-3 	49
scalar dtelecom_network.content_distribution 	client-4 	66
scalar dtelecom_network.content_distribution 	client-5 	58
scalar dtelecom_network.content_distribution 	client-6 	32
scalar dtelecom_network.content_distribution 	client-7 	40
scalar dtelecom_network.content_distribution 	client-8 	42
scalar dtelecom_network.content_distribution 	client-9 	45
scalar dtelecom_network.content_distribution 	client-10 	33
scalar dtelecom_network.content_distribution 	client-11 	28
scalar dtelecom_network.content_distribution 	client-12 	3
scalar dtelecom_network.content_distribution 	client-13 	57
scalar dtelecom_network.content_distribution 	client-14 	50
scalar dtelecom_network.content_distribution 	client-15 	17
scalar dtelecom_network.content_distribution 	client-16 	59
scalar dtelecom_network.content_distribution 	client-17 	48
scalar dtelecom_network.content_distribution 	client-18 	23
scalar dtelecom_network.content_distribution 	client-19 	22
scalar dtelecom_network.content_distribution 	client-20 	67
scalar dtelecom_network.content_distribution 	client-21 	62
scalar dtelecom_network.content_distribution 	client-22 	56
scalar dtelecom_network.content_distribution 	client-23 	55
scalar dtelecom_network.content_distribution 	client-24 	53
scalar dtelecom_network.content_distribution 	client-25 	36
scalar dtelecom_network.content_distribution 	client-26 	51
scalar dtelecom_network.content_distribution 	client-27 	37
scalar dtelecom_network.content_distribution 	client-28 	54
scalar dtelecom_network.content_distribution 	client-29 	4
scalar dtelecom_network.content_distribution 	client-30 	31
scalar dtelecom_network.content_distribution 	client-31 	9
scalar dtelecom_network.content_distribution 	repo-0_card 	6196
scalar dtelecom_network.content_distribution 	repo-0_price 	0
scalar dtelecom_network.content_distribution 	repo-1_card 	6204
scalar dtelecom_network.content_distribution 	repo-1_price 	0
scalar dtelecom_network.content_distribution 	repo-2_card 	6202
scalar dtelecom_network.content_distribution 	repo-2_price 	0
scalar dtelecom_network.content_distribution 	repo-3_card 	6244
scalar dtelecom_network.content_distribution 	repo-3_price 	0
scalar dtelecom_network.content_distribution 	repo-4_card 	6365
scalar dtelecom_network.content_distribution 	repo-4_price 	0
scalar dtelecom_network.content_distribution 	repo-5_card 	6245
scalar dtelecom_network.content_distribution 	repo-5_price 	0
scalar dtelecom_network.content_distribution 	repo-6_card 	6166
scalar dtelecom_network.content_distribution 	repo-6_price 	0
scalar dtelecom_network.content_distribution 	repo-7_card 	6312
scalar dtelecom_network.content_distribution 	repo-7_price 	0
scalar dtelecom_network.content_distribution 	repo-8_card 	6163
scalar dtelecom_network.content_distribution 	repo-8_price 	0
scalar dtelecom_network.content_distribution 	repo-9_card 	6249
scalar dtelecom_network.content_distribution 	repo-9_price 	0
scalar dtelecom_network.content_distribution 	repo-10_card 	6284
scalar dtelecom_network.content_distribution 	repo-10_price 	0
scalar dtelecom_network.content_distribution 	repo-11_card 	6276
scalar dtelecom_network.content_distribution 	repo-11_price 	0
scalar dtelecom_network.content_distribution 	repo-12_card 	6338
scalar dtelecom_network.content_distribution 	repo-12_price 	0
scalar dtelecom_network.content_distribution 	repo-13_card 	6363
scalar dtelecom_network.content_distribution 	repo-13_price 	0
scalar dtelecom_network.content_distribution 	repo-14_card 	6276
scalar dtelecom_network.content_distribution 	repo-14_price 	0
scalar dtelecom_network.content_distribution 	repo-15_card 	6117
scalar dtelecom_network.content_distribution 	repo-15_price 	0
scalar dtelecom_network.statistics 	stabilization_time 	7918.4
scalar dtelecom_network.statistics 	p_hit 	0.20507843218435
scalar dtelecom_network.statistics 	interests 	13364.470588235
scalar dtelecom_network.statistics 	data 	7717.6176470588
scalar dtelecom_network.statistics 	hdistance 	1.9976070476855
scalar dtelecom_network.statistics 	avg_time 	0.023318023218
scalar dtelecom_network.statistics 	downloads 	383933
scalar dtelecom_network.statistics 	total_cost 	0
scalar dtelecom_network.statistics 	total_replicas 	100000
scalar dtelecom_network.statistics 	inner_hit 	0.37060632975024
scalar dtelecom_network.node[0].core_layer 	interests[0] 	17683
scalar dtelecom_network.node[0].core_layer 	repo_load[0] 	14928
scalar dtelecom_network.node[0].core_layer 	data[0] 	0
scalar dtelecom_network.node[0].core_layer 	repo_int[0] 	241645
scalar dtelecom_network.node[0].content_store 	p_hit[0] 	0.15579935531301
scalar dtelecom_network.node[0].content_store 	hits[0] 	2755
scalar dtelecom_network.node[0].content_store 	misses[0] 	14928
scalar dtelecom_network.node[0].content_store 	decision_yes[0] 	14928
scalar dtelecom_network.node[0].content_store 	decision_no[0] 	0
scalar dtelecom_network.node[0].content_store 	decision_ratio[0] 	1
scalar dtelecom_network.node[1].core_layer 	interests[1] 	212363
scalar dtelecom_network.node[1].core_layer 	repo_load[1] 	16769
scalar dtelecom_network.node[1].core_layer 	data[1] 	183002
scalar dtelecom_network.node[1].content_store 	p_hit[1] 	0.058682538860348
scalar dtelecom_network.node[1].content_store 	hits[1] 	12462
scalar dtelecom_network.node[1].content_store 	misses[1] 	199901
scalar dtelecom_network.node[1].content_store 	decision_yes[1] 	46216
scalar dtelecom_network.node[1].content_store 	decision_no[1] 	153555
scalar dtelecom_network.node[1].content_store 	decision_ratio[1] 	0.23134488989893
scalar dtelecom_network.node[2].core_layer 	interests[2] 	4072
scalar dtelecom_network.node[2].core_layer 	data[2] 	3690
scalar dtelecom_network.node[2].content_store 	p_hit[2] 	0.093811394891945
scalar dtelecom_network.node[2].content_store 	hits[2] 	382
scalar dtelecom_network.node[2].content_store 	misses[2] 	3690
scalar dtelecom_network.node[2].content_store 	decision_yes[2] 	362
scalar dtelecom_network.node[2].content_store 	decision_no[2] 	3328
scalar dtelecom_network.node[2].content_store 	decision_ratio[2] 	0.09810298102981
scalar dtelecom_network.node[3].core_layer 	interests[3] 	29021
scalar dtelecom_network.node[3].core_layer 	repo_load[3] 	14657
scalar dtelecom_network.node[3].core_layer 	data[3] 	10121
scalar dtelecom_network.node[3].content_store 	p_hit[3] 	0.14620447262327
scalar dtelecom_network.node[3].content_store 	hits[3] 	4243
scalar dtelecom_network.node[3].content_store 	misses[3] 	24778
scalar dtelecom_network.node[3].content_store 	decision_yes[3] 	17262
scalar dtelecom_network.node[3].content_store 	decision_no[3] 	7516
scalar dtelecom_network.node[3].content_store 	decision_ratio[3] 	0.69666639761078
scalar dtelecom_network.node[4].core_layer 	interests[4] 	46447
scalar dtelecom_network.node[4].core_layer 	data[4] 	39994
scalar dtelecom_network.node[4].content_store 	p_hit[4] 	0.13798523047775
scalar dtelecom_network.node[4].content_store 	hits[4] 	6409
scalar dtelecom_network.node[4].content_store 	misses[4] 	40038
scalar dtelecom_network.node[4].content_store 	decision_yes[4] 	5804
scalar dtelecom_network.node[4].content_store 	decision_no[4] 	34190
scalar dtelecom_network.node[4].content_store 	decision_ratio[4] 	0.14512176826524
scalar dtelecom_network.node[5].core_layer 	interests[5] 	0
scalar dtelecom_network.node[5].core_layer 	data[5] 	0
scalar dtelecom_network.node[5].content_store 	p_hit[5] 	-nan
scalar dtelecom_network.node[5].content_store 	hits[5] 	0
scalar dtelecom_network.node[5].content_store 	misses[5] 	0
scalar dtelecom_network.node[5].content_store 	decision_yes[5] 	0
scalar dtelecom_network.node[5].content_store 	decision_no[5] 	0
scalar dtelecom_network.node[5].content_store 	decision_ratio[5] 	0
scalar dtelecom_network.node[6].core_layer 	interests[6] 	0
scalar dtelecom_network.node[6].core_layer 	data[6] 	0
scalar dtelecom_network.node[6].content_store 	p_hit[6] 	-nan
scalar dtelecom_network.node[6].content_store 	hits[6] 	0
scalar dtelecom_network.node[6].content_store 	misses[6] 	0
scalar dtelecom_network.node[6].content_store 	decision_yes[6] 	0
scalar dtelecom_network.node[6].content_store 	decision_no[6] 	0
scalar dtelecom_network.node[6].content_store 	decision_ratio[6] 	0
scalar dtelecom_network.node[7].core_layer 	interests[7] 	0
scalar dtelecom_network.node[7].core_layer 	data[7] 	0
scalar dtelecom_network.node[7].content_store 	p_hit[7] 	-nan
scalar dtelecom_network.node[7].content_store 	hits[7] 	0
scalar dtelecom_network.node[7].content_store 	misses[7] 	0
scalar dtelecom_network.node[7].content_store 	decision_yes[7] 	0
scalar dtelecom_network.node[7].content_store 	decision_no[7] 	0
scalar dtelecom_network.node[7].content_store 	decision_ratio[7] 	0
scalar dtelecom_network.node[8].core_layer 	interests[8] 	11944
scalar dtelecom_network.node[8].core_layer 	data[8] 	8848
scalar dtelecom_network.node[8].content_store 	p_hit[8] 	0.25920964501005
scalar dtelecom_network.node[8].content_store 	hits[8] 	3096
scalar dtelecom_network.node[8].content_store 	misses[8] 	8848
scalar dtelecom_network.node[8].content_store 	decision_yes[8] 	360
scalar dtelecom_network.node[8].content_store 	decision_no[8] 	8488
scalar dtelecom_network.node[8].content_store 	decision_ratio[8] 	0.040687160940325
scalar dtelecom_network.node[9].core_layer 	interests[9] 	29687
scalar dtelecom_network.node[9].core_layer 	repo_load[9] 	15091
scalar dtelecom_network.node[9].core_layer 	data[9] 	10853
scalar dtelecom_network.node[9].content_store 	p_hit[9] 	0.12591369959915
scalar dtelecom_network.node[9].content_store 	hits[9] 	3738
scalar dtelecom_network.node[9].content_store 	misses[9] 	25949
scalar dtelecom_network.node[9].content_store 	decision_yes[9] 	16689
scalar dtelecom_network.node[9].content_store 	decision_no[9] 	9255
scalar dtelecom_network.node[9].content_store 	decision_ratio[9] 	0.64327012025902
scalar dtelecom_network.node[10].core_layer 	interests[10] 	0
scalar dtelecom_network.node[10].core_layer 	data[10] 	0
scalar dtelecom_network.node[10].content_store 	p_hit[10] 	-nan
scalar dtelecom_network.node[10].content_store 	hits[10] 	0
scalar dtelecom_network.node[10].content_store 	misses[10] 	0
scalar dtelecom_network.node[10].content_store 	decision_yes[10] 	0
scalar dtelecom_network.node[10].content_store 	decision_no[10] 	0
scalar dtelecom_network.node[10].content_store 	decision_ratio[10] 	0
scalar dtelecom_network.node[11].core_layer 	interests[11] 	0
scalar dtelecom_network.node[11].core_layer 	data[11] 	0
scalar dtelecom_network.node[11].content_store 	p_hit[11] 	-nan
scalar dtelecom_network.node[11].content_store 	hits[11] 	0
scalar dtelecom_network.node[11].content_store 	misses[11] 	0
scalar dtelecom_network.node[11].content_store 	decision_yes[11] 	0
scalar dtelecom_network.node[11].content_store 	decision_no[11] 	0
scalar dtelecom_network.node[11].content_store 	decision_ratio[11] 	0
scalar dtelecom_network.node[12].core_layer 	interests[12] 	0
scalar dtelecom_network.node[12].core_layer 	data[12] 	0
scalar dtelecom_network.node[12].content_store 	p_hit[12] 	-nan
scalar dtelecom_network.node[12].content_store 	hits[12] 	0
scalar dtelecom_network.node[12].content_store 	misses[12] 	0
scalar dtelecom_network.node[12].content_store 	decision_yes[12] 	0
scalar dtelecom_network.node[12].content_store 	decision_no[12] 	0
scalar dtelecom_network.node[12].content_store 	decision_ratio[12] 	0
scalar dtelecom_network.node[13].core_layer 	interests[13] 	0
scalar dtelecom_network.node[13].core_layer 	data[13] 	0
scalar dtelecom_network.node[13].content_store 	p_hit[13] 	-nan
scalar dtelecom_network.node[13].content_store 	hits[13] 	0
scalar dtelecom_network.node[13].content_store 	misses[13] 	0
scalar dtelecom_network.node[13].content_store 	decision_yes[13] 	0
scalar dtelecom_network.node[13].content_store 	decision_no[13] 	0
scalar dtelecom_network.node[13].content_store 	decision_ratio[13] 	0
scalar dtelecom_network.node[14].core_layer 	interests[14] 	0
scalar dtelecom_network.node[14].core_layer 	data[14] 	0
scalar dtelecom_network.node[14].content_store 	p_hit[14] 	-nan
scalar dtelecom_network.node[14].content_store 	hits[14] 	0
scalar dtelecom_network.node[14].content_store 	misses[14] 	0
scalar dtelecom_network.node[14].content_store 	decision_yes[14] 	0
scalar dtelecom_network.node[14].content_store 	decision_no[14] 	0
scalar dtelecom_network.node[14].content_store 	decision_ratio[14] 	0
scalar dtelecom_network.node[15].core_layer 	interests[15] 	0
scalar dtelecom_network.node[15].core_layer 	data[15] 	0
scalar dtelecom_network.node[15].content_store 	p_hit[15] 	-nan
scalar dtelecom_network.node[15].content_store 	hits[15] 	0
scalar dtelecom_network.node[15].content_store 	misses[15] 	0
scalar dtelecom_network.node[15].content_store 	decision_yes[15] 	0
scalar dtelecom_network.node[15].content_store 	decision_no[15] 	0
scalar dtelecom_network.node[15].content_store 	decision_ratio[15] 	0
scalar dtelecom_network.node[16].core_layer 	interests[16] 	0
scalar dtelecom_network.node[16].core_layer 	data[16] 	0
scalar dtelecom_network.node[16].content_store 	p_hit[16] 	-nan
scalar dtelecom_network.node[16].content_store 	hits[16] 	0
scalar dtelecom_network.node[16].content_store 	misses[16] 	0
scalar dtelecom_network.node[16].content_store 	decision_yes[16] 	0
scalar dtelecom_network.node[16].content_store 	decision_no[16] 	0
scalar dtelecom_network.node[16].content_store 	decision_ratio[16] 	0
scalar dtelecom_network.node[17].core_layer 	interests[17] 	12692
scalar dtelecom_network.node[17].core_layer 	data[17] 	9575
scalar dtelecom_network.node[17].content_store 	p_hit[17] 	0.24558777182477
scalar dtelecom_network.node[17].content_store 	hits[17] 	3117
scalar dtelecom_network.node[17].content_store 	misses[17] 	9575
scalar dtelecom_network.node[17].content_store 	decision_yes[17] 	608
scalar dtelecom_network.node[17].content_store 	decision_no[17] 	8967
scalar dtelecom_network.node[17].content_store 	decision_ratio[17] 	0.063498694516971
scalar dtelecom_network.node[18].core_layer 	interests[18] 	0
scalar dtelecom_network.node[18].core_layer 	data[18] 	0
scalar dtelecom_network.node[18].content_store 	p_hit[18] 	-nan
scalar dtelecom_network.node[18].content_store 	hits[18] 	0
scalar dtelecom_network.node[18].content_store 	misses[18] 	0
scalar dtelecom_network.node[18].content_store 	decision_yes[18] 	0
scalar dtelecom_network.node[18].content_store 	decision_no[18] 	0
scalar dtelecom_network.node[18].content_store 	decision_ratio[18] 	0
scalar dtelecom_network.node[19].core_layer 	interests[19] 	0
scalar dtelecom_network.node[19].core_layer 	data[19] 	0
scalar dtelecom_network.node[19].content_store 	p_hit[19] 	-nan
scalar dtelecom_network.node[19].content_store 	hits[19] 	0
scalar dtelecom_network.node[19].content_store 	misses[19] 	0
scalar dtelecom_network.node[19].content_store 	decision_yes[19] 	0
scalar dtelecom_network.node[19].content_store 	decision_no[19] 	0
scalar dtelecom_network.node[19].content_store 	decision_ratio[19] 	0
scalar dtelecom_network.node[20].core_layer 	interests[20] 	0
scalar dtelecom_network.node[20].core_layer 	data[20] 	0
scalar dtelecom_network.node[20].content_store 	p_hit[20] 	-nan
scalar dtelecom_network.node[20].content_store 	hits[20] 	0
scalar dtelecom_network.node[20].content_store 	misses[20] 	0
scalar dtelecom_network.node[20].content_store 	decision_yes[20] 	0
scalar dtelecom_network.node[20].content_store 	decision_no[20] 	0
scalar dtelecom_network.node[20].content_store 	decision_ratio[20] 	0
scalar dtelecom_network.node[21].core_layer 	interests[21] 	17229
scalar dtelecom_network.node[21].core_layer 	repo_load[21] 	14717
scalar dtelecom_network.node[21].core_layer 	data[21] 	0
scalar dtelecom_network.node[21].content_store 	p_hit[21] 	0.14580068489175
scalar dtelecom_network.node[21].content_store 	hits[21] 	2512
scalar dtelecom_network.node[21].content_store 	misses[21] 	14717
scalar dtelecom_network.node[21].content_store 	decision_yes[21] 	14717
scalar dtelecom_network.node[21].content_store 	decision_no[21] 	0
scalar dtelecom_network.node[21].content_store 	decision_ratio[21] 	1
scalar dtelecom_network.node[22].core_layer 	interests[22] 	12009
scalar dtelecom_network.node[22].core_layer 	data[22] 	8845
scalar dtelecom_network.node[22].content_store 	p_hit[22] 	0.26346906486802
scalar dtelecom_network.node[22].content_store 	hits[22] 	3164
scalar dtelecom_network.node[22].content_store 	misses[22] 	8845
scalar dtelecom_network.node[22].content_store 	decision_yes[22] 	373
scalar dtelecom_network.node[22].content_store 	decision_no[22] 	8472
scalar dtelecom_network.node[22].content_store 	decision_ratio[22] 	0.042170717919729
scalar dtelecom_network.node[23].core_layer 	interests[23] 	21846
scalar dtelecom_network.node[23].core_layer 	data[23] 	18648
scalar dtelecom_network.node[23].content_store 	p_hit[23] 	0.14634257987732
scalar dtelecom_network.node[23].content_store 	hits[23] 	3197
scalar dtelecom_network.node[23].content_store 	misses[23] 	18649
scalar dtelecom_network.node[23].content_store 	decision_yes[23] 	1443
scalar dtelecom_network.node[23].content_store 	decision_no[23] 	17205
scalar dtelecom_network.node[23].content_store 	decision_ratio[23] 	0.077380952380952
scalar dtelecom_network.node[24].core_layer 	interests[24] 	0
scalar dtelecom_network.node[24].core_layer 	data[24] 	0
scalar dtelecom_network.node[24].content_store 	p_hit[24] 	-nan
scalar dtelecom_network.node[24].content_store 	hits[24] 	0
scalar dtelecom_network.node[24].content_store 	misses[24] 	0
scalar dtelecom_network.node[24].content_store 	decision_yes[24] 	0
scalar dtelecom_network.node[24].content_store 	decision_no[24] 	0
scalar dtelecom_network.node[24].content_store 	decision_ratio[24] 	0
scalar dtelecom_network.node[25].core_layer 	interests[25] 	0
scalar dtelecom_network.node[25].core_layer 	data[25] 	0
scalar dtelecom_network.node[25].content_store 	p_hit[25] 	-nan
scalar dtelecom_network.node[25].content_store 	hits[25] 	0
scalar dtelecom_network.node[25].content_store 	misses[25] 	0
scalar dtelecom_network.node[25].content_store 	decision_yes[25] 	0
scalar dtelecom_network.node[25].content_store 	decision_no[25] 	0
scalar dtelecom_network.node[25].content_store 	decision_ratio[25] 	0
scalar dtelecom_network.node[26].core_layer 	interests[26] 	567
scalar dtelecom_network.node[26].core_layer 	data[26] 	409
scalar dtelecom_network.node[26].content_store 	p_hit[26] 	0.27865961199295
scalar dtelecom_network.node[26].content_store 	hits[26] 	158
scalar dtelecom_network.node[26].content_store 	misses[26] 	409
scalar dtelecom_network.node[26].content_store 	decision_yes[26] 	18
scalar dtelecom_network.node[26].content_store 	decision_no[26] 	391
scalar dtelecom_network.node[26].content_store 	decision_ratio[26] 	0.0440097799511
scalar dtelecom_network.node[27].core_layer 	interests[27] 	0
scalar dtelecom_network.node[27].core_layer 	data[27] 	0
scalar dtelecom_network.node[27].content_store 	p_hit[27] 	-nan
scalar dtelecom_network.node[27].content_store 	hits[27] 	0
scalar dtelecom_network.node[27].content_store 	misses[27] 	0
scalar dtelecom_network.node[27].content_store 	decision_yes[27] 	0
scalar dtelecom_network.node[27].content_store 	decision_no[27] 	0
scalar dtelecom_network.node[27].content_store 	decision_ratio[27] 	0
scalar dtelecom_network.node[28].core_layer 	interests[28] 	11939
scalar dtelecom_network.node[28].core_layer 	data[28] 	8885
scalar dtelecom_network.node[28].content_store 	p_hit[28] 	0.25588407739342
scalar dtelecom_network.node[28].content_store 	hits[28] 	3055
scalar dtelecom_network.node[28].content_store 	misses[28] 	8884
scalar dtelecom_network.node[28].content_store 	decision_yes[28] 	377
scalar dtelecom_network.node[28].content_store 	decision_no[28] 	8508
scalar dtelecom_network.node[28].content_store 	decision_ratio[28] 	0.042431063590321
scalar dtelecom_network.node[29].core_layer 	interests[29] 	0
scalar dtelecom_network.node[29].core_layer 	data[29] 	0
scalar dtelecom_network.node[29].content_store 	p_hit[29] 	-nan
scalar dtelecom_network.node[29].content_store 	hits[29] 	0
scalar dtelecom_network.node[29].content_store 	misses[29] 	0
scalar dtelecom_network.node[29].content_store 	decision_yes[29] 	0
scalar dtelecom_network.node[29].content_store 	decision_no[29] 	0
scalar dtelecom_network.node[29].content_store 	decision_ratio[29] 	0
scalar dtelecom_network.node[30].core_layer 	interests[30] 	11932
scalar dtelecom_network.node[30].core_layer 	data[30] 	8833
scalar dtelecom_network.node[30].content_store 	p_hit[30] 	0.25980556486758
scalar dtelecom_network.node[30].content_store 	hits[30] 	3100
scalar dtelecom_network.node[30].content_store 	misses[30] 	8832
scalar dtelecom_network.node[30].content_store 	decision_yes[30] 	354
scalar dtelecom_network.node[30].content_store 	decision_no[30] 	8479
scalar dtelecom_network.node[30].content_store 	decision_ratio[30] 	0.040076984037133
scalar dtelecom_network.node[31].core_layer 	interests[31] 	12066
scalar dtelecom_network.node[31].core_layer 	data[31] 	8894
scalar dtelecom_network.node[31].content_store 	p_hit[31] 	0.26280457483839
scalar dtelecom_network.node[31].content_store 	hits[31] 	3171
scalar dtelecom_network.node[31].content_store 	misses[31] 	8895
scalar dtelecom_network.node[31].content_store 	decision_yes[31] 	386
scalar dtelecom_network.node[31].content_store 	decision_no[31] 	8508
scalar dtelecom_network.node[31].content_store 	decision_ratio[31] 	0.04340004497414
scalar dtelecom_network.node[32].core_layer 	interests[32] 	11930
scalar dtelecom_network.node[32].core_layer 	data[32] 	8771
scalar dtelecom_network.node[32].content_store 	p_hit[32] 	0.26487845766974
scalar dtelecom_network.node[32].content_store 	hits[32] 	3160
scalar dtelecom_network.node[32].content_store 	misses[32] 	8770
scalar dtelecom_network.node[32].content_store 	decision_yes[32] 	353
scalar dtelecom_network.node[32].content_store 	decision_no[32] 	8418
scalar dtelecom_network.node[32].content_store 	decision_ratio[32] 	0.040246266104207
scalar dtelecom_network.node[33].core_layer 	interests[33] 	12181
scalar dtelecom_network.node[33].core_layer 	data[33] 	8954
scalar dtelecom_network.node[33].content_store 	p_hit[33] 	0.26475658812905
scalar dtelecom_network.node[33].content_store 	hits[33] 	3225
scalar dtelecom_network.node[33].content_store 	misses[33] 	8956
scalar dtelecom_network.node[33].content_store 	decision_yes[33] 	539
scalar dtelecom_network.node[33].content_store 	decision_no[33] 	8415
scalar dtelecom_network.node[33].content_store 	decision_ratio[33] 	0.06019656019656
scalar dtelecom_network.node[34].core_layer 	interests[34] 	0
scalar dtelecom_network.node[34].core_layer 	data[34] 	0
scalar dtelecom_network.node[34].content_store 	p_hit[34] 	-nan
scalar dtelecom_network.node[34].content_store 	hits[34] 	0
scalar dtelecom_network.node[34].content_store 	misses[34] 	0
scalar dtelecom_network.node[34].content_store 	decision_yes[34] 	0
scalar dtelecom_network.node[34].content_store 	decision_no[34] 	0
scalar dtelecom_network.node[34].content_store 	decision_ratio[34] 	0
scalar dtelecom_network.node[35].core_layer 	interests[35] 	0
scalar dtelecom_network.node[35].core_layer 	data[35] 	0
scalar dtelecom_network.node[35].content_store 	p_hit[35] 	-nan
scalar dtelecom_network.node[35].content_store 	hits[35] 	0
scalar dtelecom_network.node[35].content_store 	misses[35] 	0
scalar dtelecom_network.node[35].content_store 	decision_yes[35] 	0
scalar dtelecom_network.node[35].content_store 	decision_no[35] 	0
scalar dtelecom_network.node[35].content_store 	decision_ratio[35] 	0
scalar dtelecom_network.node[36].core_layer 	interests[36] 	31092
scalar dtelecom_network.node[36].core_layer 	repo_load[36] 	16307
scalar dtelecom_network.node[36].core_layer 	data[36] 	10090
scalar dtelecom_network.node[36].content_store 	p_hit[36] 	0.15093914833398
scalar dtelecom_network.node[36].content_store 	hits[36] 	4693
scalar dtelecom_network.node[36].content_store 	misses[36] 	26399
scalar dtelecom_network.node[36].content_store 	decision_yes[36] 	17582
scalar dtelecom_network.node[36].content_store 	decision_no[36] 	8815
scalar dtelecom_network.node[36].content_store 	decision_ratio[36] 	0.66606053718226
scalar dtelecom_network.node[37].core_layer 	interests[37] 	11910
scalar dtelecom_network.node[37].core_layer 	data[37] 	8715
scalar dtelecom_network.node[37].content_store 	p_hit[37] 	0.26826196473552
scalar dtelecom_network.node[37].content_store 	hits[37] 	3195
scalar dtelecom_network.node[37].content_store 	misses[37] 	8715
scalar dtelecom_network.node[37].content_store 	decision_yes[37] 	350
scalar dtelecom_network.node[37].content_store 	decision_no[37] 	8365
scalar dtelecom_network.node[37].content_store 	decision_ratio[37] 	0.040160642570281
scalar dtelecom_network.node[38].core_layer 	interests[38] 	18818
scalar dtelecom_network.node[38].core_layer 	repo_load[38] 	15557
scalar dtelecom_network.node[38].core_layer 	data[38] 	0
scalar dtelecom_network.node[38].content_store 	p_hit[38] 	0.17329152938676
scalar dtelecom_network.node[38].content_store 	hits[38] 	3261
scalar dtelecom_network.node[38].content_store 	misses[38] 	15557
scalar dtelecom_network.node[38].content_store 	decision_yes[38] 	15557
scalar dtelecom_network.node[38].content_store 	decision_no[38] 	0
scalar dtelecom_network.node[38].content_store 	decision_ratio[38] 	1
scalar dtelecom_network.node[39].core_layer 	interests[39] 	0
scalar dtelecom_network.node[39].core_layer 	data[39] 	0
scalar dtelecom_network.node[39].content_store 	p_hit[39] 	-nan
scalar dtelecom_network.node[39].content_store 	hits[39] 	0
scalar dtelecom_network.node[39].content_store 	misses[39] 	0
scalar dtelecom_network.node[39].content_store 	decision_yes[39] 	0
scalar dtelecom_network.node[39].content_store 	decision_no[39] 	0
scalar dtelecom_network.node[39].content_store 	decision_ratio[39] 	0
scalar dtelecom_network.node[40].core_layer 	interests[40] 	11962
scalar dtelecom_network.node[40].core_layer 	data[40] 	8842
scalar dtelecom_network.node[40].content_store 	p_hit[40] 	0.26082594883799
scalar dtelecom_network.node[40].content_store 	hits[40] 	3120
scalar dtelecom_network.node[40].content_store 	misses[40] 	8842
scalar dtelecom_network.node[40].content_store 	decision_yes[40] 	575
scalar dtelecom_network.node[40].content_store 	decision_no[40] 	8267
scalar dtelecom_network.node[40].content_store 	decision_ratio[40] 	0.06503053607781
scalar dtelecom_network.node[41].core_layer 	interests[41] 	0
scalar dtelecom_network.node[41].core_layer 	data[41] 	0
scalar dtelecom_network.node[41].content_store 	p_hit[41] 	-nan
scalar dtelecom_network.node[41].content_store 	hits[41] 	0
scalar dtelecom_network.node[41].content_store 	misses[41] 	0
scalar dtelecom_network.node[41].content_store 	decision_yes[41] 	0
scalar dtelecom_network.node[41].content_store 	decision_no[41] 	0
scalar dtelecom_network.node[41].content_store 	decision_ratio[41] 	0
scalar dtelecom_network.node[42].core_layer 	interests[42] 	11939
scalar dtelecom_network.node[42].core_layer 	data[42] 	8801
scalar dtelecom_network.node[42].content_store 	p_hit[42] 	0.26283608342407
scalar dtelecom_network.node[42].content_store 	hits[42] 	3138
scalar dtelecom_network.node[42].content_store 	misses[42] 	8801
scalar dtelecom_network.node[42].content_store 	decision_yes[42] 	390
scalar dtelecom_network.node[42].content_store 	decision_no[42] 	8411
scalar dtelecom_network.node[42].content_store 	decision_ratio[42] 	0.044313146233383
scalar dtelecom_network.node[43].core_layer 	interests[43] 	0
scalar dtelecom_network.node[43].core_layer 	data[43] 	0
scalar dtelecom_network.node[43].content_store 	p_hit[43] 	-nan
scalar dtelecom_network.node[43].content_store 	hits[43] 	0
scalar dtelecom_network.node[43].content_store 	misses[43] 	0
scalar dtelecom_network.node[43].content_store 	decision_yes[43] 	0
scalar dtelecom_network.node[43].content_store 	decision_no[43] 	0
scalar dtelecom_network.node[43].content_store 	decision_ratio[43] 	0
scalar dtelecom_network.node[44].core_layer 	interests[44] 	17484
scalar dtelecom_network.node[44].core_layer 	repo_load[44] 	14402
scalar dtelecom_network.node[44].core_layer 	data[44] 	0
scalar dtelecom_network.node[44].content_store 	p_hit[44] 	0.17627545184168
scalar dtelecom_network.node[44].content_store 	hits[44] 	3082
scalar dtelecom_network.node[44].content_store 	misses[44] 	14402
scalar dtelecom_network.node[44].content_store 	decision_yes[44] 	14402
scalar dtelecom_network.node[44].content_store 	decision_no[44] 	0
scalar dtelecom_network.node[44].content_store 	decision_ratio[44] 	1
scalar dtelecom_network.node[45].core_layer 	interests[45] 	12057
scalar dtelecom_network.node[45].core_layer 	data[45] 	8965
scalar dtelecom_network.node[45].content_store 	p_hit[45] 	0.2564485361201
scalar dtelecom_network.node[45].content_store 	hits[45] 	3092
scalar dtelecom_network.node[45].content_store 	misses[45] 	8965
scalar dtelecom_network.node[45].content_store 	decision_yes[45] 	469
scalar dtelecom_network.node[45].content_store 	decision_no[45] 	8496
scalar dtelecom_network.node[45].content_store 	decision_ratio[45] 	0.052314556609035
scalar dtelecom_network.node[46].core_layer 	interests[46] 	29835
scalar dtelecom_network.node[46].core_layer 	repo_load[46] 	15285
scalar dtelecom_network.node[46].core_layer 	data[46] 	10036
scalar dtelecom_network.node[46].content_store 	p_hit[46] 	0.15119825708061
scalar dtelecom_network.node[46].content_store 	hits[46] 	4511
scalar dtelecom_network.node[46].content_store 	misses[46] 	25324
scalar dtelecom_network.node[46].content_store 	decision_yes[46] 	16513
scalar dtelecom_network.node[46].content_store 	decision_no[46] 	8808
scalar dtelecom_network.node[46].content_store 	decision_ratio[46] 	0.65214643971407
scalar dtelecom_network.node[47].core_layer 	interests[47] 	0
scalar dtelecom_network.node[47].core_layer 	data[47] 	0
scalar dtelecom_network.node[47].content_store 	p_hit[47] 	-nan
scalar dtelecom_network.node[47].content_store 	hits[47] 	0
scalar dtelecom_network.node[47].content_store 	misses[47] 	0
scalar dtelecom_network.node[47].content_store 	decision_yes[47] 	0
scalar dtelecom_network.node[47].content_store 	decision_no[47] 	0
scalar dtelecom_network.node[47].content_store 	decision_ratio[47] 	0
scalar dtelecom_network.node[48].core_layer 	interests[48] 	12086
scalar dtelecom_network.node[48].core_layer 	data[48] 	8824
scalar dtelecom_network.node[48].content_store 	p_hit[48] 	0.26998179712064
scalar dtelecom_network.node[48].content_store 	hits[48] 	3263
scalar dtelecom_network.node[48].content_store 	misses[48] 	8823
scalar dtelecom_network.node[48].content_store 	decision_yes[48] 	359
scalar dtelecom_network.node[48].content_store 	decision_no[48] 	8465
scalar dtelecom_network.node[48].content_store 	decision_ratio[48] 	0.040684496826836
scalar dtelecom_network.node[49].core_layer 	interests[49] 	12070
scalar dtelecom_network.node[49].core_layer 	data[49] 	8838
scalar dtelecom_network.node[49].content_store 	p_hit[49] 	0.26768848384424
scalar dtelecom_network.node[49].content_store 	hits[49] 	3231
scalar dtelecom_network.node[49].content_store 	misses[49] 	8839
scalar dtelecom_network.node[49].content_store 	decision_yes[49] 	352
scalar dtelecom_network.node[49].content_store 	decision_no[49] 	8486
scalar dtelecom_network.node[49].content_store 	decision_ratio[49] 	0.039828015388097
scalar dtelecom_network.node[50].core_layer 	interests[50] 	29969
scalar dtelecom_network.node[50].core_layer 	repo_load[50] 	15386
scalar dtelecom_network.node[50].core_layer 	data[50] 	10077
scalar dtelecom_network.node[50].content_store 	p_hit[50] 	0.15022189595916
scalar dtelecom_network.node[50].content_store 	hits[50] 	4502
scalar dtelecom_network.node[50].content_store 	misses[50] 	25467
scalar dtelecom_network.node[50].content_store 	decision_yes[50] 	16681
scalar dtelecom_network.node[50].content_store 	decision_no[50] 	8782
scalar dtelecom_network.node[50].content_store 	decision_ratio[50] 	0.65510741075286
scalar dtelecom_network.node[51].core_layer 	interests[51] 	11993
scalar dtelecom_network.node[51].core_layer 	data[51] 	8796
scalar dtelecom_network.node[51].content_store 	p_hit[51] 	0.26657216709747
scalar dtelecom_network.node[51].content_store 	hits[51] 	3197
scalar dtelecom_network.node[51].content_store 	misses[51] 	8796
scalar dtelecom_network.node[51].content_store 	decision_yes[51] 	400
scalar dtelecom_network.node[51].content_store 	decision_no[51] 	8396
scalar dtelecom_network.node[51].content_store 	decision_ratio[51] 	0.045475216007276
scalar dtelecom_network.node[52].core_layer 	interests[52] 	17789
scalar dtelecom_network.node[52].core_layer 	repo_load[52] 	14844
scalar dtelecom_network.node[52].core_layer 	data[52] 	0
scalar dtelecom_network.node[52].content_store 	p_hit[52] 	0.16555174546068
scalar dtelecom_network.node[52].content_store 	hits[52] 	2945
scalar dtelecom_network.node[52].content_store 	misses[52] 	14844
scalar dtelecom_network.node[52].content_store 	decision_yes[52] 	14844
scalar dtelecom_network.node[52].content_store 	decision_no[52] 	0
scalar dtelecom_network.node[52].content_store 	decision_ratio[52] 	1
scalar dtelecom_network.node[53].core_layer 	interests[53] 	11889
scalar dtelecom_network.node[53].core_layer 	data[53] 	8798
scalar dtelecom_network.node[53].content_store 	p_hit[53] 	0.25998822440912
scalar dtelecom_network.node[53].content_store 	hits[53] 	3091
scalar dtelecom_network.node[53].content_store 	misses[53] 	8798
scalar dtelecom_network.node[53].content_store 	decision_yes[53] 	414
scalar dtelecom_network.node[53].content_store 	decision_no[53] 	8384
scalar dtelecom_network.node[53].content_store 	decision_ratio[53] 	0.047056149124801
scalar dtelecom_network.node[54].core_layer 	interests[54] 	12087
scalar dtelecom_network.node[54].core_layer 	data[54] 	8784
scalar dtelecom_network.node[54].content_store 	p_hit[54] 	0.27326880119136
scalar dtelecom_network.node[54].content_store 	hits[54] 	3303
scalar dtelecom_network.node[54].content_store 	misses[54] 	8784
scalar dtelecom_network.node[54].content_store 	decision_yes[54] 	325
scalar dtelecom_network.node[54].content_store 	decision_no[54] 	8459
scalar dtelecom_network.node[54].content_store 	decision_ratio[54] 	0.036999089253188
scalar dtelecom_network.node[55].core_layer 	interests[55] 	29317
scalar dtelecom_network.node[55].core_layer 	repo_load[55] 	14775
scalar dtelecom_network.node[55].core_layer 	data[55] 	10170
scalar dtelecom_network.node[55].content_store 	p_hit[55] 	0.14895794249071
scalar dtelecom_network.node[55].content_store 	hits[55] 	4367
scalar dtelecom_network.node[55].content_store 	misses[55] 	24950
scalar dtelecom_network.node[55].content_store 	decision_yes[55] 	16088
scalar dtelecom_network.node[55].content_store 	decision_no[55] 	8857
scalar dtelecom_network.node[55].content_store 	decision_ratio[55] 	0.64493886550411
scalar dtelecom_network.node[56].core_layer 	interests[56] 	29702
scalar dtelecom_network.node[56].core_layer 	repo_load[56] 	14944
scalar dtelecom_network.node[56].core_layer 	data[56] 	9867
scalar dtelecom_network.node[56].content_store 	p_hit[56] 	0.1646690458555
scalar dtelecom_network.node[56].content_store 	hits[56] 	4891
scalar dtelecom_network.node[56].content_store 	misses[56] 	24811
scalar dtelecom_network.node[56].content_store 	decision_yes[56] 	16082
scalar dtelecom_network.node[56].content_store 	decision_no[56] 	8729
scalar dtelecom_network.node[56].content_store 	decision_ratio[56] 	0.64818024263432
scalar dtelecom_network.node[57].core_layer 	interests[57] 	28929
scalar dtelecom_network.node[57].core_layer 	repo_load[57] 	14875
scalar dtelecom_network.node[57].core_layer 	data[57] 	10170
scalar dtelecom_network.node[57].content_store 	p_hit[57] 	0.13415603719451
scalar dtelecom_network.node[57].content_store 	hits[57] 	3881
scalar dtelecom_network.node[57].content_store 	misses[57] 	25048
scalar dtelecom_network.node[57].content_store 	decision_yes[57] 	16166
scalar dtelecom_network.node[57].content_store 	decision_no[57] 	8879
scalar dtelecom_network.node[57].content_store 	decision_ratio[57] 	0.64547813934917
scalar dtelecom_network.node[58].core_layer 	interests[58] 	29651
scalar dtelecom_network.node[58].core_layer 	repo_load[58] 	15381
scalar dtelecom_network.node[58].core_layer 	data[58] 	10118
scalar dtelecom_network.node[58].content_store 	p_hit[58] 	0.13996155273009
scalar dtelecom_network.node[58].content_store 	hits[58] 	4150
scalar dtelecom_network.node[58].content_store 	misses[58] 	25501
scalar dtelecom_network.node[58].content_store 	decision_yes[58] 	16609
scalar dtelecom_network.node[58].content_store 	decision_no[58] 	8890
scalar dtelecom_network.node[58].content_store 	decision_ratio[58] 	0.6513588768187
scalar dtelecom_network.node[59].core_layer 	interests[59] 	12102
scalar dtelecom_network.node[59].core_layer 	data[59] 	9113
scalar dtelecom_network.node[59].content_store 	p_hit[59] 	0.24690133862172
scalar dtelecom_network.node[59].content_store 	hits[59] 	2988
scalar dtelecom_network.node[59].content_store 	misses[59] 	9114
scalar dtelecom_network.node[59].content_store 	decision_yes[59] 	1019
scalar dtelecom_network.node[59].content_store 	decision_no[59] 	8094
scalar dtelecom_network.node[59].content_store 	decision_ratio[59] 	0.11181828157577
scalar dtelecom_network.node[60].core_layer 	interests[60] 	0
scalar dtelecom_network.node[60].core_layer 	data[60] 	0
scalar dtelecom_network.node[60].content_store 	p_hit[60] 	-nan
scalar dtelecom_network.node[60].content_store 	hits[60] 	0
scalar dtelecom_network.node[60].content_store 	misses[60] 	0
scalar dtelecom_network.node[60].content_store 	decision_yes[60] 	0
scalar dtelecom_network.node[60].content_store 	decision_no[60] 	0
scalar dtelecom_network.node[60].content_store 	decision_ratio[60] 	0
scalar dtelecom_network.node[61].core_layer 	interests[61] 	0
scalar dtelecom_network.node[61].core_layer 	data[61] 	0
scalar dtelecom_network.node[61].content_store 	p_hit[61] 	-nan
scalar dtelecom_network.node[61].content_store 	hits[61] 	0
scalar dtelecom_network.node[61].content_store 	misses[61] 	0
scalar dtelecom_network.node[61].content_store 	decision_yes[61] 	0
scalar dtelecom_network.node[61].content_store 	decision_no[61] 	0
scalar dtelecom_network.node[61].content_store 	decision_ratio[61] 	0
scalar dtelecom_network.node[62].core_layer 	interests[62] 	12050
scalar dtelecom_network.node[62].core_layer 	data[62] 	8653
scalar dtelecom_network.node[62].content_store 	p_hit[62] 	0.28141078838174
scalar dtelecom_network.node[62].content_store 	hits[62] 	3391
scalar dtelecom_network.node[62].content_store 	misses[62] 	8659
scalar dtelecom_network.node[62].content_store 	decision_yes[62] 	222
scalar dtelecom_network.node[62].content_store 	decision_no[62] 	8431
scalar dtelecom_network.node[62].content_store 	decision_ratio[62] 	0.025655841904542
scalar dtelecom_network.node[63].core_layer 	interests[63] 	0
scalar dtelecom_network.node[63].core_layer 	data[63] 	0
scalar dtelecom_network.node[63].content_store 	p_hit[63] 	-nan
scalar dtelecom_network.node[63].content_store 	hits[63] 	0
scalar dtelecom_network.node[63].content_store 	misses[63] 	0
scalar dtelecom_network.node[63].content_store 	decision_yes[63] 	0
scalar dtelecom_network.node[63].content_store 	decision_no[63] 	0
scalar dtelecom_network.node[63].content_store 	decision_ratio[63] 	0
scalar dtelecom_network.node[64].core_layer 	interests[64] 	0
scalar dtelecom_network.node[64].core_layer 	data[64] 	0
scalar dtelecom_network.node[64].content_store 	p_hit[64] 	-nan
scalar dtelecom_network.node[64].content_store 	hits[64] 	0
scalar dtelecom_network.node[64].content_store 	misses[64] 	0
scalar dtelecom_network.node[64].content_store 	decision_yes[64] 	0
scalar dtelecom_network.node[64].content_store 	decision_no[64] 	0
scalar dtelecom_network.node[64].content_store 	decision_ratio[64] 	0
scalar dtelecom_network.node[65].core_layer 	interests[65] 	0
scalar dtelecom_network.node[65].core_layer 	data[65] 	0
scalar dtelecom_network.node[65].content_store 	p_hit[65] 	-nan
scalar dtelecom_network.node[65].content_store 	hits[65] 	0
scalar dtelecom_network.node[65].content_store 	misses[65] 	0
scalar dtelecom_network.node[65].content_store 	decision_yes[65] 	0
scalar dtelecom_network.node[65].content_store 	decision_no[65] 	0
scalar dtelecom_network.node[65].content_store 	decision_ratio[65] 	0
scalar dtelecom_network.node[66].core_layer 	interests[66] 	26273
scalar dtelecom_network.node[66].core_layer 	repo_load[66] 	13727
scalar dtelecom_network.node[66].core_layer 	data[66] 	9924
scalar dtelecom_network.node[66].content_store 	p_hit[66] 	0.099075096106269
scalar dtelecom_network.node[66].content_store 	hits[66] 	2603
scalar dtelecom_network.node[66].content_store 	misses[66] 	23670
scalar dtelecom_network.node[66].content_store 	decision_yes[66] 	14815
scalar dtelecom_network.node[66].content_store 	decision_no[66] 	8836
scalar dtelecom_network.node[66].content_store 	decision_ratio[66] 	0.62640057502854
scalar dtelecom_network.node[67].core_layer 	interests[67] 	12172
scalar dtelecom_network.node[67].core_layer 	data[67] 	8895
scalar dtelecom_network.node[67].content_store 	p_hit[67] 	0.26906013802169
scalar dtelecom_network.node[67].content_store 	hits[67] 	3275
scalar dtelecom_network.node[67].content_store 	misses[67] 	8897
scalar dtelecom_network.node[67].content_store 	decision_yes[67] 	345
scalar dtelecom_network.node[67].content_store 	decision_no[67] 	8550
scalar dtelecom_network.node[67].content_store 	decision_ratio[67] 	0.038785834738617
scalar dtelecom_network.client[3] 	hdistance[3] 	1.5418157610052
scalar dtelecom_network.client[3] 	downloads[3] 	12017
scalar dtelecom_network.client[3] 	avg_time[3] 	0.013766948765
scalar dtelecom_network.client[4] 	hdistance[4] 	1.4306869600987
scalar dtelecom_network.client[4] 	downloads[4] 	12155
scalar dtelecom_network.client[4] 	avg_time[4] 	0.05167537182
scalar dtelecom_network.client[8] 	hdistance[8] 	2.0065304755526
scalar dtelecom_network.client[8] 	downloads[8] 	11944
scalar dtelecom_network.client[8] 	avg_time[8] 	0.015319768986
scalar dtelecom_network.client[9] 	hdistance[9] 	2.056175134242
scalar dtelecom_network.client[9] 	downloads[9] 	12105
scalar dtelecom_network.client[9] 	avg_time[9] 	0.016626368738
scalar dtelecom_network.client[17] 	hdistance[17] 	1.9126885975761
scalar dtelecom_network.client[17] 	downloads[17] 	12129
scalar dtelecom_network.client[17] 	avg_time[17] 	0.012209688524
scalar dtelecom_network.client[22] 	hdistance[22] 	1.9890915146973
scalar dtelecom_network.client[22] 	downloads[22] 	12009
scalar dtelecom_network.client[22] 	avg_time[22] 	0.013923324007
scalar dtelecom_network.client[23] 	hdistance[23] 	1.8408278613582
scalar dtelecom_network.client[23] 	downloads[23] 	12031
scalar dtelecom_network.client[23] 	avg_time[23] 	0.013466280323
scalar dtelecom_network.client[28] 	hdistance[28] 	2.0087102177554
scalar dtelecom_network.client[28] 	downloads[28] 	11940
scalar dtelecom_network.client[28] 	avg_time[28] 	0.015320700467
scalar dtelecom_network.client[30] 	hdistance[30] 	1.9958937400486
scalar dtelecom_network.client[30] 	downloads[30] 	11933
scalar dtelecom_network.client[30] 	avg_time[30] 	0.014281828578
scalar dtelecom_network.client[31] 	hdistance[31] 	1.9808537090758
scalar dtelecom_network.client[31] 	downloads[31] 	12065
scalar dtelecom_network.client[31] 	avg_time[31] 	0.015703861503
scalar dtelecom_network.client[32] 	hdistance[32] 	1.9756935713687
scalar dtelecom_network.client[32] 	downloads[32] 	11931
scalar dtelecom_network.client[32] 	avg_time[32] 	0.011613931516
scalar dtelecom_network.client[33] 	hdistance[33] 	1.8853764676903
scalar dtelecom_network.client[33] 	downloads[33] 	12179
scalar dtelecom_network.client[33] 	avg_time[33] 	0.013962867153
scalar dtelecom_network.client[36] 	hdistance[36] 	2.1480117203851
scalar dtelecom_network.client[36] 	downloads[36] 	11945
scalar dtelecom_network.client[36] 	avg_time[36] 	0.016300495604
scalar dtelecom_network.client[37] 	hdistance[37] 	1.9759026028547
scalar dtelecom_network.client[37] 	downloads[37] 	11910
scalar dtelecom_network.client[37] 	avg_time[37] 	0.01369409865
scalar dtelecom_network.client[40] 	hdistance[40] 	1.8588028757733
scalar dtelecom_network.client[40] 	downloads[40] 	11962
scalar dtelecom_network.client[40] 	avg_time[40] 	0.014401823253
scalar dtelecom_network.client[42] 	hdistance[42] 	1.9830806600218
scalar dtelecom_network.client[42] 	downloads[42] 	11939
scalar dtelecom_network.client[42] 	avg_time[42] 	0.014656001682
scalar dtelecom_network.client[45] 	hdistance[45] 	1.9527245583478
scalar dtelecom_network.client[45] 	downloads[45] 	12057
scalar dtelecom_network.client[45] 	avg_time[45] 	0.014241755079
scalar dtelecom_network.client[46] 	hdistance[46] 	2.1514641534837
scalar dtelecom_network.client[46] 	downloads[46] 	11884
scalar dtelecom_network.client[46] 	avg_time[46] 	0.018390846945
scalar dtelecom_network.client[48] 	hdistance[48] 	1.9688094647142
scalar dtelecom_network.client[48] 	downloads[48] 	12087
scalar dtelecom_network.client[48] 	avg_time[48] 	0.014477137758
scalar dtelecom_network.client[49] 	hdistance[49] 	1.9765514955672
scalar dtelecom_network.client[49] 	downloads[49] 	12069
scalar dtelecom_network.client[49] 	avg_time[49] 	0.013977503178
scalar dtelecom_network.client[50] 	hdistance[50] 	2.1464523188284
scalar dtelecom_network.client[50] 	downloads[50] 	11881
scalar dtelecom_network.client[50] 	avg_time[50] 	0.014526162457
scalar dtelecom_network.client[51] 	hdistance[51] 	1.9719002751605
scalar dtelecom_network.client[51] 	downloads[51] 	11993
scalar dtelecom_network.client[51] 	avg_time[51] 	0.01414315596
scalar dtelecom_network.client[53] 	hdistance[53] 	1.988476743208
scalar dtelecom_network.client[53] 	downloads[53] 	11889
scalar dtelecom_network.client[53] 	avg_time[53] 	0.013270142321
scalar dtelecom_network.client[54] 	hdistance[54] 	1.9679821295607
scalar dtelecom_network.client[54] 	downloads[54] 	12087
scalar dtelecom_network.client[54] 	avg_time[54] 	0.015222145084
scalar dtelecom_network.client[55] 	hdistance[55] 	2.0952499172459
scalar dtelecom_network.client[55] 	downloads[55] 	12084
scalar dtelecom_network.client[55] 	avg_time[55] 	0.019363760763
scalar dtelecom_network.client[56] 	hdistance[56] 	2.1509482316761
scalar dtelecom_network.client[56] 	downloads[56] 	11706
scalar dtelecom_network.client[56] 	avg_time[56] 	0.015614607395
scalar dtelecom_network.client[57] 	hdistance[57] 	2.153574432296
scalar dtelecom_network.client[57] 	downloads[57] 	11890
scalar dtelecom_network.client[57] 	avg_time[57] 	0.014160818865
scalar dtelecom_network.client[58] 	hdistance[58] 	2.1471227835397
scalar dtelecom_network.client[58] 	downloads[58] 	11956
scalar dtelecom_network.client[58] 	avg_time[58] 	0.017549013678
scalar dtelecom_network.client[59] 	hdistance[59] 	1.9620692504752
scalar dtelecom_network.client[59] 	downloads[59] 	12101
scalar dtelecom_network.client[59] 	avg_time[59] 	0.060877445218
scalar dtelecom_network.client[62] 	hdistance[62] 	2.4607273331119
scalar dtelecom_network.client[62] 	downloads[62] 	12044
scalar dtelecom_network.client[62] 	avg_time[62] 	0.059417261572
scalar dtelecom_network.client[66] 	hdistance[66] 	2.2323283506461
scalar dtelecom_network.client[66] 	downloads[66] 	11841
scalar dtelecom_network.client[66] 	avg_time[66] 	0.100475952214
scalar dtelecom_network.client[67] 	hdistance[67] 	2.0069022185703
scalar dtelecom_network.client[67] 	downloads[67] 	12170
scalar dtelecom_network.client[67] 	avg_time[67] 	0.073545674934
