version 2
run General-48-20160824-02:31:55-9702
attr D lcd
attr F spr
attr R lru
attr a 0.9
attr configname General
attr datetime 20160824-02:31:55
attr experiment General
attr inifile hw5115/scenario_C/omnetp.ini
attr iterationvars "$net=dtelecom, $rep=6, $a=0.9, $F=spr, $D=lcd, $R=lru, $window=60, $variance=0.05, $mytime=600"
attr iterationvars2 "$net=dtelecom, $rep=6, $a=0.9, $F=spr, $D=lcd, $R=lru, $window=60, $variance=0.05, $mytime=600, $repetition=0"
attr measurement "$net=dtelecom, $rep=6, $a=0.9, $F=spr, $D=lcd, $R=lru, $window=60, $variance=0.05, $mytime=600"
attr mytime 600
attr net dtelecom
attr network networks.${net=dtelecom}_network
attr processid 9702
attr rep 6
attr repetition 0
attr replication #0
attr resultdir results
attr runnumber 48
attr seedset 6
attr variance 0.05
attr window 60

scalar . 	a 	0.9
scalar . 	mytime 	600
scalar . 	rep 	6
scalar . 	variance 	0.05
scalar . 	window 	60
scalar dtelecom_network.content_distribution 	repo-0 	40
scalar dtelecom_network.content_distribution 	repo-1 	19
scalar dtelecom_network.content_distribution 	repo-2 	52
scalar dtelecom_network.content_distribution 	repo-3 	31
scalar dtelecom_network.content_distribution 	repo-4 	66
scalar dtelecom_network.content_distribution 	repo-5 	56
scalar dtelecom_network.content_distribution 	repo-6 	22
scalar dtelecom_network.content_distribution 	repo-7 	34
scalar dtelecom_network.content_distribution 	repo-8 	5
scalar dtelecom_network.content_distribution 	repo-9 	10
scalar dtelecom_network.content_distribution 	repo-10 	50
scalar dtelecom_network.content_distribution 	repo-11 	39
scalar dtelecom_network.content_distribution 	repo-12 	15
scalar dtelecom_network.content_distribution 	repo-13 	9
scalar dtelecom_network.content_distribution 	repo-14 	4
scalar dtelecom_network.content_distribution 	repo-15 	53
scalar dtelecom_network.content_distribution 	client-0 	46
scalar dtelecom_network.content_distribution 	client-1 	30
scalar dtelecom_network.content_distribution 	client-2 	8
scalar dtelecom_network.content_distribution 	client-3 	49
scalar dtelecom_network.content_distribution 	client-4 	66
scalar dtelecom_network.content_distribution 	client-5 	58
scalar dtelecom_network.content_distribution 	client-6 	32
scalar dtelecom_network.content_distribution 	client-7 	40
scalar dtelecom_network.content_distribution 	client-8 	42
scalar dtelecom_network.content_distribution 	client-9 	45
scalar dtelecom_network.content_distribution 	client-10 	33
scalar dtelecom_network.content_distribution 	client-11 	28
scalar dtelecom_network.content_distribution 	client-12 	3
scalar dtelecom_network.content_distribution 	client-13 	57
scalar dtelecom_network.content_distribution 	client-14 	50
scalar dtelecom_network.content_distribution 	client-15 	17
scalar dtelecom_network.content_distribution 	client-16 	59
scalar dtelecom_network.content_distribution 	client-17 	48
scalar dtelecom_network.content_distribution 	client-18 	23
scalar dtelecom_network.content_distribution 	client-19 	22
scalar dtelecom_network.content_distribution 	client-20 	67
scalar dtelecom_network.content_distribution 	client-21 	62
scalar dtelecom_network.content_distribution 	client-22 	56
scalar dtelecom_network.content_distribution 	client-23 	55
scalar dtelecom_network.content_distribution 	client-24 	53
scalar dtelecom_network.content_distribution 	client-25 	36
scalar dtelecom_network.content_distribution 	client-26 	51
scalar dtelecom_network.content_distribution 	client-27 	37
scalar dtelecom_network.content_distribution 	client-28 	54
scalar dtelecom_network.content_distribution 	client-29 	4
scalar dtelecom_network.content_distribution 	client-30 	31
scalar dtelecom_network.content_distribution 	client-31 	9
scalar dtelecom_network.content_distribution 	repo-0_card 	6360
scalar dtelecom_network.content_distribution 	repo-0_price 	0
scalar dtelecom_network.content_distribution 	repo-1_card 	6226
scalar dtelecom_network.content_distribution 	repo-1_price 	0
scalar dtelecom_network.content_distribution 	repo-2_card 	6203
scalar dtelecom_network.content_distribution 	repo-2_price 	0
scalar dtelecom_network.content_distribution 	repo-3_card 	6282
scalar dtelecom_network.content_distribution 	repo-3_price 	0
scalar dtelecom_network.content_distribution 	repo-4_card 	6335
scalar dtelecom_network.content_distribution 	repo-4_price 	0
scalar dtelecom_network.content_distribution 	repo-5_card 	6116
scalar dtelecom_network.content_distribution 	repo-5_price 	0
scalar dtelecom_network.content_distribution 	repo-6_card 	6219
scalar dtelecom_network.content_distribution 	repo-6_price 	0
scalar dtelecom_network.content_distribution 	repo-7_card 	6216
scalar dtelecom_network.content_distribution 	repo-7_price 	0
scalar dtelecom_network.content_distribution 	repo-8_card 	6343
scalar dtelecom_network.content_distribution 	repo-8_price 	0
scalar dtelecom_network.content_distribution 	repo-9_card 	6167
scalar dtelecom_network.content_distribution 	repo-9_price 	0
scalar dtelecom_network.content_distribution 	repo-10_card 	6309
scalar dtelecom_network.content_distribution 	repo-10_price 	0
scalar dtelecom_network.content_distribution 	repo-11_card 	6206
scalar dtelecom_network.content_distribution 	repo-11_price 	0
scalar dtelecom_network.content_distribution 	repo-12_card 	6249
scalar dtelecom_network.content_distribution 	repo-12_price 	0
scalar dtelecom_network.content_distribution 	repo-13_card 	6264
scalar dtelecom_network.content_distribution 	repo-13_price 	0
scalar dtelecom_network.content_distribution 	repo-14_card 	6241
scalar dtelecom_network.content_distribution 	repo-14_price 	0
scalar dtelecom_network.content_distribution 	repo-15_card 	6264
scalar dtelecom_network.content_distribution 	repo-15_price 	0
scalar dtelecom_network.statistics 	stabilization_time 	8320.2
scalar dtelecom_network.statistics 	p_hit 	0.20521170169119
scalar dtelecom_network.statistics 	interests 	13276.367647059
scalar dtelecom_network.statistics 	data 	7619.7205882353
scalar dtelecom_network.statistics 	hdistance 	1.9760203727593
scalar dtelecom_network.statistics 	avg_time 	0.029262695019
scalar dtelecom_network.statistics 	downloads 	384586
scalar dtelecom_network.statistics 	total_cost 	0
scalar dtelecom_network.statistics 	total_replicas 	100000
scalar dtelecom_network.statistics 	inner_hit 	0.37207022616528
scalar dtelecom_network.node[0].core_layer 	interests[0] 	0
scalar dtelecom_network.node[0].core_layer 	data[0] 	0
scalar dtelecom_network.node[0].core_layer 	repo_int[0] 	241493
scalar dtelecom_network.node[0].content_store 	p_hit[0] 	-nan
scalar dtelecom_network.node[0].content_store 	hits[0] 	0
scalar dtelecom_network.node[0].content_store 	misses[0] 	0
scalar dtelecom_network.node[0].content_store 	decision_yes[0] 	0
scalar dtelecom_network.node[0].content_store 	decision_no[0] 	0
scalar dtelecom_network.node[0].content_store 	decision_ratio[0] 	0
scalar dtelecom_network.node[1].core_layer 	interests[1] 	189243
scalar dtelecom_network.node[1].core_layer 	data[1] 	175488
scalar dtelecom_network.node[1].content_store 	p_hit[1] 	0.07225630538514
scalar dtelecom_network.node[1].content_store 	hits[1] 	13674
scalar dtelecom_network.node[1].content_store 	misses[1] 	175569
scalar dtelecom_network.node[1].content_store 	decision_yes[1] 	24844
scalar dtelecom_network.node[1].content_store 	decision_no[1] 	150644
scalar dtelecom_network.node[1].content_store 	decision_ratio[1] 	0.14157093362509
scalar dtelecom_network.node[2].core_layer 	interests[2] 	2856
scalar dtelecom_network.node[2].core_layer 	data[2] 	2522
scalar dtelecom_network.node[2].content_store 	p_hit[2] 	0.11694677871148
scalar dtelecom_network.node[2].content_store 	hits[2] 	334
scalar dtelecom_network.node[2].content_store 	misses[2] 	2522
scalar dtelecom_network.node[2].content_store 	decision_yes[2] 	145
scalar dtelecom_network.node[2].content_store 	decision_no[2] 	2377
scalar dtelecom_network.node[2].content_store 	decision_ratio[2] 	0.057494052339413
scalar dtelecom_network.node[3].core_layer 	interests[3] 	12062
scalar dtelecom_network.node[3].core_layer 	data[3] 	8995
scalar dtelecom_network.node[3].content_store 	p_hit[3] 	0.25418670203946
scalar dtelecom_network.node[3].content_store 	hits[3] 	3066
scalar dtelecom_network.node[3].content_store 	misses[3] 	8996
scalar dtelecom_network.node[3].content_store 	decision_yes[3] 	1270
scalar dtelecom_network.node[3].content_store 	decision_no[3] 	7725
scalar dtelecom_network.node[3].content_store 	decision_ratio[3] 	0.14118954974986
scalar dtelecom_network.node[4].core_layer 	interests[4] 	63049
scalar dtelecom_network.node[4].core_layer 	repo_load[4] 	14984
scalar dtelecom_network.node[4].core_layer 	data[4] 	41928
scalar dtelecom_network.node[4].content_store 	p_hit[4] 	0.095608177766499
scalar dtelecom_network.node[4].content_store 	hits[4] 	6028
scalar dtelecom_network.node[4].content_store 	misses[4] 	57021
scalar dtelecom_network.node[4].content_store 	decision_yes[4] 	22564
scalar dtelecom_network.node[4].content_store 	decision_no[4] 	34348
scalar dtelecom_network.node[4].content_store 	decision_ratio[4] 	0.39647174585325
scalar dtelecom_network.node[5].core_layer 	interests[5] 	18251
scalar dtelecom_network.node[5].core_layer 	repo_load[5] 	15202
scalar dtelecom_network.node[5].core_layer 	data[5] 	0
scalar dtelecom_network.node[5].content_store 	p_hit[5] 	0.16705933921429
scalar dtelecom_network.node[5].content_store 	hits[5] 	3049
scalar dtelecom_network.node[5].content_store 	misses[5] 	15202
scalar dtelecom_network.node[5].content_store 	decision_yes[5] 	15202
scalar dtelecom_network.node[5].content_store 	decision_no[5] 	0
scalar dtelecom_network.node[5].content_store 	decision_ratio[5] 	1
scalar dtelecom_network.node[6].core_layer 	interests[6] 	0
scalar dtelecom_network.node[6].core_layer 	data[6] 	0
scalar dtelecom_network.node[6].content_store 	p_hit[6] 	-nan
scalar dtelecom_network.node[6].content_store 	hits[6] 	0
scalar dtelecom_network.node[6].content_store 	misses[6] 	0
scalar dtelecom_network.node[6].content_store 	decision_yes[6] 	0
scalar dtelecom_network.node[6].content_store 	decision_no[6] 	0
scalar dtelecom_network.node[6].content_store 	decision_ratio[6] 	0
scalar dtelecom_network.node[7].core_layer 	interests[7] 	0
scalar dtelecom_network.node[7].core_layer 	data[7] 	0
scalar dtelecom_network.node[7].content_store 	p_hit[7] 	-nan
scalar dtelecom_network.node[7].content_store 	hits[7] 	0
scalar dtelecom_network.node[7].content_store 	misses[7] 	0
scalar dtelecom_network.node[7].content_store 	decision_yes[7] 	0
scalar dtelecom_network.node[7].content_store 	decision_no[7] 	0
scalar dtelecom_network.node[7].content_store 	decision_ratio[7] 	0
scalar dtelecom_network.node[8].core_layer 	interests[8] 	11951
scalar dtelecom_network.node[8].core_layer 	data[8] 	8818
scalar dtelecom_network.node[8].content_store 	p_hit[8] 	0.26215379466153
scalar dtelecom_network.node[8].content_store 	hits[8] 	3133
scalar dtelecom_network.node[8].content_store 	misses[8] 	8818
scalar dtelecom_network.node[8].content_store 	decision_yes[8] 	531
scalar dtelecom_network.node[8].content_store 	decision_no[8] 	8287
scalar dtelecom_network.node[8].content_store 	decision_ratio[8] 	0.060217736448174
scalar dtelecom_network.node[9].core_layer 	interests[9] 	31179
scalar dtelecom_network.node[9].core_layer 	repo_load[9] 	15685
scalar dtelecom_network.node[9].core_layer 	data[9] 	11292
scalar dtelecom_network.node[9].content_store 	p_hit[9] 	0.13464190641137
scalar dtelecom_network.node[9].content_store 	hits[9] 	4198
scalar dtelecom_network.node[9].content_store 	misses[9] 	26981
scalar dtelecom_network.node[9].content_store 	decision_yes[9] 	17603
scalar dtelecom_network.node[9].content_store 	decision_no[9] 	9374
scalar dtelecom_network.node[9].content_store 	decision_ratio[9] 	0.65251881232161
scalar dtelecom_network.node[10].core_layer 	interests[10] 	18019
scalar dtelecom_network.node[10].core_layer 	repo_load[10] 	14850
scalar dtelecom_network.node[10].core_layer 	data[10] 	0
scalar dtelecom_network.node[10].content_store 	p_hit[10] 	0.17586991508963
scalar dtelecom_network.node[10].content_store 	hits[10] 	3169
scalar dtelecom_network.node[10].content_store 	misses[10] 	14850
scalar dtelecom_network.node[10].content_store 	decision_yes[10] 	14850
scalar dtelecom_network.node[10].content_store 	decision_no[10] 	0
scalar dtelecom_network.node[10].content_store 	decision_ratio[10] 	1
scalar dtelecom_network.node[11].core_layer 	interests[11] 	0
scalar dtelecom_network.node[11].core_layer 	data[11] 	0
scalar dtelecom_network.node[11].content_store 	p_hit[11] 	-nan
scalar dtelecom_network.node[11].content_store 	hits[11] 	0
scalar dtelecom_network.node[11].content_store 	misses[11] 	0
scalar dtelecom_network.node[11].content_store 	decision_yes[11] 	0
scalar dtelecom_network.node[11].content_store 	decision_no[11] 	0
scalar dtelecom_network.node[11].content_store 	decision_ratio[11] 	0
scalar dtelecom_network.node[12].core_layer 	interests[12] 	0
scalar dtelecom_network.node[12].core_layer 	data[12] 	0
scalar dtelecom_network.node[12].content_store 	p_hit[12] 	-nan
scalar dtelecom_network.node[12].content_store 	hits[12] 	0
scalar dtelecom_network.node[12].content_store 	misses[12] 	0
scalar dtelecom_network.node[12].content_store 	decision_yes[12] 	0
scalar dtelecom_network.node[12].content_store 	decision_no[12] 	0
scalar dtelecom_network.node[12].content_store 	decision_ratio[12] 	0
scalar dtelecom_network.node[13].core_layer 	interests[13] 	0
scalar dtelecom_network.node[13].core_layer 	data[13] 	0
scalar dtelecom_network.node[13].content_store 	p_hit[13] 	-nan
scalar dtelecom_network.node[13].content_store 	hits[13] 	0
scalar dtelecom_network.node[13].content_store 	misses[13] 	0
scalar dtelecom_network.node[13].content_store 	decision_yes[13] 	0
scalar dtelecom_network.node[13].content_store 	decision_no[13] 	0
scalar dtelecom_network.node[13].content_store 	decision_ratio[13] 	0
scalar dtelecom_network.node[14].core_layer 	interests[14] 	0
scalar dtelecom_network.node[14].core_layer 	data[14] 	0
scalar dtelecom_network.node[14].content_store 	p_hit[14] 	-nan
scalar dtelecom_network.node[14].content_store 	hits[14] 	0
scalar dtelecom_network.node[14].content_store 	misses[14] 	0
scalar dtelecom_network.node[14].content_store 	decision_yes[14] 	0
scalar dtelecom_network.node[14].content_store 	decision_no[14] 	0
scalar dtelecom_network.node[14].content_store 	decision_ratio[14] 	0
scalar dtelecom_network.node[15].core_layer 	interests[15] 	17785
scalar dtelecom_network.node[15].core_layer 	repo_load[15] 	14791
scalar dtelecom_network.node[15].core_layer 	data[15] 	0
scalar dtelecom_network.node[15].content_store 	p_hit[15] 	0.16834411020523
scalar dtelecom_network.node[15].content_store 	hits[15] 	2994
scalar dtelecom_network.node[15].content_store 	misses[15] 	14791
scalar dtelecom_network.node[15].content_store 	decision_yes[15] 	14791
scalar dtelecom_network.node[15].content_store 	decision_no[15] 	0
scalar dtelecom_network.node[15].content_store 	decision_ratio[15] 	1
scalar dtelecom_network.node[16].core_layer 	interests[16] 	0
scalar dtelecom_network.node[16].core_layer 	data[16] 	0
scalar dtelecom_network.node[16].content_store 	p_hit[16] 	-nan
scalar dtelecom_network.node[16].content_store 	hits[16] 	0
scalar dtelecom_network.node[16].content_store 	misses[16] 	0
scalar dtelecom_network.node[16].content_store 	decision_yes[16] 	0
scalar dtelecom_network.node[16].content_store 	decision_no[16] 	0
scalar dtelecom_network.node[16].content_store 	decision_ratio[16] 	0
scalar dtelecom_network.node[17].core_layer 	interests[17] 	13124
scalar dtelecom_network.node[17].core_layer 	data[17] 	10038
scalar dtelecom_network.node[17].content_store 	p_hit[17] 	0.23506552880219
scalar dtelecom_network.node[17].content_store 	hits[17] 	3085
scalar dtelecom_network.node[17].content_store 	misses[17] 	10039
scalar dtelecom_network.node[17].content_store 	decision_yes[17] 	877
scalar dtelecom_network.node[17].content_store 	decision_no[17] 	9161
scalar dtelecom_network.node[17].content_store 	decision_ratio[17] 	0.087368001593943
scalar dtelecom_network.node[18].core_layer 	interests[18] 	0
scalar dtelecom_network.node[18].core_layer 	data[18] 	0
scalar dtelecom_network.node[18].content_store 	p_hit[18] 	-nan
scalar dtelecom_network.node[18].content_store 	hits[18] 	0
scalar dtelecom_network.node[18].content_store 	misses[18] 	0
scalar dtelecom_network.node[18].content_store 	decision_yes[18] 	0
scalar dtelecom_network.node[18].content_store 	decision_no[18] 	0
scalar dtelecom_network.node[18].content_store 	decision_ratio[18] 	0
scalar dtelecom_network.node[19].core_layer 	interests[19] 	17553
scalar dtelecom_network.node[19].core_layer 	repo_load[19] 	14793
scalar dtelecom_network.node[19].core_layer 	data[19] 	0
scalar dtelecom_network.node[19].content_store 	p_hit[19] 	0.15723807896086
scalar dtelecom_network.node[19].content_store 	hits[19] 	2760
scalar dtelecom_network.node[19].content_store 	misses[19] 	14793
scalar dtelecom_network.node[19].content_store 	decision_yes[19] 	14793
scalar dtelecom_network.node[19].content_store 	decision_no[19] 	0
scalar dtelecom_network.node[19].content_store 	decision_ratio[19] 	1
scalar dtelecom_network.node[20].core_layer 	interests[20] 	0
scalar dtelecom_network.node[20].core_layer 	data[20] 	0
scalar dtelecom_network.node[20].content_store 	p_hit[20] 	-nan
scalar dtelecom_network.node[20].content_store 	hits[20] 	0
scalar dtelecom_network.node[20].content_store 	misses[20] 	0
scalar dtelecom_network.node[20].content_store 	decision_yes[20] 	0
scalar dtelecom_network.node[20].content_store 	decision_no[20] 	0
scalar dtelecom_network.node[20].content_store 	decision_ratio[20] 	0
scalar dtelecom_network.node[21].core_layer 	interests[21] 	0
scalar dtelecom_network.node[21].core_layer 	data[21] 	0
scalar dtelecom_network.node[21].content_store 	p_hit[21] 	-nan
scalar dtelecom_network.node[21].content_store 	hits[21] 	0
scalar dtelecom_network.node[21].content_store 	misses[21] 	0
scalar dtelecom_network.node[21].content_store 	decision_yes[21] 	0
scalar dtelecom_network.node[21].content_store 	decision_no[21] 	0
scalar dtelecom_network.node[21].content_store 	decision_ratio[21] 	0
scalar dtelecom_network.node[22].core_layer 	interests[22] 	28937
scalar dtelecom_network.node[22].core_layer 	repo_load[22] 	14863
scalar dtelecom_network.node[22].core_layer 	data[22] 	10110
scalar dtelecom_network.node[22].content_store 	p_hit[22] 	0.13681445899713
scalar dtelecom_network.node[22].content_store 	hits[22] 	3959
scalar dtelecom_network.node[22].content_store 	misses[22] 	24978
scalar dtelecom_network.node[22].content_store 	decision_yes[22] 	16278
scalar dtelecom_network.node[22].content_store 	decision_no[22] 	8695
scalar dtelecom_network.node[22].content_store 	decision_ratio[22] 	0.65182396988748
scalar dtelecom_network.node[23].core_layer 	interests[23] 	22393
scalar dtelecom_network.node[23].core_layer 	data[23] 	19324
scalar dtelecom_network.node[23].content_store 	p_hit[23] 	0.13673915955879
scalar dtelecom_network.node[23].content_store 	hits[23] 	3062
scalar dtelecom_network.node[23].content_store 	misses[23] 	19331
scalar dtelecom_network.node[23].content_store 	decision_yes[23] 	1774
scalar dtelecom_network.node[23].content_store 	decision_no[23] 	17550
scalar dtelecom_network.node[23].content_store 	decision_ratio[23] 	0.091802939350031
scalar dtelecom_network.node[24].core_layer 	interests[24] 	0
scalar dtelecom_network.node[24].core_layer 	data[24] 	0
scalar dtelecom_network.node[24].content_store 	p_hit[24] 	-nan
scalar dtelecom_network.node[24].content_store 	hits[24] 	0
scalar dtelecom_network.node[24].content_store 	misses[24] 	0
scalar dtelecom_network.node[24].content_store 	decision_yes[24] 	0
scalar dtelecom_network.node[24].content_store 	decision_no[24] 	0
scalar dtelecom_network.node[24].content_store 	decision_ratio[24] 	0
scalar dtelecom_network.node[25].core_layer 	interests[25] 	0
scalar dtelecom_network.node[25].core_layer 	data[25] 	0
scalar dtelecom_network.node[25].content_store 	p_hit[25] 	-nan
scalar dtelecom_network.node[25].content_store 	hits[25] 	0
scalar dtelecom_network.node[25].content_store 	misses[25] 	0
scalar dtelecom_network.node[25].content_store 	decision_yes[25] 	0
scalar dtelecom_network.node[25].content_store 	decision_no[25] 	0
scalar dtelecom_network.node[25].content_store 	decision_ratio[25] 	0
scalar dtelecom_network.node[26].core_layer 	interests[26] 	546
scalar dtelecom_network.node[26].core_layer 	data[26] 	374
scalar dtelecom_network.node[26].content_store 	p_hit[26] 	0.31501831501832
scalar dtelecom_network.node[26].content_store 	hits[26] 	172
scalar dtelecom_network.node[26].content_store 	misses[26] 	374
scalar dtelecom_network.node[26].content_store 	decision_yes[26] 	17
scalar dtelecom_network.node[26].content_store 	decision_no[26] 	357
scalar dtelecom_network.node[26].content_store 	decision_ratio[26] 	0.045454545454545
scalar dtelecom_network.node[27].core_layer 	interests[27] 	0
scalar dtelecom_network.node[27].core_layer 	data[27] 	0
scalar dtelecom_network.node[27].content_store 	p_hit[27] 	-nan
scalar dtelecom_network.node[27].content_store 	hits[27] 	0
scalar dtelecom_network.node[27].content_store 	misses[27] 	0
scalar dtelecom_network.node[27].content_store 	decision_yes[27] 	0
scalar dtelecom_network.node[27].content_store 	decision_no[27] 	0
scalar dtelecom_network.node[27].content_store 	decision_ratio[27] 	0
scalar dtelecom_network.node[28].core_layer 	interests[28] 	12155
scalar dtelecom_network.node[28].core_layer 	data[28] 	9018
scalar dtelecom_network.node[28].content_store 	p_hit[28] 	0.25800082270671
scalar dtelecom_network.node[28].content_store 	hits[28] 	3136
scalar dtelecom_network.node[28].content_store 	misses[28] 	9019
scalar dtelecom_network.node[28].content_store 	decision_yes[28] 	510
scalar dtelecom_network.node[28].content_store 	decision_no[28] 	8508
scalar dtelecom_network.node[28].content_store 	decision_ratio[28] 	0.056553559547572
scalar dtelecom_network.node[29].core_layer 	interests[29] 	0
scalar dtelecom_network.node[29].core_layer 	data[29] 	0
scalar dtelecom_network.node[29].content_store 	p_hit[29] 	-nan
scalar dtelecom_network.node[29].content_store 	hits[29] 	0
scalar dtelecom_network.node[29].content_store 	misses[29] 	0
scalar dtelecom_network.node[29].content_store 	decision_yes[29] 	0
scalar dtelecom_network.node[29].content_store 	decision_no[29] 	0
scalar dtelecom_network.node[29].content_store 	decision_ratio[29] 	0
scalar dtelecom_network.node[30].core_layer 	interests[30] 	12156
scalar dtelecom_network.node[30].core_layer 	data[30] 	8923
scalar dtelecom_network.node[30].content_store 	p_hit[30] 	0.26604146100691
scalar dtelecom_network.node[30].content_store 	hits[30] 	3234
scalar dtelecom_network.node[30].content_store 	misses[30] 	8922
scalar dtelecom_network.node[30].content_store 	decision_yes[30] 	487
scalar dtelecom_network.node[30].content_store 	decision_no[30] 	8436
scalar dtelecom_network.node[30].content_store 	decision_ratio[30] 	0.054578056707385
scalar dtelecom_network.node[31].core_layer 	interests[31] 	30075
scalar dtelecom_network.node[31].core_layer 	repo_load[31] 	15335
scalar dtelecom_network.node[31].core_layer 	data[31] 	10181
scalar dtelecom_network.node[31].content_store 	p_hit[31] 	0.15142144638404
scalar dtelecom_network.node[31].content_store 	hits[31] 	4554
scalar dtelecom_network.node[31].content_store 	misses[31] 	25521
scalar dtelecom_network.node[31].content_store 	decision_yes[31] 	16714
scalar dtelecom_network.node[31].content_store 	decision_no[31] 	8802
scalar dtelecom_network.node[31].content_store 	decision_ratio[31] 	0.6550399749177
scalar dtelecom_network.node[32].core_layer 	interests[32] 	12128
scalar dtelecom_network.node[32].core_layer 	data[32] 	8907
scalar dtelecom_network.node[32].content_store 	p_hit[32] 	0.26558377308707
scalar dtelecom_network.node[32].content_store 	hits[32] 	3221
scalar dtelecom_network.node[32].content_store 	misses[32] 	8907
scalar dtelecom_network.node[32].content_store 	decision_yes[32] 	498
scalar dtelecom_network.node[32].content_store 	decision_no[32] 	8409
scalar dtelecom_network.node[32].content_store 	decision_ratio[32] 	0.055911081172112
scalar dtelecom_network.node[33].core_layer 	interests[33] 	11892
scalar dtelecom_network.node[33].core_layer 	data[33] 	8834
scalar dtelecom_network.node[33].content_store 	p_hit[33] 	0.25714766229398
scalar dtelecom_network.node[33].content_store 	hits[33] 	3058
scalar dtelecom_network.node[33].content_store 	misses[33] 	8834
scalar dtelecom_network.node[33].content_store 	decision_yes[33] 	673
scalar dtelecom_network.node[33].content_store 	decision_no[33] 	8161
scalar dtelecom_network.node[33].content_store 	decision_ratio[33] 	0.07618292959022
scalar dtelecom_network.node[34].core_layer 	interests[34] 	17518
scalar dtelecom_network.node[34].core_layer 	repo_load[34] 	14847
scalar dtelecom_network.node[34].core_layer 	data[34] 	0
scalar dtelecom_network.node[34].content_store 	p_hit[34] 	0.1524717433497
scalar dtelecom_network.node[34].content_store 	hits[34] 	2671
scalar dtelecom_network.node[34].content_store 	misses[34] 	14847
scalar dtelecom_network.node[34].content_store 	decision_yes[34] 	14847
scalar dtelecom_network.node[34].content_store 	decision_no[34] 	0
scalar dtelecom_network.node[34].content_store 	decision_ratio[34] 	1
scalar dtelecom_network.node[35].core_layer 	interests[35] 	0
scalar dtelecom_network.node[35].core_layer 	data[35] 	0
scalar dtelecom_network.node[35].content_store 	p_hit[35] 	-nan
scalar dtelecom_network.node[35].content_store 	hits[35] 	0
scalar dtelecom_network.node[35].content_store 	misses[35] 	0
scalar dtelecom_network.node[35].content_store 	decision_yes[35] 	0
scalar dtelecom_network.node[35].content_store 	decision_no[35] 	0
scalar dtelecom_network.node[35].content_store 	decision_ratio[35] 	0
scalar dtelecom_network.node[36].core_layer 	interests[36] 	12198
scalar dtelecom_network.node[36].core_layer 	data[36] 	9030
scalar dtelecom_network.node[36].content_store 	p_hit[36] 	0.25979668798164
scalar dtelecom_network.node[36].content_store 	hits[36] 	3169
scalar dtelecom_network.node[36].content_store 	misses[36] 	9029
scalar dtelecom_network.node[36].content_store 	decision_yes[36] 	464
scalar dtelecom_network.node[36].content_store 	decision_no[36] 	8566
scalar dtelecom_network.node[36].content_store 	decision_ratio[36] 	0.051384274640089
scalar dtelecom_network.node[37].core_layer 	interests[37] 	12074
scalar dtelecom_network.node[37].core_layer 	data[37] 	8969
scalar dtelecom_network.node[37].content_store 	p_hit[37] 	0.25716415438132
scalar dtelecom_network.node[37].content_store 	hits[37] 	3105
scalar dtelecom_network.node[37].content_store 	misses[37] 	8969
scalar dtelecom_network.node[37].content_store 	decision_yes[37] 	558
scalar dtelecom_network.node[37].content_store 	decision_no[37] 	8411
scalar dtelecom_network.node[37].content_store 	decision_ratio[37] 	0.062214293678225
scalar dtelecom_network.node[38].core_layer 	interests[38] 	0
scalar dtelecom_network.node[38].core_layer 	data[38] 	0
scalar dtelecom_network.node[38].content_store 	p_hit[38] 	-nan
scalar dtelecom_network.node[38].content_store 	hits[38] 	0
scalar dtelecom_network.node[38].content_store 	misses[38] 	0
scalar dtelecom_network.node[38].content_store 	decision_yes[38] 	0
scalar dtelecom_network.node[38].content_store 	decision_no[38] 	0
scalar dtelecom_network.node[38].content_store 	decision_ratio[38] 	0
scalar dtelecom_network.node[39].core_layer 	interests[39] 	17852
scalar dtelecom_network.node[39].core_layer 	repo_load[39] 	15168
scalar dtelecom_network.node[39].core_layer 	data[39] 	0
scalar dtelecom_network.node[39].content_store 	p_hit[39] 	0.15034730002241
scalar dtelecom_network.node[39].content_store 	hits[39] 	2684
scalar dtelecom_network.node[39].content_store 	misses[39] 	15168
scalar dtelecom_network.node[39].content_store 	decision_yes[39] 	15168
scalar dtelecom_network.node[39].content_store 	decision_no[39] 	0
scalar dtelecom_network.node[39].content_store 	decision_ratio[39] 	1
scalar dtelecom_network.node[40].core_layer 	interests[40] 	29472
scalar dtelecom_network.node[40].core_layer 	repo_load[40] 	15549
scalar dtelecom_network.node[40].core_layer 	data[40] 	10175
scalar dtelecom_network.node[40].content_store 	p_hit[40] 	0.12700190010858
scalar dtelecom_network.node[40].content_store 	hits[40] 	3743
scalar dtelecom_network.node[40].content_store 	misses[40] 	25729
scalar dtelecom_network.node[40].content_store 	decision_yes[40] 	17097
scalar dtelecom_network.node[40].content_store 	decision_no[40] 	8627
scalar dtelecom_network.node[40].content_store 	decision_ratio[40] 	0.66463225003887
scalar dtelecom_network.node[41].core_layer 	interests[41] 	0
scalar dtelecom_network.node[41].core_layer 	data[41] 	0
scalar dtelecom_network.node[41].content_store 	p_hit[41] 	-nan
scalar dtelecom_network.node[41].content_store 	hits[41] 	0
scalar dtelecom_network.node[41].content_store 	misses[41] 	0
scalar dtelecom_network.node[41].content_store 	decision_yes[41] 	0
scalar dtelecom_network.node[41].content_store 	decision_no[41] 	0
scalar dtelecom_network.node[41].content_store 	decision_ratio[41] 	0
scalar dtelecom_network.node[42].core_layer 	interests[42] 	11952
scalar dtelecom_network.node[42].core_layer 	data[42] 	8904
scalar dtelecom_network.node[42].content_store 	p_hit[42] 	0.25510374832664
scalar dtelecom_network.node[42].content_store 	hits[42] 	3049
scalar dtelecom_network.node[42].content_store 	misses[42] 	8903
scalar dtelecom_network.node[42].content_store 	decision_yes[42] 	540
scalar dtelecom_network.node[42].content_store 	decision_no[42] 	8364
scalar dtelecom_network.node[42].content_store 	decision_ratio[42] 	0.060646900269542
scalar dtelecom_network.node[43].core_layer 	interests[43] 	0
scalar dtelecom_network.node[43].core_layer 	data[43] 	0
scalar dtelecom_network.node[43].content_store 	p_hit[43] 	-nan
scalar dtelecom_network.node[43].content_store 	hits[43] 	0
scalar dtelecom_network.node[43].content_store 	misses[43] 	0
scalar dtelecom_network.node[43].content_store 	decision_yes[43] 	0
scalar dtelecom_network.node[43].content_store 	decision_no[43] 	0
scalar dtelecom_network.node[43].content_store 	decision_ratio[43] 	0
scalar dtelecom_network.node[44].core_layer 	interests[44] 	0
scalar dtelecom_network.node[44].core_layer 	data[44] 	0
scalar dtelecom_network.node[44].content_store 	p_hit[44] 	-nan
scalar dtelecom_network.node[44].content_store 	hits[44] 	0
scalar dtelecom_network.node[44].content_store 	misses[44] 	0
scalar dtelecom_network.node[44].content_store 	decision_yes[44] 	0
scalar dtelecom_network.node[44].content_store 	decision_no[44] 	0
scalar dtelecom_network.node[44].content_store 	decision_ratio[44] 	0
scalar dtelecom_network.node[45].core_layer 	interests[45] 	11901
scalar dtelecom_network.node[45].core_layer 	data[45] 	8814
scalar dtelecom_network.node[45].content_store 	p_hit[45] 	0.25930594067725
scalar dtelecom_network.node[45].content_store 	hits[45] 	3086
scalar dtelecom_network.node[45].content_store 	misses[45] 	8815
scalar dtelecom_network.node[45].content_store 	decision_yes[45] 	549
scalar dtelecom_network.node[45].content_store 	decision_no[45] 	8265
scalar dtelecom_network.node[45].content_store 	decision_ratio[45] 	0.062287270251872
scalar dtelecom_network.node[46].core_layer 	interests[46] 	12144
scalar dtelecom_network.node[46].core_layer 	data[46] 	8943
scalar dtelecom_network.node[46].content_store 	p_hit[46] 	0.26358695652174
scalar dtelecom_network.node[46].content_store 	hits[46] 	3201
scalar dtelecom_network.node[46].content_store 	misses[46] 	8943
scalar dtelecom_network.node[46].content_store 	decision_yes[46] 	548
scalar dtelecom_network.node[46].content_store 	decision_no[46] 	8395
scalar dtelecom_network.node[46].content_store 	decision_ratio[46] 	0.061276976406128
scalar dtelecom_network.node[47].core_layer 	interests[47] 	0
scalar dtelecom_network.node[47].core_layer 	data[47] 	0
scalar dtelecom_network.node[47].content_store 	p_hit[47] 	-nan
scalar dtelecom_network.node[47].content_store 	hits[47] 	0
scalar dtelecom_network.node[47].content_store 	misses[47] 	0
scalar dtelecom_network.node[47].content_store 	decision_yes[47] 	0
scalar dtelecom_network.node[47].content_store 	decision_no[47] 	0
scalar dtelecom_network.node[47].content_store 	decision_ratio[47] 	0
scalar dtelecom_network.node[48].core_layer 	interests[48] 	12010
scalar dtelecom_network.node[48].core_layer 	data[48] 	8763
scalar dtelecom_network.node[48].content_store 	p_hit[48] 	0.27035803497086
scalar dtelecom_network.node[48].content_store 	hits[48] 	3247
scalar dtelecom_network.node[48].content_store 	misses[48] 	8763
scalar dtelecom_network.node[48].content_store 	decision_yes[48] 	486
scalar dtelecom_network.node[48].content_store 	decision_no[48] 	8277
scalar dtelecom_network.node[48].content_store 	decision_ratio[48] 	0.055460458747004
scalar dtelecom_network.node[49].core_layer 	interests[49] 	11945
scalar dtelecom_network.node[49].core_layer 	data[49] 	8845
scalar dtelecom_network.node[49].content_store 	p_hit[49] 	0.25952281289242
scalar dtelecom_network.node[49].content_store 	hits[49] 	3100
scalar dtelecom_network.node[49].content_store 	misses[49] 	8845
scalar dtelecom_network.node[49].content_store 	decision_yes[49] 	508
scalar dtelecom_network.node[49].content_store 	decision_no[49] 	8337
scalar dtelecom_network.node[49].content_store 	decision_ratio[49] 	0.057433578292821
scalar dtelecom_network.node[50].core_layer 	interests[50] 	29150
scalar dtelecom_network.node[50].core_layer 	repo_load[50] 	15349
scalar dtelecom_network.node[50].core_layer 	data[50] 	10199
scalar dtelecom_network.node[50].content_store 	p_hit[50] 	0.12353344768439
scalar dtelecom_network.node[50].content_store 	hits[50] 	3601
scalar dtelecom_network.node[50].content_store 	misses[50] 	25549
scalar dtelecom_network.node[50].content_store 	decision_yes[50] 	16817
scalar dtelecom_network.node[50].content_store 	decision_no[50] 	8731
scalar dtelecom_network.node[50].content_store 	decision_ratio[50] 	0.65825113511821
scalar dtelecom_network.node[51].core_layer 	interests[51] 	12033
scalar dtelecom_network.node[51].core_layer 	data[51] 	8804
scalar dtelecom_network.node[51].content_store 	p_hit[51] 	0.26842848832378
scalar dtelecom_network.node[51].content_store 	hits[51] 	3230
scalar dtelecom_network.node[51].content_store 	misses[51] 	8803
scalar dtelecom_network.node[51].content_store 	decision_yes[51] 	452
scalar dtelecom_network.node[51].content_store 	decision_no[51] 	8352
scalar dtelecom_network.node[51].content_store 	decision_ratio[51] 	0.051340299863698
scalar dtelecom_network.node[52].core_layer 	interests[52] 	16834
scalar dtelecom_network.node[52].core_layer 	repo_load[52] 	14631
scalar dtelecom_network.node[52].core_layer 	data[52] 	0
scalar dtelecom_network.node[52].content_store 	p_hit[52] 	0.1308661043127
scalar dtelecom_network.node[52].content_store 	hits[52] 	2203
scalar dtelecom_network.node[52].content_store 	misses[52] 	14631
scalar dtelecom_network.node[52].content_store 	decision_yes[52] 	14631
scalar dtelecom_network.node[52].content_store 	decision_no[52] 	0
scalar dtelecom_network.node[52].content_store 	decision_ratio[52] 	1
scalar dtelecom_network.node[53].core_layer 	interests[53] 	29017
scalar dtelecom_network.node[53].core_layer 	repo_load[53] 	15338
scalar dtelecom_network.node[53].core_layer 	data[53] 	10075
scalar dtelecom_network.node[53].content_store 	p_hit[53] 	0.12403074060034
scalar dtelecom_network.node[53].content_store 	hits[53] 	3599
scalar dtelecom_network.node[53].content_store 	misses[53] 	25418
scalar dtelecom_network.node[53].content_store 	decision_yes[53] 	16806
scalar dtelecom_network.node[53].content_store 	decision_no[53] 	8607
scalar dtelecom_network.node[53].content_store 	decision_ratio[53] 	0.66131507496163
scalar dtelecom_network.node[54].core_layer 	interests[54] 	12182
scalar dtelecom_network.node[54].core_layer 	data[54] 	9021
scalar dtelecom_network.node[54].content_store 	p_hit[54] 	0.25923493679199
scalar dtelecom_network.node[54].content_store 	hits[54] 	3158
scalar dtelecom_network.node[54].content_store 	misses[54] 	9024
scalar dtelecom_network.node[54].content_store 	decision_yes[54] 	632
scalar dtelecom_network.node[54].content_store 	decision_no[54] 	8389
scalar dtelecom_network.node[54].content_store 	decision_ratio[54] 	0.070058751801352
scalar dtelecom_network.node[55].core_layer 	interests[55] 	11961
scalar dtelecom_network.node[55].core_layer 	data[55] 	8911
scalar dtelecom_network.node[55].content_store 	p_hit[55] 	0.25516261182175
scalar dtelecom_network.node[55].content_store 	hits[55] 	3052
scalar dtelecom_network.node[55].content_store 	misses[55] 	8909
scalar dtelecom_network.node[55].content_store 	decision_yes[55] 	691
scalar dtelecom_network.node[55].content_store 	decision_no[55] 	8220
scalar dtelecom_network.node[55].content_store 	decision_ratio[55] 	0.077544607788127
scalar dtelecom_network.node[56].core_layer 	interests[56] 	28448
scalar dtelecom_network.node[56].core_layer 	repo_load[56] 	14459
scalar dtelecom_network.node[56].core_layer 	data[56] 	10061
scalar dtelecom_network.node[56].content_store 	p_hit[56] 	0.13783042744657
scalar dtelecom_network.node[56].content_store 	hits[56] 	3921
scalar dtelecom_network.node[56].content_store 	misses[56] 	24527
scalar dtelecom_network.node[56].content_store 	decision_yes[56] 	15843
scalar dtelecom_network.node[56].content_store 	decision_no[56] 	8677
scalar dtelecom_network.node[56].content_store 	decision_ratio[56] 	0.64612561174551
scalar dtelecom_network.node[57].core_layer 	interests[57] 	11820
scalar dtelecom_network.node[57].core_layer 	data[57] 	8678
scalar dtelecom_network.node[57].content_store 	p_hit[57] 	0.26573604060914
scalar dtelecom_network.node[57].content_store 	hits[57] 	3141
scalar dtelecom_network.node[57].content_store 	misses[57] 	8679
scalar dtelecom_network.node[57].content_store 	decision_yes[57] 	457
scalar dtelecom_network.node[57].content_store 	decision_no[57] 	8221
scalar dtelecom_network.node[57].content_store 	decision_ratio[57] 	0.052661903664439
scalar dtelecom_network.node[58].core_layer 	interests[58] 	11805
scalar dtelecom_network.node[58].core_layer 	data[58] 	8682
scalar dtelecom_network.node[58].content_store 	p_hit[58] 	0.26454891994917
scalar dtelecom_network.node[58].content_store 	hits[58] 	3123
scalar dtelecom_network.node[58].content_store 	misses[58] 	8682
scalar dtelecom_network.node[58].content_store 	decision_yes[58] 	462
scalar dtelecom_network.node[58].content_store 	decision_no[58] 	8220
scalar dtelecom_network.node[58].content_store 	decision_ratio[58] 	0.053213545266068
scalar dtelecom_network.node[59].core_layer 	interests[59] 	11911
scalar dtelecom_network.node[59].core_layer 	data[59] 	9007
scalar dtelecom_network.node[59].content_store 	p_hit[59] 	0.24338846444463
scalar dtelecom_network.node[59].content_store 	hits[59] 	2899
scalar dtelecom_network.node[59].content_store 	misses[59] 	9012
scalar dtelecom_network.node[59].content_store 	decision_yes[59] 	987
scalar dtelecom_network.node[59].content_store 	decision_no[59] 	8020
scalar dtelecom_network.node[59].content_store 	decision_ratio[59] 	0.10958143666038
scalar dtelecom_network.node[60].core_layer 	interests[60] 	0
scalar dtelecom_network.node[60].core_layer 	data[60] 	0
scalar dtelecom_network.node[60].content_store 	p_hit[60] 	-nan
scalar dtelecom_network.node[60].content_store 	hits[60] 	0
scalar dtelecom_network.node[60].content_store 	misses[60] 	0
scalar dtelecom_network.node[60].content_store 	decision_yes[60] 	0
scalar dtelecom_network.node[60].content_store 	decision_no[60] 	0
scalar dtelecom_network.node[60].content_store 	decision_ratio[60] 	0
scalar dtelecom_network.node[61].core_layer 	interests[61] 	0
scalar dtelecom_network.node[61].core_layer 	data[61] 	0
scalar dtelecom_network.node[61].content_store 	p_hit[61] 	-nan
scalar dtelecom_network.node[61].content_store 	hits[61] 	0
scalar dtelecom_network.node[61].content_store 	misses[61] 	0
scalar dtelecom_network.node[61].content_store 	decision_yes[61] 	0
scalar dtelecom_network.node[61].content_store 	decision_no[61] 	0
scalar dtelecom_network.node[61].content_store 	decision_ratio[61] 	0
scalar dtelecom_network.node[62].core_layer 	interests[62] 	12040
scalar dtelecom_network.node[62].core_layer 	data[62] 	8689
scalar dtelecom_network.node[62].content_store 	p_hit[62] 	0.2781561461794
scalar dtelecom_network.node[62].content_store 	hits[62] 	3349
scalar dtelecom_network.node[62].content_store 	misses[62] 	8691
scalar dtelecom_network.node[62].content_store 	decision_yes[62] 	242
scalar dtelecom_network.node[62].content_store 	decision_no[62] 	8447
scalar dtelecom_network.node[62].content_store 	decision_ratio[62] 	0.027851306249281
scalar dtelecom_network.node[63].core_layer 	interests[63] 	0
scalar dtelecom_network.node[63].core_layer 	data[63] 	0
scalar dtelecom_network.node[63].content_store 	p_hit[63] 	-nan
scalar dtelecom_network.node[63].content_store 	hits[63] 	0
scalar dtelecom_network.node[63].content_store 	misses[63] 	0
scalar dtelecom_network.node[63].content_store 	decision_yes[63] 	0
scalar dtelecom_network.node[63].content_store 	decision_no[63] 	0
scalar dtelecom_network.node[63].content_store 	decision_ratio[63] 	0
scalar dtelecom_network.node[64].core_layer 	interests[64] 	0
scalar dtelecom_network.node[64].core_layer 	data[64] 	0
scalar dtelecom_network.node[64].content_store 	p_hit[64] 	-nan
scalar dtelecom_network.node[64].content_store 	hits[64] 	0
scalar dtelecom_network.node[64].content_store 	misses[64] 	0
scalar dtelecom_network.node[64].content_store 	decision_yes[64] 	0
scalar dtelecom_network.node[64].content_store 	decision_no[64] 	0
scalar dtelecom_network.node[64].content_store 	decision_ratio[64] 	0
scalar dtelecom_network.node[65].core_layer 	interests[65] 	0
scalar dtelecom_network.node[65].core_layer 	data[65] 	0
scalar dtelecom_network.node[65].content_store 	p_hit[65] 	-nan
scalar dtelecom_network.node[65].content_store 	hits[65] 	0
scalar dtelecom_network.node[65].content_store 	misses[65] 	0
scalar dtelecom_network.node[65].content_store 	decision_yes[65] 	0
scalar dtelecom_network.node[65].content_store 	decision_no[65] 	0
scalar dtelecom_network.node[65].content_store 	decision_ratio[65] 	0
scalar dtelecom_network.node[66].core_layer 	interests[66] 	29181
scalar dtelecom_network.node[66].core_layer 	repo_load[66] 	15649
scalar dtelecom_network.node[66].core_layer 	data[66] 	10044
scalar dtelecom_network.node[66].content_store 	p_hit[66] 	0.11881018470923
scalar dtelecom_network.node[66].content_store 	hits[66] 	3467
scalar dtelecom_network.node[66].content_store 	misses[66] 	25714
scalar dtelecom_network.node[66].content_store 	decision_yes[66] 	16460
scalar dtelecom_network.node[66].content_store 	decision_no[66] 	9233
scalar dtelecom_network.node[66].content_store 	decision_ratio[66] 	0.64064141984198
scalar dtelecom_network.node[67].core_layer 	interests[67] 	11991
scalar dtelecom_network.node[67].core_layer 	data[67] 	8775
scalar dtelecom_network.node[67].content_store 	p_hit[67] 	0.26836794262363
scalar dtelecom_network.node[67].content_store 	hits[67] 	3218
scalar dtelecom_network.node[67].content_store 	misses[67] 	8773
scalar dtelecom_network.node[67].content_store 	decision_yes[67] 	192
scalar dtelecom_network.node[67].content_store 	decision_no[67] 	8583
scalar dtelecom_network.node[67].content_store 	decision_ratio[67] 	0.021880341880342
scalar dtelecom_network.client[3] 	hdistance[3] 	1.5031921067905
scalar dtelecom_network.client[3] 	downloads[3] 	12061
scalar dtelecom_network.client[3] 	avg_time[3] 	0.019216707624
scalar dtelecom_network.client[4] 	hdistance[4] 	1.4671817879694
scalar dtelecom_network.client[4] 	downloads[4] 	12036
scalar dtelecom_network.client[4] 	avg_time[4] 	0.051394485015
scalar dtelecom_network.client[8] 	hdistance[8] 	1.9350681951301
scalar dtelecom_network.client[8] 	downloads[8] 	11951
scalar dtelecom_network.client[8] 	avg_time[8] 	0.021214599359
scalar dtelecom_network.client[9] 	hdistance[9] 	1.9872765072765
scalar dtelecom_network.client[9] 	downloads[9] 	12025
scalar dtelecom_network.client[9] 	avg_time[9] 	0.024098675322
scalar dtelecom_network.client[17] 	hdistance[17] 	1.8624281309891
scalar dtelecom_network.client[17] 	downloads[17] 	12001
scalar dtelecom_network.client[17] 	avg_time[17] 	0.019210304306
scalar dtelecom_network.client[22] 	hdistance[22] 	2.1338122285332
scalar dtelecom_network.client[22] 	downloads[22] 	11972
scalar dtelecom_network.client[22] 	avg_time[22] 	0.024113839715
scalar dtelecom_network.client[23] 	hdistance[23] 	1.8222185403032
scalar dtelecom_network.client[23] 	downloads[23] 	12071
scalar dtelecom_network.client[23] 	avg_time[23] 	0.020117821133
scalar dtelecom_network.client[28] 	hdistance[28] 	1.9879052163897
scalar dtelecom_network.client[28] 	downloads[28] 	12154
scalar dtelecom_network.client[28] 	avg_time[28] 	0.021923696929
scalar dtelecom_network.client[30] 	hdistance[30] 	1.9640536316525
scalar dtelecom_network.client[30] 	downloads[30] 	12157
scalar dtelecom_network.client[30] 	avg_time[30] 	0.02101035724
scalar dtelecom_network.client[31] 	hdistance[31] 	2.133042978059
scalar dtelecom_network.client[31] 	downloads[31] 	12169
scalar dtelecom_network.client[31] 	avg_time[31] 	0.024559441738
scalar dtelecom_network.client[32] 	hdistance[32] 	1.9699868073879
scalar dtelecom_network.client[32] 	downloads[32] 	12128
scalar dtelecom_network.client[32] 	avg_time[32] 	0.018642244326
scalar dtelecom_network.client[33] 	hdistance[33] 	1.8975782038345
scalar dtelecom_network.client[33] 	downloads[33] 	11892
scalar dtelecom_network.client[33] 	avg_time[33] 	0.021054113011
scalar dtelecom_network.client[36] 	hdistance[36] 	1.9894253627346
scalar dtelecom_network.client[36] 	downloads[36] 	12199
scalar dtelecom_network.client[36] 	avg_time[36] 	0.021765316866
scalar dtelecom_network.client[37] 	hdistance[37] 	1.9828557230412
scalar dtelecom_network.client[37] 	downloads[37] 	12074
scalar dtelecom_network.client[37] 	avg_time[37] 	0.020034329046
scalar dtelecom_network.client[40] 	hdistance[40] 	2.0792390405293
scalar dtelecom_network.client[40] 	downloads[40] 	12090
scalar dtelecom_network.client[40] 	avg_time[40] 	0.024693142667
scalar dtelecom_network.client[42] 	hdistance[42] 	1.9561616330628
scalar dtelecom_network.client[42] 	downloads[42] 	11953
scalar dtelecom_network.client[42] 	avg_time[42] 	0.021758385816
scalar dtelecom_network.client[45] 	hdistance[45] 	1.9403361344538
scalar dtelecom_network.client[45] 	downloads[45] 	11900
scalar dtelecom_network.client[45] 	avg_time[45] 	0.020616271718
scalar dtelecom_network.client[46] 	hdistance[46] 	1.9255599472991
scalar dtelecom_network.client[46] 	downloads[46] 	12144
scalar dtelecom_network.client[46] 	avg_time[46] 	0.02231385203
scalar dtelecom_network.client[48] 	hdistance[48] 	1.9577851790175
scalar dtelecom_network.client[48] 	downloads[48] 	12010
scalar dtelecom_network.client[48] 	avg_time[48] 	0.021383578576
scalar dtelecom_network.client[49] 	hdistance[49] 	1.9800753453328
scalar dtelecom_network.client[49] 	downloads[49] 	11945
scalar dtelecom_network.client[49] 	avg_time[49] 	0.020354492351
scalar dtelecom_network.client[50] 	hdistance[50] 	2.1418980522172
scalar dtelecom_network.client[50] 	downloads[50] 	12065
scalar dtelecom_network.client[50] 	avg_time[50] 	0.02266205197
scalar dtelecom_network.client[51] 	hdistance[51] 	1.9744058500914
scalar dtelecom_network.client[51] 	downloads[51] 	12034
scalar dtelecom_network.client[51] 	avg_time[51] 	0.020983911254
scalar dtelecom_network.client[53] 	hdistance[53] 	2.1294463087248
scalar dtelecom_network.client[53] 	downloads[53] 	11920
scalar dtelecom_network.client[53] 	avg_time[53] 	0.022933854029
scalar dtelecom_network.client[54] 	hdistance[54] 	1.9269233927252
scalar dtelecom_network.client[54] 	downloads[54] 	12179
scalar dtelecom_network.client[54] 	avg_time[54] 	0.021559910908
scalar dtelecom_network.client[55] 	hdistance[55] 	1.8930870183064
scalar dtelecom_network.client[55] 	downloads[55] 	11963
scalar dtelecom_network.client[55] 	avg_time[55] 	0.024412619577
scalar dtelecom_network.client[56] 	hdistance[56] 	2.1313838207115
scalar dtelecom_network.client[56] 	downloads[56] 	12003
scalar dtelecom_network.client[56] 	avg_time[56] 	0.022983437606
scalar dtelecom_network.client[57] 	hdistance[57] 	1.9687790845249
scalar dtelecom_network.client[57] 	downloads[57] 	11819
scalar dtelecom_network.client[57] 	avg_time[57] 	0.019433053058
scalar dtelecom_network.client[58] 	hdistance[58] 	1.9733163913596
scalar dtelecom_network.client[58] 	downloads[58] 	11805
scalar dtelecom_network.client[58] 	avg_time[58] 	0.021830554143
scalar dtelecom_network.client[59] 	hdistance[59] 	2.0019317990929
scalar dtelecom_network.client[59] 	downloads[59] 	11906
scalar dtelecom_network.client[59] 	avg_time[59] 	0.06504610549
scalar dtelecom_network.client[62] 	hdistance[62] 	2.4251536800133
scalar dtelecom_network.client[62] 	downloads[62] 	12038
scalar dtelecom_network.client[62] 	avg_time[62] 	0.065799661716
scalar dtelecom_network.client[66] 	hdistance[66] 	2.1935619079554
scalar dtelecom_network.client[66] 	downloads[66] 	11929
scalar dtelecom_network.client[66] 	avg_time[66] 	0.098473425317
scalar dtelecom_network.client[67] 	hdistance[67] 	1.9975819227883
scalar dtelecom_network.client[67] 	downloads[67] 	11993
scalar dtelecom_network.client[67] 	avg_time[67] 	0.070812000778
