version 2
run General-84-20160824-08:22:07-9702
attr D lcd
attr F spr
attr R lru
attr a 0.9
attr configname General
attr datetime 20160824-08:22:07
attr experiment General
attr inifile hw5115/scenario_C/omnetp.ini
attr iterationvars "$net=dtelecom, $rep=10, $a=0.9, $F=spr, $D=lcd, $R=lru, $window=60, $variance=0.05, $mytime=600"
attr iterationvars2 "$net=dtelecom, $rep=10, $a=0.9, $F=spr, $D=lcd, $R=lru, $window=60, $variance=0.05, $mytime=600, $repetition=0"
attr measurement "$net=dtelecom, $rep=10, $a=0.9, $F=spr, $D=lcd, $R=lru, $window=60, $variance=0.05, $mytime=600"
attr mytime 600
attr net dtelecom
attr network networks.${net=dtelecom}_network
attr processid 9702
attr rep 10
attr repetition 0
attr replication #0
attr resultdir results
attr runnumber 84
attr seedset 10
attr variance 0.05
attr window 60

scalar . 	a 	0.9
scalar . 	mytime 	600
scalar . 	rep 	10
scalar . 	variance 	0.05
scalar . 	window 	60
scalar dtelecom_network.content_distribution 	repo-0 	16
scalar dtelecom_network.content_distribution 	repo-1 	23
scalar dtelecom_network.content_distribution 	repo-2 	58
scalar dtelecom_network.content_distribution 	repo-3 	28
scalar dtelecom_network.content_distribution 	repo-4 	42
scalar dtelecom_network.content_distribution 	repo-5 	46
scalar dtelecom_network.content_distribution 	repo-6 	6
scalar dtelecom_network.content_distribution 	repo-7 	18
scalar dtelecom_network.content_distribution 	repo-8 	25
scalar dtelecom_network.content_distribution 	repo-9 	10
scalar dtelecom_network.content_distribution 	repo-10 	44
scalar dtelecom_network.content_distribution 	repo-11 	54
scalar dtelecom_network.content_distribution 	repo-12 	24
scalar dtelecom_network.content_distribution 	repo-13 	31
scalar dtelecom_network.content_distribution 	repo-14 	65
scalar dtelecom_network.content_distribution 	repo-15 	27
scalar dtelecom_network.content_distribution 	client-0 	46
scalar dtelecom_network.content_distribution 	client-1 	30
scalar dtelecom_network.content_distribution 	client-2 	8
scalar dtelecom_network.content_distribution 	client-3 	49
scalar dtelecom_network.content_distribution 	client-4 	66
scalar dtelecom_network.content_distribution 	client-5 	58
scalar dtelecom_network.content_distribution 	client-6 	32
scalar dtelecom_network.content_distribution 	client-7 	40
scalar dtelecom_network.content_distribution 	client-8 	42
scalar dtelecom_network.content_distribution 	client-9 	45
scalar dtelecom_network.content_distribution 	client-10 	33
scalar dtelecom_network.content_distribution 	client-11 	28
scalar dtelecom_network.content_distribution 	client-12 	3
scalar dtelecom_network.content_distribution 	client-13 	57
scalar dtelecom_network.content_distribution 	client-14 	50
scalar dtelecom_network.content_distribution 	client-15 	17
scalar dtelecom_network.content_distribution 	client-16 	59
scalar dtelecom_network.content_distribution 	client-17 	48
scalar dtelecom_network.content_distribution 	client-18 	23
scalar dtelecom_network.content_distribution 	client-19 	22
scalar dtelecom_network.content_distribution 	client-20 	67
scalar dtelecom_network.content_distribution 	client-21 	62
scalar dtelecom_network.content_distribution 	client-22 	56
scalar dtelecom_network.content_distribution 	client-23 	55
scalar dtelecom_network.content_distribution 	client-24 	53
scalar dtelecom_network.content_distribution 	client-25 	36
scalar dtelecom_network.content_distribution 	client-26 	51
scalar dtelecom_network.content_distribution 	client-27 	37
scalar dtelecom_network.content_distribution 	client-28 	54
scalar dtelecom_network.content_distribution 	client-29 	4
scalar dtelecom_network.content_distribution 	client-30 	31
scalar dtelecom_network.content_distribution 	client-31 	9
scalar dtelecom_network.content_distribution 	repo-0_card 	6240
scalar dtelecom_network.content_distribution 	repo-0_price 	0
scalar dtelecom_network.content_distribution 	repo-1_card 	6300
scalar dtelecom_network.content_distribution 	repo-1_price 	0
scalar dtelecom_network.content_distribution 	repo-2_card 	6351
scalar dtelecom_network.content_distribution 	repo-2_price 	0
scalar dtelecom_network.content_distribution 	repo-3_card 	6069
scalar dtelecom_network.content_distribution 	repo-3_price 	0
scalar dtelecom_network.content_distribution 	repo-4_card 	6322
scalar dtelecom_network.content_distribution 	repo-4_price 	0
scalar dtelecom_network.content_distribution 	repo-5_card 	6183
scalar dtelecom_network.content_distribution 	repo-5_price 	0
scalar dtelecom_network.content_distribution 	repo-6_card 	6236
scalar dtelecom_network.content_distribution 	repo-6_price 	0
scalar dtelecom_network.content_distribution 	repo-7_card 	6223
scalar dtelecom_network.content_distribution 	repo-7_price 	0
scalar dtelecom_network.content_distribution 	repo-8_card 	6295
scalar dtelecom_network.content_distribution 	repo-8_price 	0
scalar dtelecom_network.content_distribution 	repo-9_card 	6273
scalar dtelecom_network.content_distribution 	repo-9_price 	0
scalar dtelecom_network.content_distribution 	repo-10_card 	6196
scalar dtelecom_network.content_distribution 	repo-10_price 	0
scalar dtelecom_network.content_distribution 	repo-11_card 	6130
scalar dtelecom_network.content_distribution 	repo-11_price 	0
scalar dtelecom_network.content_distribution 	repo-12_card 	6287
scalar dtelecom_network.content_distribution 	repo-12_price 	0
scalar dtelecom_network.content_distribution 	repo-13_card 	6300
scalar dtelecom_network.content_distribution 	repo-13_price 	0
scalar dtelecom_network.content_distribution 	repo-14_card 	6333
scalar dtelecom_network.content_distribution 	repo-14_price 	0
scalar dtelecom_network.content_distribution 	repo-15_card 	6262
scalar dtelecom_network.content_distribution 	repo-15_price 	0
scalar dtelecom_network.statistics 	stabilization_time 	31963
scalar dtelecom_network.statistics 	p_hit 	0.20868049139616
scalar dtelecom_network.statistics 	interests 	13412.794117647
scalar dtelecom_network.statistics 	data 	7763.5882352941
scalar dtelecom_network.statistics 	hdistance 	1.9963949900097
scalar dtelecom_network.statistics 	avg_time 	0.020093112071
scalar dtelecom_network.statistics 	downloads 	384119
scalar dtelecom_network.statistics 	total_cost 	0
scalar dtelecom_network.statistics 	total_replicas 	100000
scalar dtelecom_network.statistics 	inner_hit 	0.37866130027413
scalar dtelecom_network.node[0].core_layer 	interests[0] 	1800
scalar dtelecom_network.node[0].core_layer 	data[0] 	1210
scalar dtelecom_network.node[0].core_layer 	repo_int[0] 	238668
scalar dtelecom_network.node[0].content_store 	p_hit[0] 	0.32777777777778
scalar dtelecom_network.node[0].content_store 	hits[0] 	590
scalar dtelecom_network.node[0].content_store 	misses[0] 	1210
scalar dtelecom_network.node[0].content_store 	decision_yes[0] 	63
scalar dtelecom_network.node[0].content_store 	decision_no[0] 	1147
scalar dtelecom_network.node[0].content_store 	decision_ratio[0] 	0.052066115702479
scalar dtelecom_network.node[1].core_layer 	interests[1] 	203492
scalar dtelecom_network.node[1].core_layer 	data[1] 	190656
scalar dtelecom_network.node[1].content_store 	p_hit[1] 	0.062744481355532
scalar dtelecom_network.node[1].content_store 	hits[1] 	12768
scalar dtelecom_network.node[1].content_store 	misses[1] 	190724
scalar dtelecom_network.node[1].content_store 	decision_yes[1] 	27228
scalar dtelecom_network.node[1].content_store 	decision_no[1] 	163428
scalar dtelecom_network.node[1].content_store 	decision_ratio[1] 	0.14281218529708
scalar dtelecom_network.node[2].core_layer 	interests[2] 	540
scalar dtelecom_network.node[2].core_layer 	data[2] 	406
scalar dtelecom_network.node[2].content_store 	p_hit[2] 	0.24814814814815
scalar dtelecom_network.node[2].content_store 	hits[2] 	134
scalar dtelecom_network.node[2].content_store 	misses[2] 	406
scalar dtelecom_network.node[2].content_store 	decision_yes[2] 	1
scalar dtelecom_network.node[2].content_store 	decision_no[2] 	405
scalar dtelecom_network.node[2].content_store 	decision_ratio[2] 	0.0024630541871921
scalar dtelecom_network.node[3].core_layer 	interests[3] 	12324
scalar dtelecom_network.node[3].core_layer 	data[3] 	9415
scalar dtelecom_network.node[3].content_store 	p_hit[3] 	0.23604349237261
scalar dtelecom_network.node[3].content_store 	hits[3] 	2909
scalar dtelecom_network.node[3].content_store 	misses[3] 	9415
scalar dtelecom_network.node[3].content_store 	decision_yes[3] 	1605
scalar dtelecom_network.node[3].content_store 	decision_no[3] 	7810
scalar dtelecom_network.node[3].content_store 	decision_ratio[3] 	0.17047265002655
scalar dtelecom_network.node[4].core_layer 	interests[4] 	45592
scalar dtelecom_network.node[4].core_layer 	data[4] 	40198
scalar dtelecom_network.node[4].content_store 	p_hit[4] 	0.11809089313915
scalar dtelecom_network.node[4].content_store 	hits[4] 	5384
scalar dtelecom_network.node[4].content_store 	misses[4] 	40208
scalar dtelecom_network.node[4].content_store 	decision_yes[4] 	5849
scalar dtelecom_network.node[4].content_store 	decision_no[4] 	34349
scalar dtelecom_network.node[4].content_store 	decision_ratio[4] 	0.14550475148017
scalar dtelecom_network.node[5].core_layer 	interests[5] 	0
scalar dtelecom_network.node[5].core_layer 	data[5] 	0
scalar dtelecom_network.node[5].content_store 	p_hit[5] 	-nan
scalar dtelecom_network.node[5].content_store 	hits[5] 	0
scalar dtelecom_network.node[5].content_store 	misses[5] 	0
scalar dtelecom_network.node[5].content_store 	decision_yes[5] 	0
scalar dtelecom_network.node[5].content_store 	decision_no[5] 	0
scalar dtelecom_network.node[5].content_store 	decision_ratio[5] 	0
scalar dtelecom_network.node[6].core_layer 	interests[6] 	19025
scalar dtelecom_network.node[6].core_layer 	repo_load[6] 	15399
scalar dtelecom_network.node[6].core_layer 	data[6] 	0
scalar dtelecom_network.node[6].content_store 	p_hit[6] 	0.19059132720105
scalar dtelecom_network.node[6].content_store 	hits[6] 	3626
scalar dtelecom_network.node[6].content_store 	misses[6] 	15399
scalar dtelecom_network.node[6].content_store 	decision_yes[6] 	15399
scalar dtelecom_network.node[6].content_store 	decision_no[6] 	0
scalar dtelecom_network.node[6].content_store 	decision_ratio[6] 	1
scalar dtelecom_network.node[7].core_layer 	interests[7] 	0
scalar dtelecom_network.node[7].core_layer 	data[7] 	0
scalar dtelecom_network.node[7].content_store 	p_hit[7] 	-nan
scalar dtelecom_network.node[7].content_store 	hits[7] 	0
scalar dtelecom_network.node[7].content_store 	misses[7] 	0
scalar dtelecom_network.node[7].content_store 	decision_yes[7] 	0
scalar dtelecom_network.node[7].content_store 	decision_no[7] 	0
scalar dtelecom_network.node[7].content_store 	decision_ratio[7] 	0
scalar dtelecom_network.node[8].core_layer 	interests[8] 	12033
scalar dtelecom_network.node[8].core_layer 	data[8] 	8828
scalar dtelecom_network.node[8].content_store 	p_hit[8] 	0.26643397324026
scalar dtelecom_network.node[8].content_store 	hits[8] 	3206
scalar dtelecom_network.node[8].content_store 	misses[8] 	8827
scalar dtelecom_network.node[8].content_store 	decision_yes[8] 	369
scalar dtelecom_network.node[8].content_store 	decision_no[8] 	8459
scalar dtelecom_network.node[8].content_store 	decision_ratio[8] 	0.041798821930222
scalar dtelecom_network.node[9].core_layer 	interests[9] 	12690
scalar dtelecom_network.node[9].core_layer 	data[9] 	9477
scalar dtelecom_network.node[9].content_store 	p_hit[9] 	0.25295508274232
scalar dtelecom_network.node[9].content_store 	hits[9] 	3210
scalar dtelecom_network.node[9].content_store 	misses[9] 	9480
scalar dtelecom_network.node[9].content_store 	decision_yes[9] 	626
scalar dtelecom_network.node[9].content_store 	decision_no[9] 	8851
scalar dtelecom_network.node[9].content_store 	decision_ratio[9] 	0.066054658647251
scalar dtelecom_network.node[10].core_layer 	interests[10] 	18109
scalar dtelecom_network.node[10].core_layer 	repo_load[10] 	15442
scalar dtelecom_network.node[10].core_layer 	data[10] 	0
scalar dtelecom_network.node[10].content_store 	p_hit[10] 	0.14727483571705
scalar dtelecom_network.node[10].content_store 	hits[10] 	2667
scalar dtelecom_network.node[10].content_store 	misses[10] 	15442
scalar dtelecom_network.node[10].content_store 	decision_yes[10] 	15442
scalar dtelecom_network.node[10].content_store 	decision_no[10] 	0
scalar dtelecom_network.node[10].content_store 	decision_ratio[10] 	1
scalar dtelecom_network.node[11].core_layer 	interests[11] 	0
scalar dtelecom_network.node[11].core_layer 	data[11] 	0
scalar dtelecom_network.node[11].content_store 	p_hit[11] 	-nan
scalar dtelecom_network.node[11].content_store 	hits[11] 	0
scalar dtelecom_network.node[11].content_store 	misses[11] 	0
scalar dtelecom_network.node[11].content_store 	decision_yes[11] 	0
scalar dtelecom_network.node[11].content_store 	decision_no[11] 	0
scalar dtelecom_network.node[11].content_store 	decision_ratio[11] 	0
scalar dtelecom_network.node[12].core_layer 	interests[12] 	0
scalar dtelecom_network.node[12].core_layer 	data[12] 	0
scalar dtelecom_network.node[12].content_store 	p_hit[12] 	-nan
scalar dtelecom_network.node[12].content_store 	hits[12] 	0
scalar dtelecom_network.node[12].content_store 	misses[12] 	0
scalar dtelecom_network.node[12].content_store 	decision_yes[12] 	0
scalar dtelecom_network.node[12].content_store 	decision_no[12] 	0
scalar dtelecom_network.node[12].content_store 	decision_ratio[12] 	0
scalar dtelecom_network.node[13].core_layer 	interests[13] 	0
scalar dtelecom_network.node[13].core_layer 	data[13] 	0
scalar dtelecom_network.node[13].content_store 	p_hit[13] 	-nan
scalar dtelecom_network.node[13].content_store 	hits[13] 	0
scalar dtelecom_network.node[13].content_store 	misses[13] 	0
scalar dtelecom_network.node[13].content_store 	decision_yes[13] 	0
scalar dtelecom_network.node[13].content_store 	decision_no[13] 	0
scalar dtelecom_network.node[13].content_store 	decision_ratio[13] 	0
scalar dtelecom_network.node[14].core_layer 	interests[14] 	0
scalar dtelecom_network.node[14].core_layer 	data[14] 	0
scalar dtelecom_network.node[14].content_store 	p_hit[14] 	-nan
scalar dtelecom_network.node[14].content_store 	hits[14] 	0
scalar dtelecom_network.node[14].content_store 	misses[14] 	0
scalar dtelecom_network.node[14].content_store 	decision_yes[14] 	0
scalar dtelecom_network.node[14].content_store 	decision_no[14] 	0
scalar dtelecom_network.node[14].content_store 	decision_ratio[14] 	0
scalar dtelecom_network.node[15].core_layer 	interests[15] 	0
scalar dtelecom_network.node[15].core_layer 	data[15] 	0
scalar dtelecom_network.node[15].content_store 	p_hit[15] 	-nan
scalar dtelecom_network.node[15].content_store 	hits[15] 	0
scalar dtelecom_network.node[15].content_store 	misses[15] 	0
scalar dtelecom_network.node[15].content_store 	decision_yes[15] 	0
scalar dtelecom_network.node[15].content_store 	decision_no[15] 	0
scalar dtelecom_network.node[15].content_store 	decision_ratio[15] 	0
scalar dtelecom_network.node[16].core_layer 	interests[16] 	17090
scalar dtelecom_network.node[16].core_layer 	repo_load[16] 	14542
scalar dtelecom_network.node[16].core_layer 	data[16] 	0
scalar dtelecom_network.node[16].content_store 	p_hit[16] 	0.14909303686366
scalar dtelecom_network.node[16].content_store 	hits[16] 	2548
scalar dtelecom_network.node[16].content_store 	misses[16] 	14542
scalar dtelecom_network.node[16].content_store 	decision_yes[16] 	14542
scalar dtelecom_network.node[16].content_store 	decision_no[16] 	0
scalar dtelecom_network.node[16].content_store 	decision_ratio[16] 	1
scalar dtelecom_network.node[17].core_layer 	interests[17] 	12076
scalar dtelecom_network.node[17].core_layer 	data[17] 	8856
scalar dtelecom_network.node[17].content_store 	p_hit[17] 	0.26672739317655
scalar dtelecom_network.node[17].content_store 	hits[17] 	3221
scalar dtelecom_network.node[17].content_store 	misses[17] 	8855
scalar dtelecom_network.node[17].content_store 	decision_yes[17] 	363
scalar dtelecom_network.node[17].content_store 	decision_no[17] 	8493
scalar dtelecom_network.node[17].content_store 	decision_ratio[17] 	0.040989159891599
scalar dtelecom_network.node[18].core_layer 	interests[18] 	16159
scalar dtelecom_network.node[18].core_layer 	repo_load[18] 	14035
scalar dtelecom_network.node[18].core_layer 	data[18] 	0
scalar dtelecom_network.node[18].content_store 	p_hit[18] 	0.13144377746148
scalar dtelecom_network.node[18].content_store 	hits[18] 	2124
scalar dtelecom_network.node[18].content_store 	misses[18] 	14035
scalar dtelecom_network.node[18].content_store 	decision_yes[18] 	14035
scalar dtelecom_network.node[18].content_store 	decision_no[18] 	0
scalar dtelecom_network.node[18].content_store 	decision_ratio[18] 	1
scalar dtelecom_network.node[19].core_layer 	interests[19] 	0
scalar dtelecom_network.node[19].core_layer 	data[19] 	0
scalar dtelecom_network.node[19].content_store 	p_hit[19] 	-nan
scalar dtelecom_network.node[19].content_store 	hits[19] 	0
scalar dtelecom_network.node[19].content_store 	misses[19] 	0
scalar dtelecom_network.node[19].content_store 	decision_yes[19] 	0
scalar dtelecom_network.node[19].content_store 	decision_no[19] 	0
scalar dtelecom_network.node[19].content_store 	decision_ratio[19] 	0
scalar dtelecom_network.node[20].core_layer 	interests[20] 	0
scalar dtelecom_network.node[20].core_layer 	data[20] 	0
scalar dtelecom_network.node[20].content_store 	p_hit[20] 	-nan
scalar dtelecom_network.node[20].content_store 	hits[20] 	0
scalar dtelecom_network.node[20].content_store 	misses[20] 	0
scalar dtelecom_network.node[20].content_store 	decision_yes[20] 	0
scalar dtelecom_network.node[20].content_store 	decision_no[20] 	0
scalar dtelecom_network.node[20].content_store 	decision_ratio[20] 	0
scalar dtelecom_network.node[21].core_layer 	interests[21] 	0
scalar dtelecom_network.node[21].core_layer 	data[21] 	0
scalar dtelecom_network.node[21].content_store 	p_hit[21] 	-nan
scalar dtelecom_network.node[21].content_store 	hits[21] 	0
scalar dtelecom_network.node[21].content_store 	misses[21] 	0
scalar dtelecom_network.node[21].content_store 	decision_yes[21] 	0
scalar dtelecom_network.node[21].content_store 	decision_no[21] 	0
scalar dtelecom_network.node[21].content_store 	decision_ratio[21] 	0
scalar dtelecom_network.node[22].core_layer 	interests[22] 	11823
scalar dtelecom_network.node[22].core_layer 	data[22] 	8748
scalar dtelecom_network.node[22].content_store 	p_hit[22] 	0.26008627251967
scalar dtelecom_network.node[22].content_store 	hits[22] 	3075
scalar dtelecom_network.node[22].content_store 	misses[22] 	8748
scalar dtelecom_network.node[22].content_store 	decision_yes[22] 	464
scalar dtelecom_network.node[22].content_store 	decision_no[22] 	8284
scalar dtelecom_network.node[22].content_store 	decision_ratio[22] 	0.053040695016004
scalar dtelecom_network.node[23].core_layer 	interests[23] 	39581
scalar dtelecom_network.node[23].core_layer 	repo_load[23] 	15429
scalar dtelecom_network.node[23].core_layer 	data[23] 	19505
scalar dtelecom_network.node[23].content_store 	p_hit[23] 	0.11730375685304
scalar dtelecom_network.node[23].content_store 	hits[23] 	4643
scalar dtelecom_network.node[23].content_store 	misses[23] 	34938
scalar dtelecom_network.node[23].content_store 	decision_yes[23] 	18213
scalar dtelecom_network.node[23].content_store 	decision_no[23] 	16721
scalar dtelecom_network.node[23].content_store 	decision_ratio[23] 	0.5213545543024
scalar dtelecom_network.node[24].core_layer 	interests[24] 	18111
scalar dtelecom_network.node[24].core_layer 	repo_load[24] 	15297
scalar dtelecom_network.node[24].core_layer 	data[24] 	0
scalar dtelecom_network.node[24].content_store 	p_hit[24] 	0.15537518635084
scalar dtelecom_network.node[24].content_store 	hits[24] 	2814
scalar dtelecom_network.node[24].content_store 	misses[24] 	15297
scalar dtelecom_network.node[24].content_store 	decision_yes[24] 	15297
scalar dtelecom_network.node[24].content_store 	decision_no[24] 	0
scalar dtelecom_network.node[24].content_store 	decision_ratio[24] 	1
scalar dtelecom_network.node[25].core_layer 	interests[25] 	17136
scalar dtelecom_network.node[25].core_layer 	repo_load[25] 	14711
scalar dtelecom_network.node[25].core_layer 	data[25] 	0
scalar dtelecom_network.node[25].content_store 	p_hit[25] 	0.14151493930906
scalar dtelecom_network.node[25].content_store 	hits[25] 	2425
scalar dtelecom_network.node[25].content_store 	misses[25] 	14711
scalar dtelecom_network.node[25].content_store 	decision_yes[25] 	14711
scalar dtelecom_network.node[25].content_store 	decision_no[25] 	0
scalar dtelecom_network.node[25].content_store 	decision_ratio[25] 	1
scalar dtelecom_network.node[26].core_layer 	interests[26] 	2297
scalar dtelecom_network.node[26].core_layer 	data[26] 	1992
scalar dtelecom_network.node[26].content_store 	p_hit[26] 	0.13278188942098
scalar dtelecom_network.node[26].content_store 	hits[26] 	305
scalar dtelecom_network.node[26].content_store 	misses[26] 	1992
scalar dtelecom_network.node[26].content_store 	decision_yes[26] 	164
scalar dtelecom_network.node[26].content_store 	decision_no[26] 	1828
scalar dtelecom_network.node[26].content_store 	decision_ratio[26] 	0.082329317269076
scalar dtelecom_network.node[27].core_layer 	interests[27] 	16868
scalar dtelecom_network.node[27].core_layer 	repo_load[27] 	14524
scalar dtelecom_network.node[27].core_layer 	data[27] 	0
scalar dtelecom_network.node[27].content_store 	p_hit[27] 	0.1389613469291
scalar dtelecom_network.node[27].content_store 	hits[27] 	2344
scalar dtelecom_network.node[27].content_store 	misses[27] 	14524
scalar dtelecom_network.node[27].content_store 	decision_yes[27] 	14524
scalar dtelecom_network.node[27].content_store 	decision_no[27] 	0
scalar dtelecom_network.node[27].content_store 	decision_ratio[27] 	1
scalar dtelecom_network.node[28].core_layer 	interests[28] 	29538
scalar dtelecom_network.node[28].core_layer 	repo_load[28] 	15052
scalar dtelecom_network.node[28].core_layer 	data[28] 	10224
scalar dtelecom_network.node[28].content_store 	p_hit[28] 	0.14428871284447
scalar dtelecom_network.node[28].content_store 	hits[28] 	4262
scalar dtelecom_network.node[28].content_store 	misses[28] 	25276
scalar dtelecom_network.node[28].content_store 	decision_yes[28] 	16420
scalar dtelecom_network.node[28].content_store 	decision_no[28] 	8856
scalar dtelecom_network.node[28].content_store 	decision_ratio[28] 	0.64962810571293
scalar dtelecom_network.node[29].core_layer 	interests[29] 	0
scalar dtelecom_network.node[29].core_layer 	data[29] 	0
scalar dtelecom_network.node[29].content_store 	p_hit[29] 	-nan
scalar dtelecom_network.node[29].content_store 	hits[29] 	0
scalar dtelecom_network.node[29].content_store 	misses[29] 	0
scalar dtelecom_network.node[29].content_store 	decision_yes[29] 	0
scalar dtelecom_network.node[29].content_store 	decision_no[29] 	0
scalar dtelecom_network.node[29].content_store 	decision_ratio[29] 	0
scalar dtelecom_network.node[30].core_layer 	interests[30] 	12198
scalar dtelecom_network.node[30].core_layer 	data[30] 	9012
scalar dtelecom_network.node[30].content_store 	p_hit[30] 	0.26119035907526
scalar dtelecom_network.node[30].content_store 	hits[30] 	3186
scalar dtelecom_network.node[30].content_store 	misses[30] 	9012
scalar dtelecom_network.node[30].content_store 	decision_yes[30] 	452
scalar dtelecom_network.node[30].content_store 	decision_no[30] 	8560
scalar dtelecom_network.node[30].content_store 	decision_ratio[30] 	0.050155348424323
scalar dtelecom_network.node[31].core_layer 	interests[31] 	28420
scalar dtelecom_network.node[31].core_layer 	repo_load[31] 	14549
scalar dtelecom_network.node[31].core_layer 	data[31] 	10076
scalar dtelecom_network.node[31].content_store 	p_hit[31] 	0.13346235045742
scalar dtelecom_network.node[31].content_store 	hits[31] 	3793
scalar dtelecom_network.node[31].content_store 	misses[31] 	24627
scalar dtelecom_network.node[31].content_store 	decision_yes[31] 	16026
scalar dtelecom_network.node[31].content_store 	decision_no[31] 	8599
scalar dtelecom_network.node[31].content_store 	decision_ratio[31] 	0.65080203045685
scalar dtelecom_network.node[32].core_layer 	interests[32] 	11956
scalar dtelecom_network.node[32].core_layer 	data[32] 	8857
scalar dtelecom_network.node[32].content_store 	p_hit[32] 	0.25920040147206
scalar dtelecom_network.node[32].content_store 	hits[32] 	3099
scalar dtelecom_network.node[32].content_store 	misses[32] 	8857
scalar dtelecom_network.node[32].content_store 	decision_yes[32] 	507
scalar dtelecom_network.node[32].content_store 	decision_no[32] 	8350
scalar dtelecom_network.node[32].content_store 	decision_ratio[32] 	0.057242858755786
scalar dtelecom_network.node[33].core_layer 	interests[33] 	11924
scalar dtelecom_network.node[33].core_layer 	data[33] 	8791
scalar dtelecom_network.node[33].content_store 	p_hit[33] 	0.26274740020127
scalar dtelecom_network.node[33].content_store 	hits[33] 	3133
scalar dtelecom_network.node[33].content_store 	misses[33] 	8791
scalar dtelecom_network.node[33].content_store 	decision_yes[33] 	592
scalar dtelecom_network.node[33].content_store 	decision_no[33] 	8199
scalar dtelecom_network.node[33].content_store 	decision_ratio[33] 	0.067341599362985
scalar dtelecom_network.node[34].core_layer 	interests[34] 	0
scalar dtelecom_network.node[34].core_layer 	data[34] 	0
scalar dtelecom_network.node[34].content_store 	p_hit[34] 	-nan
scalar dtelecom_network.node[34].content_store 	hits[34] 	0
scalar dtelecom_network.node[34].content_store 	misses[34] 	0
scalar dtelecom_network.node[34].content_store 	decision_yes[34] 	0
scalar dtelecom_network.node[34].content_store 	decision_no[34] 	0
scalar dtelecom_network.node[34].content_store 	decision_ratio[34] 	0
scalar dtelecom_network.node[35].core_layer 	interests[35] 	0
scalar dtelecom_network.node[35].core_layer 	data[35] 	0
scalar dtelecom_network.node[35].content_store 	p_hit[35] 	-nan
scalar dtelecom_network.node[35].content_store 	hits[35] 	0
scalar dtelecom_network.node[35].content_store 	misses[35] 	0
scalar dtelecom_network.node[35].content_store 	decision_yes[35] 	0
scalar dtelecom_network.node[35].content_store 	decision_no[35] 	0
scalar dtelecom_network.node[35].content_store 	decision_ratio[35] 	0
scalar dtelecom_network.node[36].core_layer 	interests[36] 	11980
scalar dtelecom_network.node[36].core_layer 	data[36] 	8752
scalar dtelecom_network.node[36].content_store 	p_hit[36] 	0.26936560934891
scalar dtelecom_network.node[36].content_store 	hits[36] 	3227
scalar dtelecom_network.node[36].content_store 	misses[36] 	8753
scalar dtelecom_network.node[36].content_store 	decision_yes[36] 	500
scalar dtelecom_network.node[36].content_store 	decision_no[36] 	8252
scalar dtelecom_network.node[36].content_store 	decision_ratio[36] 	0.057129798903108
scalar dtelecom_network.node[37].core_layer 	interests[37] 	12109
scalar dtelecom_network.node[37].core_layer 	data[37] 	8969
scalar dtelecom_network.node[37].content_store 	p_hit[37] 	0.25931125609051
scalar dtelecom_network.node[37].content_store 	hits[37] 	3140
scalar dtelecom_network.node[37].content_store 	misses[37] 	8969
scalar dtelecom_network.node[37].content_store 	decision_yes[37] 	556
scalar dtelecom_network.node[37].content_store 	decision_no[37] 	8413
scalar dtelecom_network.node[37].content_store 	decision_ratio[37] 	0.061991303378303
scalar dtelecom_network.node[38].core_layer 	interests[38] 	0
scalar dtelecom_network.node[38].core_layer 	data[38] 	0
scalar dtelecom_network.node[38].content_store 	p_hit[38] 	-nan
scalar dtelecom_network.node[38].content_store 	hits[38] 	0
scalar dtelecom_network.node[38].content_store 	misses[38] 	0
scalar dtelecom_network.node[38].content_store 	decision_yes[38] 	0
scalar dtelecom_network.node[38].content_store 	decision_no[38] 	0
scalar dtelecom_network.node[38].content_store 	decision_ratio[38] 	0
scalar dtelecom_network.node[39].core_layer 	interests[39] 	0
scalar dtelecom_network.node[39].core_layer 	data[39] 	0
scalar dtelecom_network.node[39].content_store 	p_hit[39] 	-nan
scalar dtelecom_network.node[39].content_store 	hits[39] 	0
scalar dtelecom_network.node[39].content_store 	misses[39] 	0
scalar dtelecom_network.node[39].content_store 	decision_yes[39] 	0
scalar dtelecom_network.node[39].content_store 	decision_no[39] 	0
scalar dtelecom_network.node[39].content_store 	decision_ratio[39] 	0
scalar dtelecom_network.node[40].core_layer 	interests[40] 	12010
scalar dtelecom_network.node[40].core_layer 	data[40] 	8825
scalar dtelecom_network.node[40].content_store 	p_hit[40] 	0.26527893422148
scalar dtelecom_network.node[40].content_store 	hits[40] 	3186
scalar dtelecom_network.node[40].content_store 	misses[40] 	8824
scalar dtelecom_network.node[40].content_store 	decision_yes[40] 	711
scalar dtelecom_network.node[40].content_store 	decision_no[40] 	8114
scalar dtelecom_network.node[40].content_store 	decision_ratio[40] 	0.08056657223796
scalar dtelecom_network.node[41].core_layer 	interests[41] 	0
scalar dtelecom_network.node[41].core_layer 	data[41] 	0
scalar dtelecom_network.node[41].content_store 	p_hit[41] 	-nan
scalar dtelecom_network.node[41].content_store 	hits[41] 	0
scalar dtelecom_network.node[41].content_store 	misses[41] 	0
scalar dtelecom_network.node[41].content_store 	decision_yes[41] 	0
scalar dtelecom_network.node[41].content_store 	decision_no[41] 	0
scalar dtelecom_network.node[41].content_store 	decision_ratio[41] 	0
scalar dtelecom_network.node[42].core_layer 	interests[42] 	28368
scalar dtelecom_network.node[42].core_layer 	repo_load[42] 	14620
scalar dtelecom_network.node[42].core_layer 	data[42] 	10140
scalar dtelecom_network.node[42].content_store 	p_hit[42] 	0.12697405527355
scalar dtelecom_network.node[42].content_store 	hits[42] 	3602
scalar dtelecom_network.node[42].content_store 	misses[42] 	24766
scalar dtelecom_network.node[42].content_store 	decision_yes[42] 	15736
scalar dtelecom_network.node[42].content_store 	decision_no[42] 	9024
scalar dtelecom_network.node[42].content_store 	decision_ratio[42] 	0.63554119547658
scalar dtelecom_network.node[43].core_layer 	interests[43] 	0
scalar dtelecom_network.node[43].core_layer 	data[43] 	0
scalar dtelecom_network.node[43].content_store 	p_hit[43] 	-nan
scalar dtelecom_network.node[43].content_store 	hits[43] 	0
scalar dtelecom_network.node[43].content_store 	misses[43] 	0
scalar dtelecom_network.node[43].content_store 	decision_yes[43] 	0
scalar dtelecom_network.node[43].content_store 	decision_no[43] 	0
scalar dtelecom_network.node[43].content_store 	decision_ratio[43] 	0
scalar dtelecom_network.node[44].core_layer 	interests[44] 	17543
scalar dtelecom_network.node[44].core_layer 	repo_load[44] 	14884
scalar dtelecom_network.node[44].core_layer 	data[44] 	0
scalar dtelecom_network.node[44].content_store 	p_hit[44] 	0.15157042695092
scalar dtelecom_network.node[44].content_store 	hits[44] 	2659
scalar dtelecom_network.node[44].content_store 	misses[44] 	14884
scalar dtelecom_network.node[44].content_store 	decision_yes[44] 	14884
scalar dtelecom_network.node[44].content_store 	decision_no[44] 	0
scalar dtelecom_network.node[44].content_store 	decision_ratio[44] 	1
scalar dtelecom_network.node[45].core_layer 	interests[45] 	12065
scalar dtelecom_network.node[45].core_layer 	data[45] 	8821
scalar dtelecom_network.node[45].content_store 	p_hit[45] 	0.2688769167012
scalar dtelecom_network.node[45].content_store 	hits[45] 	3244
scalar dtelecom_network.node[45].content_store 	misses[45] 	8821
scalar dtelecom_network.node[45].content_store 	decision_yes[45] 	506
scalar dtelecom_network.node[45].content_store 	decision_no[45] 	8315
scalar dtelecom_network.node[45].content_store 	decision_ratio[45] 	0.057363110758417
scalar dtelecom_network.node[46].core_layer 	interests[46] 	29498
scalar dtelecom_network.node[46].core_layer 	repo_load[46] 	15586
scalar dtelecom_network.node[46].core_layer 	data[46] 	10088
scalar dtelecom_network.node[46].content_store 	p_hit[46] 	0.12960200691572
scalar dtelecom_network.node[46].content_store 	hits[46] 	3823
scalar dtelecom_network.node[46].content_store 	misses[46] 	25675
scalar dtelecom_network.node[46].content_store 	decision_yes[46] 	17000
scalar dtelecom_network.node[46].content_store 	decision_no[46] 	8674
scalar dtelecom_network.node[46].content_store 	decision_ratio[46] 	0.6621484770585
scalar dtelecom_network.node[47].core_layer 	interests[47] 	0
scalar dtelecom_network.node[47].core_layer 	data[47] 	0
scalar dtelecom_network.node[47].content_store 	p_hit[47] 	-nan
scalar dtelecom_network.node[47].content_store 	hits[47] 	0
scalar dtelecom_network.node[47].content_store 	misses[47] 	0
scalar dtelecom_network.node[47].content_store 	decision_yes[47] 	0
scalar dtelecom_network.node[47].content_store 	decision_no[47] 	0
scalar dtelecom_network.node[47].content_store 	decision_ratio[47] 	0
scalar dtelecom_network.node[48].core_layer 	interests[48] 	11962
scalar dtelecom_network.node[48].core_layer 	data[48] 	8736
scalar dtelecom_network.node[48].content_store 	p_hit[48] 	0.26968734325364
scalar dtelecom_network.node[48].content_store 	hits[48] 	3226
scalar dtelecom_network.node[48].content_store 	misses[48] 	8736
scalar dtelecom_network.node[48].content_store 	decision_yes[48] 	369
scalar dtelecom_network.node[48].content_store 	decision_no[48] 	8367
scalar dtelecom_network.node[48].content_store 	decision_ratio[48] 	0.042239010989011
scalar dtelecom_network.node[49].core_layer 	interests[49] 	11984
scalar dtelecom_network.node[49].core_layer 	data[49] 	8830
scalar dtelecom_network.node[49].content_store 	p_hit[49] 	0.26318424566088
scalar dtelecom_network.node[49].content_store 	hits[49] 	3154
scalar dtelecom_network.node[49].content_store 	misses[49] 	8830
scalar dtelecom_network.node[49].content_store 	decision_yes[49] 	438
scalar dtelecom_network.node[49].content_store 	decision_no[49] 	8392
scalar dtelecom_network.node[49].content_store 	decision_ratio[49] 	0.04960362400906
scalar dtelecom_network.node[50].core_layer 	interests[50] 	11915
scalar dtelecom_network.node[50].core_layer 	data[50] 	8851
scalar dtelecom_network.node[50].content_store 	p_hit[50] 	0.25715484683172
scalar dtelecom_network.node[50].content_store 	hits[50] 	3064
scalar dtelecom_network.node[50].content_store 	misses[50] 	8851
scalar dtelecom_network.node[50].content_store 	decision_yes[50] 	513
scalar dtelecom_network.node[50].content_store 	decision_no[50] 	8338
scalar dtelecom_network.node[50].content_store 	decision_ratio[50] 	0.057959552592927
scalar dtelecom_network.node[51].core_layer 	interests[51] 	11862
scalar dtelecom_network.node[51].core_layer 	data[51] 	8802
scalar dtelecom_network.node[51].content_store 	p_hit[51] 	0.25796661608498
scalar dtelecom_network.node[51].content_store 	hits[51] 	3060
scalar dtelecom_network.node[51].content_store 	misses[51] 	8802
scalar dtelecom_network.node[51].content_store 	decision_yes[51] 	744
scalar dtelecom_network.node[51].content_store 	decision_no[51] 	8058
scalar dtelecom_network.node[51].content_store 	decision_ratio[51] 	0.084526244035446
scalar dtelecom_network.node[52].core_layer 	interests[52] 	0
scalar dtelecom_network.node[52].core_layer 	data[52] 	0
scalar dtelecom_network.node[52].content_store 	p_hit[52] 	-nan
scalar dtelecom_network.node[52].content_store 	hits[52] 	0
scalar dtelecom_network.node[52].content_store 	misses[52] 	0
scalar dtelecom_network.node[52].content_store 	decision_yes[52] 	0
scalar dtelecom_network.node[52].content_store 	decision_no[52] 	0
scalar dtelecom_network.node[52].content_store 	decision_ratio[52] 	0
scalar dtelecom_network.node[53].core_layer 	interests[53] 	11903
scalar dtelecom_network.node[53].core_layer 	data[53] 	8705
scalar dtelecom_network.node[53].content_store 	p_hit[53] 	0.26867176342099
scalar dtelecom_network.node[53].content_store 	hits[53] 	3198
scalar dtelecom_network.node[53].content_store 	misses[53] 	8705
scalar dtelecom_network.node[53].content_store 	decision_yes[53] 	450
scalar dtelecom_network.node[53].content_store 	decision_no[53] 	8255
scalar dtelecom_network.node[53].content_store 	decision_ratio[53] 	0.051694428489374
scalar dtelecom_network.node[54].core_layer 	interests[54] 	28993
scalar dtelecom_network.node[54].core_layer 	repo_load[54] 	14879
scalar dtelecom_network.node[54].core_layer 	data[54] 	10062
scalar dtelecom_network.node[54].content_store 	p_hit[54] 	0.13972338150588
scalar dtelecom_network.node[54].content_store 	hits[54] 	4051
scalar dtelecom_network.node[54].content_store 	misses[54] 	24942
scalar dtelecom_network.node[54].content_store 	decision_yes[54] 	16479
scalar dtelecom_network.node[54].content_store 	decision_no[54] 	8462
scalar dtelecom_network.node[54].content_store 	decision_ratio[54] 	0.6607192975422
scalar dtelecom_network.node[55].core_layer 	interests[55] 	11831
scalar dtelecom_network.node[55].core_layer 	data[55] 	8715
scalar dtelecom_network.node[55].content_store 	p_hit[55] 	0.26329135322458
scalar dtelecom_network.node[55].content_store 	hits[55] 	3115
scalar dtelecom_network.node[55].content_store 	misses[55] 	8716
scalar dtelecom_network.node[55].content_store 	decision_yes[55] 	457
scalar dtelecom_network.node[55].content_store 	decision_no[55] 	8258
scalar dtelecom_network.node[55].content_store 	decision_ratio[55] 	0.052438324727481
scalar dtelecom_network.node[56].core_layer 	interests[56] 	11956
scalar dtelecom_network.node[56].core_layer 	data[56] 	8820
scalar dtelecom_network.node[56].content_store 	p_hit[56] 	0.26221144195383
scalar dtelecom_network.node[56].content_store 	hits[56] 	3135
scalar dtelecom_network.node[56].content_store 	misses[56] 	8821
scalar dtelecom_network.node[56].content_store 	decision_yes[56] 	527
scalar dtelecom_network.node[56].content_store 	decision_no[56] 	8293
scalar dtelecom_network.node[56].content_store 	decision_ratio[56] 	0.059750566893424
scalar dtelecom_network.node[57].core_layer 	interests[57] 	12053
scalar dtelecom_network.node[57].core_layer 	data[57] 	8884
scalar dtelecom_network.node[57].content_store 	p_hit[57] 	0.26300506098067
scalar dtelecom_network.node[57].content_store 	hits[57] 	3170
scalar dtelecom_network.node[57].content_store 	misses[57] 	8883
scalar dtelecom_network.node[57].content_store 	decision_yes[57] 	489
scalar dtelecom_network.node[57].content_store 	decision_no[57] 	8395
scalar dtelecom_network.node[57].content_store 	decision_ratio[57] 	0.055042773525439
scalar dtelecom_network.node[58].core_layer 	interests[58] 	28889
scalar dtelecom_network.node[58].core_layer 	repo_load[58] 	14935
scalar dtelecom_network.node[58].core_layer 	data[58] 	10189
scalar dtelecom_network.node[58].content_store 	p_hit[58] 	0.13029180656997
scalar dtelecom_network.node[58].content_store 	hits[58] 	3764
scalar dtelecom_network.node[58].content_store 	misses[58] 	25125
scalar dtelecom_network.node[58].content_store 	decision_yes[58] 	16360
scalar dtelecom_network.node[58].content_store 	decision_no[58] 	8764
scalar dtelecom_network.node[58].content_store 	decision_ratio[58] 	0.65117019582869
scalar dtelecom_network.node[59].core_layer 	interests[59] 	12129
scalar dtelecom_network.node[59].core_layer 	data[59] 	9123
scalar dtelecom_network.node[59].content_store 	p_hit[59] 	0.2475884244373
scalar dtelecom_network.node[59].content_store 	hits[59] 	3003
scalar dtelecom_network.node[59].content_store 	misses[59] 	9126
scalar dtelecom_network.node[59].content_store 	decision_yes[59] 	1105
scalar dtelecom_network.node[59].content_store 	decision_no[59] 	8018
scalar dtelecom_network.node[59].content_store 	decision_ratio[59] 	0.12112243779459
scalar dtelecom_network.node[60].core_layer 	interests[60] 	0
scalar dtelecom_network.node[60].core_layer 	data[60] 	0
scalar dtelecom_network.node[60].content_store 	p_hit[60] 	-nan
scalar dtelecom_network.node[60].content_store 	hits[60] 	0
scalar dtelecom_network.node[60].content_store 	misses[60] 	0
scalar dtelecom_network.node[60].content_store 	decision_yes[60] 	0
scalar dtelecom_network.node[60].content_store 	decision_no[60] 	0
scalar dtelecom_network.node[60].content_store 	decision_ratio[60] 	0
scalar dtelecom_network.node[61].core_layer 	interests[61] 	0
scalar dtelecom_network.node[61].core_layer 	data[61] 	0
scalar dtelecom_network.node[61].content_store 	p_hit[61] 	-nan
scalar dtelecom_network.node[61].content_store 	hits[61] 	0
scalar dtelecom_network.node[61].content_store 	misses[61] 	0
scalar dtelecom_network.node[61].content_store 	decision_yes[61] 	0
scalar dtelecom_network.node[61].content_store 	decision_no[61] 	0
scalar dtelecom_network.node[61].content_store 	decision_ratio[61] 	0
scalar dtelecom_network.node[62].core_layer 	interests[62] 	12064
scalar dtelecom_network.node[62].core_layer 	data[62] 	8852
scalar dtelecom_network.node[62].content_store 	p_hit[62] 	0.26624668435013
scalar dtelecom_network.node[62].content_store 	hits[62] 	3212
scalar dtelecom_network.node[62].content_store 	misses[62] 	8852
scalar dtelecom_network.node[62].content_store 	decision_yes[62] 	265
scalar dtelecom_network.node[62].content_store 	decision_no[62] 	8587
scalar dtelecom_network.node[62].content_store 	decision_ratio[62] 	0.029936737460461
scalar dtelecom_network.node[63].core_layer 	interests[63] 	0
scalar dtelecom_network.node[63].core_layer 	data[63] 	0
scalar dtelecom_network.node[63].content_store 	p_hit[63] 	-nan
scalar dtelecom_network.node[63].content_store 	hits[63] 	0
scalar dtelecom_network.node[63].content_store 	misses[63] 	0
scalar dtelecom_network.node[63].content_store 	decision_yes[63] 	0
scalar dtelecom_network.node[63].content_store 	decision_no[63] 	0
scalar dtelecom_network.node[63].content_store 	decision_ratio[63] 	0
scalar dtelecom_network.node[64].core_layer 	interests[64] 	0
scalar dtelecom_network.node[64].core_layer 	data[64] 	0
scalar dtelecom_network.node[64].content_store 	p_hit[64] 	-nan
scalar dtelecom_network.node[64].content_store 	hits[64] 	0
scalar dtelecom_network.node[64].content_store 	misses[64] 	0
scalar dtelecom_network.node[64].content_store 	decision_yes[64] 	0
scalar dtelecom_network.node[64].content_store 	decision_no[64] 	0
scalar dtelecom_network.node[64].content_store 	decision_ratio[64] 	0
scalar dtelecom_network.node[65].core_layer 	interests[65] 	16185
scalar dtelecom_network.node[65].core_layer 	repo_load[65] 	14784
scalar dtelecom_network.node[65].core_layer 	data[65] 	0
scalar dtelecom_network.node[65].content_store 	p_hit[65] 	0.086561631139944
scalar dtelecom_network.node[65].content_store 	hits[65] 	1401
scalar dtelecom_network.node[65].content_store 	misses[65] 	14784
scalar dtelecom_network.node[65].content_store 	decision_yes[65] 	14784
scalar dtelecom_network.node[65].content_store 	decision_no[65] 	0
scalar dtelecom_network.node[65].content_store 	decision_ratio[65] 	1
scalar dtelecom_network.node[66].core_layer 	interests[66] 	11924
scalar dtelecom_network.node[66].core_layer 	data[66] 	8712
scalar dtelecom_network.node[66].content_store 	p_hit[66] 	0.26912110030191
scalar dtelecom_network.node[66].content_store 	hits[66] 	3209
scalar dtelecom_network.node[66].content_store 	misses[66] 	8715
scalar dtelecom_network.node[66].content_store 	decision_yes[66] 	284
scalar dtelecom_network.node[66].content_store 	decision_no[66] 	8428
scalar dtelecom_network.node[66].content_store 	decision_ratio[66] 	0.032598714416896
scalar dtelecom_network.node[67].core_layer 	interests[67] 	12065
scalar dtelecom_network.node[67].core_layer 	data[67] 	8797
scalar dtelecom_network.node[67].content_store 	p_hit[67] 	0.27070037297969
scalar dtelecom_network.node[67].content_store 	hits[67] 	3266
scalar dtelecom_network.node[67].content_store 	misses[67] 	8799
scalar dtelecom_network.node[67].content_store 	decision_yes[67] 	283
scalar dtelecom_network.node[67].content_store 	decision_no[67] 	8514
scalar dtelecom_network.node[67].content_store 	decision_ratio[67] 	0.032170057974309
scalar dtelecom_network.client[3] 	hdistance[3] 	1.438493995456
scalar dtelecom_network.client[3] 	downloads[3] 	12324
scalar dtelecom_network.client[3] 	avg_time[3] 	0.009622384106
scalar dtelecom_network.client[4] 	hdistance[4] 	1.4603625428118
scalar dtelecom_network.client[4] 	downloads[4] 	11971
scalar dtelecom_network.client[4] 	avg_time[4] 	0.05014926421
scalar dtelecom_network.client[8] 	hdistance[8] 	2.0539305301645
scalar dtelecom_network.client[8] 	downloads[8] 	12034
scalar dtelecom_network.client[8] 	avg_time[8] 	0.012361437415
scalar dtelecom_network.client[9] 	hdistance[9] 	1.968443780103
scalar dtelecom_network.client[9] 	downloads[9] 	12042
scalar dtelecom_network.client[9] 	avg_time[9] 	0.012372157065
scalar dtelecom_network.client[17] 	hdistance[17] 	2.0575474041567
scalar dtelecom_network.client[17] 	downloads[17] 	12077
scalar dtelecom_network.client[17] 	avg_time[17] 	0.009979793184
scalar dtelecom_network.client[22] 	hdistance[22] 	2.0202994163918
scalar dtelecom_network.client[22] 	downloads[22] 	11823
scalar dtelecom_network.client[22] 	avg_time[22] 	0.01173684093
scalar dtelecom_network.client[23] 	hdistance[23] 	1.9610118550676
scalar dtelecom_network.client[23] 	downloads[23] 	11978
scalar dtelecom_network.client[23] 	avg_time[23] 	0.011392827691
scalar dtelecom_network.client[28] 	hdistance[28] 	2.1768774703557
scalar dtelecom_network.client[28] 	downloads[28] 	12144
scalar dtelecom_network.client[28] 	avg_time[28] 	0.014227740419
scalar dtelecom_network.client[30] 	hdistance[30] 	2.0197573372684
scalar dtelecom_network.client[30] 	downloads[30] 	12198
scalar dtelecom_network.client[30] 	avg_time[30] 	0.011607380703
scalar dtelecom_network.client[31] 	hdistance[31] 	2.1219226260258
scalar dtelecom_network.client[31] 	downloads[31] 	11942
scalar dtelecom_network.client[31] 	avg_time[31] 	0.01404880238
scalar dtelecom_network.client[32] 	hdistance[32] 	2.0143860823018
scalar dtelecom_network.client[32] 	downloads[32] 	11956
scalar dtelecom_network.client[32] 	avg_time[32] 	0.009649593837
scalar dtelecom_network.client[33] 	hdistance[33] 	1.9262831264676
scalar dtelecom_network.client[33] 	downloads[33] 	11924
scalar dtelecom_network.client[33] 	avg_time[33] 	0.011428474098
scalar dtelecom_network.client[36] 	hdistance[36] 	1.9906503046999
scalar dtelecom_network.client[36] 	downloads[36] 	11979
scalar dtelecom_network.client[36] 	avg_time[36] 	0.011534602573
scalar dtelecom_network.client[37] 	hdistance[37] 	1.9712610455033
scalar dtelecom_network.client[37] 	downloads[37] 	12109
scalar dtelecom_network.client[37] 	avg_time[37] 	0.010771867544
scalar dtelecom_network.client[40] 	hdistance[40] 	1.8643743235368
scalar dtelecom_network.client[40] 	downloads[40] 	12011
scalar dtelecom_network.client[40] 	avg_time[40] 	0.01192827288
scalar dtelecom_network.client[42] 	hdistance[42] 	2.2437520826391
scalar dtelecom_network.client[42] 	downloads[42] 	12004
scalar dtelecom_network.client[42] 	avg_time[42] 	0.014165335052
scalar dtelecom_network.client[45] 	hdistance[45] 	1.955905511811
scalar dtelecom_network.client[45] 	downloads[45] 	12065
scalar dtelecom_network.client[45] 	avg_time[45] 	0.011158040895
scalar dtelecom_network.client[46] 	hdistance[46] 	2.1853411962932
scalar dtelecom_network.client[46] 	downloads[46] 	11870
scalar dtelecom_network.client[46] 	avg_time[46] 	0.015212559622
scalar dtelecom_network.client[48] 	hdistance[48] 	2.0468985119545
scalar dtelecom_network.client[48] 	downloads[48] 	11962
scalar dtelecom_network.client[48] 	avg_time[48] 	0.012348429106
scalar dtelecom_network.client[49] 	hdistance[49] 	2.0190253671562
scalar dtelecom_network.client[49] 	downloads[49] 	11984
scalar dtelecom_network.client[49] 	avg_time[49] 	0.011008793897
scalar dtelecom_network.client[50] 	hdistance[50] 	2.0245069240453
scalar dtelecom_network.client[50] 	downloads[50] 	11915
scalar dtelecom_network.client[50] 	avg_time[50] 	0.01012127814
scalar dtelecom_network.client[51] 	hdistance[51] 	1.8806272129489
scalar dtelecom_network.client[51] 	downloads[51] 	11862
scalar dtelecom_network.client[51] 	avg_time[51] 	0.011458227925
scalar dtelecom_network.client[53] 	hdistance[53] 	1.9958833907418
scalar dtelecom_network.client[53] 	downloads[53] 	11903
scalar dtelecom_network.client[53] 	avg_time[53] 	0.010476164638
scalar dtelecom_network.client[54] 	hdistance[54] 	2.0841725411212
scalar dtelecom_network.client[54] 	downloads[54] 	11916
scalar dtelecom_network.client[54] 	avg_time[54] 	0.01309172134
scalar dtelecom_network.client[55] 	hdistance[55] 	2.0119188503804
scalar dtelecom_network.client[55] 	downloads[55] 	11830
scalar dtelecom_network.client[55] 	avg_time[55] 	0.015160523838
scalar dtelecom_network.client[56] 	hdistance[56] 	1.9738184859891
scalar dtelecom_network.client[56] 	downloads[56] 	11955
scalar dtelecom_network.client[56] 	avg_time[56] 	0.01028348322
scalar dtelecom_network.client[57] 	hdistance[57] 	2.0072175211548
scalar dtelecom_network.client[57] 	downloads[57] 	12054
scalar dtelecom_network.client[57] 	avg_time[57] 	0.009679301351
scalar dtelecom_network.client[58] 	hdistance[58] 	2.1592503921407
scalar dtelecom_network.client[58] 	downloads[58] 	12113
scalar dtelecom_network.client[58] 	avg_time[58] 	0.014635625756
scalar dtelecom_network.client[59] 	hdistance[59] 	1.8294573643411
scalar dtelecom_network.client[59] 	downloads[59] 	12126
scalar dtelecom_network.client[59] 	avg_time[59] 	0.056506918652
scalar dtelecom_network.client[62] 	hdistance[62] 	2.2807526525199
scalar dtelecom_network.client[62] 	downloads[62] 	12064
scalar dtelecom_network.client[62] 	avg_time[62] 	0.051285268332
scalar dtelecom_network.client[66] 	hdistance[66] 	2.0702122305176
scalar dtelecom_network.client[66] 	downloads[66] 	11921
scalar dtelecom_network.client[66] 	avg_time[66] 	0.089247261813
scalar dtelecom_network.client[67] 	hdistance[67] 	2.0702976042444
scalar dtelecom_network.client[67] 	downloads[67] 	12063
scalar dtelecom_network.client[67] 	avg_time[67] 	0.074329213686
