version 2
run General-75-20160824-06:41:58-9702
attr D lcd
attr F spr
attr R lru
attr a 0.9
attr configname General
attr datetime 20160824-06:41:58
attr experiment General
attr inifile hw5115/scenario_C/omnetp.ini
attr iterationvars "$net=dtelecom, $rep=9, $a=0.9, $F=spr, $D=lcd, $R=lru, $window=60, $variance=0.05, $mytime=600"
attr iterationvars2 "$net=dtelecom, $rep=9, $a=0.9, $F=spr, $D=lcd, $R=lru, $window=60, $variance=0.05, $mytime=600, $repetition=0"
attr measurement "$net=dtelecom, $rep=9, $a=0.9, $F=spr, $D=lcd, $R=lru, $window=60, $variance=0.05, $mytime=600"
attr mytime 600
attr net dtelecom
attr network networks.${net=dtelecom}_network
attr processid 9702
attr rep 9
attr repetition 0
attr replication #0
attr resultdir results
attr runnumber 75
attr seedset 9
attr variance 0.05
attr window 60

scalar . 	a 	0.9
scalar . 	mytime 	600
scalar . 	rep 	9
scalar . 	variance 	0.05
scalar . 	window 	60
scalar dtelecom_network.content_distribution 	repo-0 	1
scalar dtelecom_network.content_distribution 	repo-1 	5
scalar dtelecom_network.content_distribution 	repo-2 	22
scalar dtelecom_network.content_distribution 	repo-3 	32
scalar dtelecom_network.content_distribution 	repo-4 	3
scalar dtelecom_network.content_distribution 	repo-5 	12
scalar dtelecom_network.content_distribution 	repo-6 	64
scalar dtelecom_network.content_distribution 	repo-7 	51
scalar dtelecom_network.content_distribution 	repo-8 	23
scalar dtelecom_network.content_distribution 	repo-9 	8
scalar dtelecom_network.content_distribution 	repo-10 	24
scalar dtelecom_network.content_distribution 	repo-11 	43
scalar dtelecom_network.content_distribution 	repo-12 	7
scalar dtelecom_network.content_distribution 	repo-13 	45
scalar dtelecom_network.content_distribution 	repo-14 	60
scalar dtelecom_network.content_distribution 	repo-15 	34
scalar dtelecom_network.content_distribution 	client-0 	46
scalar dtelecom_network.content_distribution 	client-1 	30
scalar dtelecom_network.content_distribution 	client-2 	8
scalar dtelecom_network.content_distribution 	client-3 	49
scalar dtelecom_network.content_distribution 	client-4 	66
scalar dtelecom_network.content_distribution 	client-5 	58
scalar dtelecom_network.content_distribution 	client-6 	32
scalar dtelecom_network.content_distribution 	client-7 	40
scalar dtelecom_network.content_distribution 	client-8 	42
scalar dtelecom_network.content_distribution 	client-9 	45
scalar dtelecom_network.content_distribution 	client-10 	33
scalar dtelecom_network.content_distribution 	client-11 	28
scalar dtelecom_network.content_distribution 	client-12 	3
scalar dtelecom_network.content_distribution 	client-13 	57
scalar dtelecom_network.content_distribution 	client-14 	50
scalar dtelecom_network.content_distribution 	client-15 	17
scalar dtelecom_network.content_distribution 	client-16 	59
scalar dtelecom_network.content_distribution 	client-17 	48
scalar dtelecom_network.content_distribution 	client-18 	23
scalar dtelecom_network.content_distribution 	client-19 	22
scalar dtelecom_network.content_distribution 	client-20 	67
scalar dtelecom_network.content_distribution 	client-21 	62
scalar dtelecom_network.content_distribution 	client-22 	56
scalar dtelecom_network.content_distribution 	client-23 	55
scalar dtelecom_network.content_distribution 	client-24 	53
scalar dtelecom_network.content_distribution 	client-25 	36
scalar dtelecom_network.content_distribution 	client-26 	51
scalar dtelecom_network.content_distribution 	client-27 	37
scalar dtelecom_network.content_distribution 	client-28 	54
scalar dtelecom_network.content_distribution 	client-29 	4
scalar dtelecom_network.content_distribution 	client-30 	31
scalar dtelecom_network.content_distribution 	client-31 	9
scalar dtelecom_network.content_distribution 	repo-0_card 	6357
scalar dtelecom_network.content_distribution 	repo-0_price 	0
scalar dtelecom_network.content_distribution 	repo-1_card 	6265
scalar dtelecom_network.content_distribution 	repo-1_price 	0
scalar dtelecom_network.content_distribution 	repo-2_card 	6375
scalar dtelecom_network.content_distribution 	repo-2_price 	0
scalar dtelecom_network.content_distribution 	repo-3_card 	6158
scalar dtelecom_network.content_distribution 	repo-3_price 	0
scalar dtelecom_network.content_distribution 	repo-4_card 	6159
scalar dtelecom_network.content_distribution 	repo-4_price 	0
scalar dtelecom_network.content_distribution 	repo-5_card 	6389
scalar dtelecom_network.content_distribution 	repo-5_price 	0
scalar dtelecom_network.content_distribution 	repo-6_card 	6324
scalar dtelecom_network.content_distribution 	repo-6_price 	0
scalar dtelecom_network.content_distribution 	repo-7_card 	6320
scalar dtelecom_network.content_distribution 	repo-7_price 	0
scalar dtelecom_network.content_distribution 	repo-8_card 	6094
scalar dtelecom_network.content_distribution 	repo-8_price 	0
scalar dtelecom_network.content_distribution 	repo-9_card 	6152
scalar dtelecom_network.content_distribution 	repo-9_price 	0
scalar dtelecom_network.content_distribution 	repo-10_card 	6306
scalar dtelecom_network.content_distribution 	repo-10_price 	0
scalar dtelecom_network.content_distribution 	repo-11_card 	6181
scalar dtelecom_network.content_distribution 	repo-11_price 	0
scalar dtelecom_network.content_distribution 	repo-12_card 	6224
scalar dtelecom_network.content_distribution 	repo-12_price 	0
scalar dtelecom_network.content_distribution 	repo-13_card 	6286
scalar dtelecom_network.content_distribution 	repo-13_price 	0
scalar dtelecom_network.content_distribution 	repo-14_card 	6172
scalar dtelecom_network.content_distribution 	repo-14_price 	0
scalar dtelecom_network.content_distribution 	repo-15_card 	6238
scalar dtelecom_network.content_distribution 	repo-15_price 	0
scalar dtelecom_network.statistics 	stabilization_time 	8867.1
scalar dtelecom_network.statistics 	p_hit 	0.20762167433542
scalar dtelecom_network.statistics 	interests 	13030.735294118
scalar dtelecom_network.statistics 	data 	7384.9558823529
scalar dtelecom_network.statistics 	hdistance 	1.9360025175752
scalar dtelecom_network.statistics 	avg_time 	0.022047673591
scalar dtelecom_network.statistics 	downloads 	383854
scalar dtelecom_network.statistics 	total_cost 	0
scalar dtelecom_network.statistics 	total_replicas 	100000
scalar dtelecom_network.statistics 	inner_hit 	0.37218056865371
scalar dtelecom_network.node[0].core_layer 	interests[0] 	0
scalar dtelecom_network.node[0].core_layer 	data[0] 	0
scalar dtelecom_network.node[0].core_layer 	repo_int[0] 	240991
scalar dtelecom_network.node[0].content_store 	p_hit[0] 	-nan
scalar dtelecom_network.node[0].content_store 	hits[0] 	0
scalar dtelecom_network.node[0].content_store 	misses[0] 	0
scalar dtelecom_network.node[0].content_store 	decision_yes[0] 	0
scalar dtelecom_network.node[0].content_store 	decision_no[0] 	0
scalar dtelecom_network.node[0].content_store 	decision_ratio[0] 	0
scalar dtelecom_network.node[1].core_layer 	interests[1] 	178144
scalar dtelecom_network.node[1].core_layer 	repo_load[1] 	17216
scalar dtelecom_network.node[1].core_layer 	data[1] 	150117
scalar dtelecom_network.node[1].content_store 	p_hit[1] 	0.060518456978624
scalar dtelecom_network.node[1].content_store 	hits[1] 	10781
scalar dtelecom_network.node[1].content_store 	misses[1] 	167363
scalar dtelecom_network.node[1].content_store 	decision_yes[1] 	40872
scalar dtelecom_network.node[1].content_store 	decision_no[1] 	126461
scalar dtelecom_network.node[1].content_store 	decision_ratio[1] 	0.24425546664436
scalar dtelecom_network.node[2].core_layer 	interests[2] 	4003
scalar dtelecom_network.node[2].core_layer 	data[2] 	3694
scalar dtelecom_network.node[2].content_store 	p_hit[2] 	0.07719210592056
scalar dtelecom_network.node[2].content_store 	hits[2] 	309
scalar dtelecom_network.node[2].content_store 	misses[2] 	3694
scalar dtelecom_network.node[2].content_store 	decision_yes[2] 	294
scalar dtelecom_network.node[2].content_store 	decision_no[2] 	3400
scalar dtelecom_network.node[2].content_store 	decision_ratio[2] 	0.07958852192745
scalar dtelecom_network.node[3].core_layer 	interests[3] 	44004
scalar dtelecom_network.node[3].core_layer 	repo_load[3] 	15561
scalar dtelecom_network.node[3].core_layer 	data[3] 	23081
scalar dtelecom_network.node[3].content_store 	p_hit[3] 	0.12182983365149
scalar dtelecom_network.node[3].content_store 	hits[3] 	5361
scalar dtelecom_network.node[3].content_store 	misses[3] 	38643
scalar dtelecom_network.node[3].content_store 	decision_yes[3] 	19532
scalar dtelecom_network.node[3].content_store 	decision_no[3] 	19110
scalar dtelecom_network.node[3].content_store 	decision_ratio[3] 	0.50546037989752
scalar dtelecom_network.node[4].core_layer 	interests[4] 	45006
scalar dtelecom_network.node[4].core_layer 	data[4] 	39585
scalar dtelecom_network.node[4].content_store 	p_hit[4] 	0.11920632804515
scalar dtelecom_network.node[4].content_store 	hits[4] 	5365
scalar dtelecom_network.node[4].content_store 	misses[4] 	39641
scalar dtelecom_network.node[4].content_store 	decision_yes[4] 	5282
scalar dtelecom_network.node[4].content_store 	decision_no[4] 	34303
scalar dtelecom_network.node[4].content_store 	decision_ratio[4] 	0.13343438171024
scalar dtelecom_network.node[5].core_layer 	interests[5] 	17570
scalar dtelecom_network.node[5].core_layer 	repo_load[5] 	14349
scalar dtelecom_network.node[5].core_layer 	data[5] 	0
scalar dtelecom_network.node[5].content_store 	p_hit[5] 	0.18332384746727
scalar dtelecom_network.node[5].content_store 	hits[5] 	3221
scalar dtelecom_network.node[5].content_store 	misses[5] 	14349
scalar dtelecom_network.node[5].content_store 	decision_yes[5] 	14349
scalar dtelecom_network.node[5].content_store 	decision_no[5] 	0
scalar dtelecom_network.node[5].content_store 	decision_ratio[5] 	1
scalar dtelecom_network.node[6].core_layer 	interests[6] 	0
scalar dtelecom_network.node[6].core_layer 	data[6] 	0
scalar dtelecom_network.node[6].content_store 	p_hit[6] 	-nan
scalar dtelecom_network.node[6].content_store 	hits[6] 	0
scalar dtelecom_network.node[6].content_store 	misses[6] 	0
scalar dtelecom_network.node[6].content_store 	decision_yes[6] 	0
scalar dtelecom_network.node[6].content_store 	decision_no[6] 	0
scalar dtelecom_network.node[6].content_store 	decision_ratio[6] 	0
scalar dtelecom_network.node[7].core_layer 	interests[7] 	20541
scalar dtelecom_network.node[7].core_layer 	repo_load[7] 	16143
scalar dtelecom_network.node[7].core_layer 	data[7] 	0
scalar dtelecom_network.node[7].content_store 	p_hit[7] 	0.2141083686286
scalar dtelecom_network.node[7].content_store 	hits[7] 	4398
scalar dtelecom_network.node[7].content_store 	misses[7] 	16143
scalar dtelecom_network.node[7].content_store 	decision_yes[7] 	16143
scalar dtelecom_network.node[7].content_store 	decision_no[7] 	0
scalar dtelecom_network.node[7].content_store 	decision_ratio[7] 	1
scalar dtelecom_network.node[8].core_layer 	interests[8] 	29252
scalar dtelecom_network.node[8].core_layer 	repo_load[8] 	15007
scalar dtelecom_network.node[8].core_layer 	data[8] 	10238
scalar dtelecom_network.node[8].content_store 	p_hit[8] 	0.1367769725147
scalar dtelecom_network.node[8].content_store 	hits[8] 	4001
scalar dtelecom_network.node[8].content_store 	misses[8] 	25251
scalar dtelecom_network.node[8].content_store 	decision_yes[8] 	16416
scalar dtelecom_network.node[8].content_store 	decision_no[8] 	8829
scalar dtelecom_network.node[8].content_store 	decision_ratio[8] 	0.65026737967914
scalar dtelecom_network.node[9].core_layer 	interests[9] 	11922
scalar dtelecom_network.node[9].core_layer 	data[9] 	8840
scalar dtelecom_network.node[9].content_store 	p_hit[9] 	0.25851367220265
scalar dtelecom_network.node[9].content_store 	hits[9] 	3082
scalar dtelecom_network.node[9].content_store 	misses[9] 	8840
scalar dtelecom_network.node[9].content_store 	decision_yes[9] 	595
scalar dtelecom_network.node[9].content_store 	decision_no[9] 	8245
scalar dtelecom_network.node[9].content_store 	decision_ratio[9] 	0.067307692307692
scalar dtelecom_network.node[10].core_layer 	interests[10] 	0
scalar dtelecom_network.node[10].core_layer 	data[10] 	0
scalar dtelecom_network.node[10].content_store 	p_hit[10] 	-nan
scalar dtelecom_network.node[10].content_store 	hits[10] 	0
scalar dtelecom_network.node[10].content_store 	misses[10] 	0
scalar dtelecom_network.node[10].content_store 	decision_yes[10] 	0
scalar dtelecom_network.node[10].content_store 	decision_no[10] 	0
scalar dtelecom_network.node[10].content_store 	decision_ratio[10] 	0
scalar dtelecom_network.node[11].core_layer 	interests[11] 	0
scalar dtelecom_network.node[11].core_layer 	data[11] 	0
scalar dtelecom_network.node[11].content_store 	p_hit[11] 	-nan
scalar dtelecom_network.node[11].content_store 	hits[11] 	0
scalar dtelecom_network.node[11].content_store 	misses[11] 	0
scalar dtelecom_network.node[11].content_store 	decision_yes[11] 	0
scalar dtelecom_network.node[11].content_store 	decision_no[11] 	0
scalar dtelecom_network.node[11].content_store 	decision_ratio[11] 	0
scalar dtelecom_network.node[12].core_layer 	interests[12] 	19142
scalar dtelecom_network.node[12].core_layer 	repo_load[12] 	15875
scalar dtelecom_network.node[12].core_layer 	data[12] 	0
scalar dtelecom_network.node[12].content_store 	p_hit[12] 	0.17067182112632
scalar dtelecom_network.node[12].content_store 	hits[12] 	3267
scalar dtelecom_network.node[12].content_store 	misses[12] 	15875
scalar dtelecom_network.node[12].content_store 	decision_yes[12] 	15875
scalar dtelecom_network.node[12].content_store 	decision_no[12] 	0
scalar dtelecom_network.node[12].content_store 	decision_ratio[12] 	1
scalar dtelecom_network.node[13].core_layer 	interests[13] 	0
scalar dtelecom_network.node[13].core_layer 	data[13] 	0
scalar dtelecom_network.node[13].content_store 	p_hit[13] 	-nan
scalar dtelecom_network.node[13].content_store 	hits[13] 	0
scalar dtelecom_network.node[13].content_store 	misses[13] 	0
scalar dtelecom_network.node[13].content_store 	decision_yes[13] 	0
scalar dtelecom_network.node[13].content_store 	decision_no[13] 	0
scalar dtelecom_network.node[13].content_store 	decision_ratio[13] 	0
scalar dtelecom_network.node[14].core_layer 	interests[14] 	0
scalar dtelecom_network.node[14].core_layer 	data[14] 	0
scalar dtelecom_network.node[14].content_store 	p_hit[14] 	-nan
scalar dtelecom_network.node[14].content_store 	hits[14] 	0
scalar dtelecom_network.node[14].content_store 	misses[14] 	0
scalar dtelecom_network.node[14].content_store 	decision_yes[14] 	0
scalar dtelecom_network.node[14].content_store 	decision_no[14] 	0
scalar dtelecom_network.node[14].content_store 	decision_ratio[14] 	0
scalar dtelecom_network.node[15].core_layer 	interests[15] 	0
scalar dtelecom_network.node[15].core_layer 	data[15] 	0
scalar dtelecom_network.node[15].content_store 	p_hit[15] 	-nan
scalar dtelecom_network.node[15].content_store 	hits[15] 	0
scalar dtelecom_network.node[15].content_store 	misses[15] 	0
scalar dtelecom_network.node[15].content_store 	decision_yes[15] 	0
scalar dtelecom_network.node[15].content_store 	decision_no[15] 	0
scalar dtelecom_network.node[15].content_store 	decision_ratio[15] 	0
scalar dtelecom_network.node[16].core_layer 	interests[16] 	0
scalar dtelecom_network.node[16].core_layer 	data[16] 	0
scalar dtelecom_network.node[16].content_store 	p_hit[16] 	-nan
scalar dtelecom_network.node[16].content_store 	hits[16] 	0
scalar dtelecom_network.node[16].content_store 	misses[16] 	0
scalar dtelecom_network.node[16].content_store 	decision_yes[16] 	0
scalar dtelecom_network.node[16].content_store 	decision_no[16] 	0
scalar dtelecom_network.node[16].content_store 	decision_ratio[16] 	0
scalar dtelecom_network.node[17].core_layer 	interests[17] 	12412
scalar dtelecom_network.node[17].core_layer 	data[17] 	9371
scalar dtelecom_network.node[17].content_store 	p_hit[17] 	0.2448436996455
scalar dtelecom_network.node[17].content_store 	hits[17] 	3039
scalar dtelecom_network.node[17].content_store 	misses[17] 	9373
scalar dtelecom_network.node[17].content_store 	decision_yes[17] 	629
scalar dtelecom_network.node[17].content_store 	decision_no[17] 	8742
scalar dtelecom_network.node[17].content_store 	decision_ratio[17] 	0.067121972041404
scalar dtelecom_network.node[18].core_layer 	interests[18] 	0
scalar dtelecom_network.node[18].core_layer 	data[18] 	0
scalar dtelecom_network.node[18].content_store 	p_hit[18] 	-nan
scalar dtelecom_network.node[18].content_store 	hits[18] 	0
scalar dtelecom_network.node[18].content_store 	misses[18] 	0
scalar dtelecom_network.node[18].content_store 	decision_yes[18] 	0
scalar dtelecom_network.node[18].content_store 	decision_no[18] 	0
scalar dtelecom_network.node[18].content_store 	decision_ratio[18] 	0
scalar dtelecom_network.node[19].core_layer 	interests[19] 	0
scalar dtelecom_network.node[19].core_layer 	data[19] 	0
scalar dtelecom_network.node[19].content_store 	p_hit[19] 	-nan
scalar dtelecom_network.node[19].content_store 	hits[19] 	0
scalar dtelecom_network.node[19].content_store 	misses[19] 	0
scalar dtelecom_network.node[19].content_store 	decision_yes[19] 	0
scalar dtelecom_network.node[19].content_store 	decision_no[19] 	0
scalar dtelecom_network.node[19].content_store 	decision_ratio[19] 	0
scalar dtelecom_network.node[20].core_layer 	interests[20] 	0
scalar dtelecom_network.node[20].core_layer 	data[20] 	0
scalar dtelecom_network.node[20].content_store 	p_hit[20] 	-nan
scalar dtelecom_network.node[20].content_store 	hits[20] 	0
scalar dtelecom_network.node[20].content_store 	misses[20] 	0
scalar dtelecom_network.node[20].content_store 	decision_yes[20] 	0
scalar dtelecom_network.node[20].content_store 	decision_no[20] 	0
scalar dtelecom_network.node[20].content_store 	decision_ratio[20] 	0
scalar dtelecom_network.node[21].core_layer 	interests[21] 	0
scalar dtelecom_network.node[21].core_layer 	data[21] 	0
scalar dtelecom_network.node[21].content_store 	p_hit[21] 	-nan
scalar dtelecom_network.node[21].content_store 	hits[21] 	0
scalar dtelecom_network.node[21].content_store 	misses[21] 	0
scalar dtelecom_network.node[21].content_store 	decision_yes[21] 	0
scalar dtelecom_network.node[21].content_store 	decision_no[21] 	0
scalar dtelecom_network.node[21].content_store 	decision_ratio[21] 	0
scalar dtelecom_network.node[22].core_layer 	interests[22] 	28939
scalar dtelecom_network.node[22].core_layer 	repo_load[22] 	14957
scalar dtelecom_network.node[22].core_layer 	data[22] 	10198
scalar dtelecom_network.node[22].content_store 	p_hit[22] 	0.1306541345589
scalar dtelecom_network.node[22].content_store 	hits[22] 	3781
scalar dtelecom_network.node[22].content_store 	misses[22] 	25158
scalar dtelecom_network.node[22].content_store 	decision_yes[22] 	16413
scalar dtelecom_network.node[22].content_store 	decision_no[22] 	8742
scalar dtelecom_network.node[22].content_store 	decision_ratio[22] 	0.65247465712582
scalar dtelecom_network.node[23].core_layer 	interests[23] 	38058
scalar dtelecom_network.node[23].core_layer 	repo_load[23] 	14113
scalar dtelecom_network.node[23].core_layer 	data[23] 	20181
scalar dtelecom_network.node[23].content_store 	p_hit[23] 	0.098796573650744
scalar dtelecom_network.node[23].content_store 	hits[23] 	3760
scalar dtelecom_network.node[23].content_store 	misses[23] 	34298
scalar dtelecom_network.node[23].content_store 	decision_yes[23] 	16929
scalar dtelecom_network.node[23].content_store 	decision_no[23] 	17365
scalar dtelecom_network.node[23].content_store 	decision_ratio[23] 	0.49364320289263
scalar dtelecom_network.node[24].core_layer 	interests[24] 	19088
scalar dtelecom_network.node[24].core_layer 	repo_load[24] 	15456
scalar dtelecom_network.node[24].core_layer 	data[24] 	0
scalar dtelecom_network.node[24].content_store 	p_hit[24] 	0.19027661357921
scalar dtelecom_network.node[24].content_store 	hits[24] 	3632
scalar dtelecom_network.node[24].content_store 	misses[24] 	15456
scalar dtelecom_network.node[24].content_store 	decision_yes[24] 	15456
scalar dtelecom_network.node[24].content_store 	decision_no[24] 	0
scalar dtelecom_network.node[24].content_store 	decision_ratio[24] 	1
scalar dtelecom_network.node[25].core_layer 	interests[25] 	0
scalar dtelecom_network.node[25].core_layer 	data[25] 	0
scalar dtelecom_network.node[25].content_store 	p_hit[25] 	-nan
scalar dtelecom_network.node[25].content_store 	hits[25] 	0
scalar dtelecom_network.node[25].content_store 	misses[25] 	0
scalar dtelecom_network.node[25].content_store 	decision_yes[25] 	0
scalar dtelecom_network.node[25].content_store 	decision_no[25] 	0
scalar dtelecom_network.node[25].content_store 	decision_ratio[25] 	0
scalar dtelecom_network.node[26].core_layer 	interests[26] 	538
scalar dtelecom_network.node[26].core_layer 	data[26] 	371
scalar dtelecom_network.node[26].content_store 	p_hit[26] 	0.31040892193309
scalar dtelecom_network.node[26].content_store 	hits[26] 	167
scalar dtelecom_network.node[26].content_store 	misses[26] 	371
scalar dtelecom_network.node[26].content_store 	decision_yes[26] 	12
scalar dtelecom_network.node[26].content_store 	decision_no[26] 	359
scalar dtelecom_network.node[26].content_store 	decision_ratio[26] 	0.032345013477089
scalar dtelecom_network.node[27].core_layer 	interests[27] 	0
scalar dtelecom_network.node[27].core_layer 	data[27] 	0
scalar dtelecom_network.node[27].content_store 	p_hit[27] 	-nan
scalar dtelecom_network.node[27].content_store 	hits[27] 	0
scalar dtelecom_network.node[27].content_store 	misses[27] 	0
scalar dtelecom_network.node[27].content_store 	decision_yes[27] 	0
scalar dtelecom_network.node[27].content_store 	decision_no[27] 	0
scalar dtelecom_network.node[27].content_store 	decision_ratio[27] 	0
scalar dtelecom_network.node[28].core_layer 	interests[28] 	11952
scalar dtelecom_network.node[28].core_layer 	data[28] 	8959
scalar dtelecom_network.node[28].content_store 	p_hit[28] 	0.25041834002677
scalar dtelecom_network.node[28].content_store 	hits[28] 	2993
scalar dtelecom_network.node[28].content_store 	misses[28] 	8959
scalar dtelecom_network.node[28].content_store 	decision_yes[28] 	582
scalar dtelecom_network.node[28].content_store 	decision_no[28] 	8377
scalar dtelecom_network.node[28].content_store 	decision_ratio[28] 	0.064962607433865
scalar dtelecom_network.node[29].core_layer 	interests[29] 	0
scalar dtelecom_network.node[29].core_layer 	data[29] 	0
scalar dtelecom_network.node[29].content_store 	p_hit[29] 	-nan
scalar dtelecom_network.node[29].content_store 	hits[29] 	0
scalar dtelecom_network.node[29].content_store 	misses[29] 	0
scalar dtelecom_network.node[29].content_store 	decision_yes[29] 	0
scalar dtelecom_network.node[29].content_store 	decision_no[29] 	0
scalar dtelecom_network.node[29].content_store 	decision_ratio[29] 	0
scalar dtelecom_network.node[30].core_layer 	interests[30] 	12212
scalar dtelecom_network.node[30].core_layer 	data[30] 	9063
scalar dtelecom_network.node[30].content_store 	p_hit[30] 	0.25777923354078
scalar dtelecom_network.node[30].content_store 	hits[30] 	3148
scalar dtelecom_network.node[30].content_store 	misses[30] 	9064
scalar dtelecom_network.node[30].content_store 	decision_yes[30] 	532
scalar dtelecom_network.node[30].content_store 	decision_no[30] 	8531
scalar dtelecom_network.node[30].content_store 	decision_ratio[30] 	0.058700209643606
scalar dtelecom_network.node[31].core_layer 	interests[31] 	11929
scalar dtelecom_network.node[31].core_layer 	data[31] 	8701
scalar dtelecom_network.node[31].content_store 	p_hit[31] 	0.27060105624948
scalar dtelecom_network.node[31].content_store 	hits[31] 	3228
scalar dtelecom_network.node[31].content_store 	misses[31] 	8701
scalar dtelecom_network.node[31].content_store 	decision_yes[31] 	492
scalar dtelecom_network.node[31].content_store 	decision_no[31] 	8209
scalar dtelecom_network.node[31].content_store 	decision_ratio[31] 	0.056545224686818
scalar dtelecom_network.node[32].core_layer 	interests[32] 	28709
scalar dtelecom_network.node[32].core_layer 	repo_load[32] 	14820
scalar dtelecom_network.node[32].core_layer 	data[32] 	10197
scalar dtelecom_network.node[32].content_store 	p_hit[32] 	0.12849629036191
scalar dtelecom_network.node[32].content_store 	hits[32] 	3689
scalar dtelecom_network.node[32].content_store 	misses[32] 	25020
scalar dtelecom_network.node[32].content_store 	decision_yes[32] 	16206
scalar dtelecom_network.node[32].content_store 	decision_no[32] 	8811
scalar dtelecom_network.node[32].content_store 	decision_ratio[32] 	0.64779949634249
scalar dtelecom_network.node[33].core_layer 	interests[33] 	12024
scalar dtelecom_network.node[33].core_layer 	data[33] 	8967
scalar dtelecom_network.node[33].content_store 	p_hit[33] 	0.25424151696607
scalar dtelecom_network.node[33].content_store 	hits[33] 	3057
scalar dtelecom_network.node[33].content_store 	misses[33] 	8967
scalar dtelecom_network.node[33].content_store 	decision_yes[33] 	659
scalar dtelecom_network.node[33].content_store 	decision_no[33] 	8308
scalar dtelecom_network.node[33].content_store 	decision_ratio[33] 	0.073491691758671
scalar dtelecom_network.node[34].core_layer 	interests[34] 	17298
scalar dtelecom_network.node[34].core_layer 	repo_load[34] 	14855
scalar dtelecom_network.node[34].core_layer 	data[34] 	0
scalar dtelecom_network.node[34].content_store 	p_hit[34] 	0.14123020002312
scalar dtelecom_network.node[34].content_store 	hits[34] 	2443
scalar dtelecom_network.node[34].content_store 	misses[34] 	14855
scalar dtelecom_network.node[34].content_store 	decision_yes[34] 	14855
scalar dtelecom_network.node[34].content_store 	decision_no[34] 	0
scalar dtelecom_network.node[34].content_store 	decision_ratio[34] 	1
scalar dtelecom_network.node[35].core_layer 	interests[35] 	0
scalar dtelecom_network.node[35].core_layer 	data[35] 	0
scalar dtelecom_network.node[35].content_store 	p_hit[35] 	-nan
scalar dtelecom_network.node[35].content_store 	hits[35] 	0
scalar dtelecom_network.node[35].content_store 	misses[35] 	0
scalar dtelecom_network.node[35].content_store 	decision_yes[35] 	0
scalar dtelecom_network.node[35].content_store 	decision_no[35] 	0
scalar dtelecom_network.node[35].content_store 	decision_ratio[35] 	0
scalar dtelecom_network.node[36].core_layer 	interests[36] 	12019
scalar dtelecom_network.node[36].core_layer 	data[36] 	8939
scalar dtelecom_network.node[36].content_store 	p_hit[36] 	0.25626092020967
scalar dtelecom_network.node[36].content_store 	hits[36] 	3080
scalar dtelecom_network.node[36].content_store 	misses[36] 	8939
scalar dtelecom_network.node[36].content_store 	decision_yes[36] 	452
scalar dtelecom_network.node[36].content_store 	decision_no[36] 	8487
scalar dtelecom_network.node[36].content_store 	decision_ratio[36] 	0.050564940149905
scalar dtelecom_network.node[37].core_layer 	interests[37] 	11872
scalar dtelecom_network.node[37].core_layer 	data[37] 	8801
scalar dtelecom_network.node[37].content_store 	p_hit[37] 	0.25859164420485
scalar dtelecom_network.node[37].content_store 	hits[37] 	3070
scalar dtelecom_network.node[37].content_store 	misses[37] 	8802
scalar dtelecom_network.node[37].content_store 	decision_yes[37] 	594
scalar dtelecom_network.node[37].content_store 	decision_no[37] 	8207
scalar dtelecom_network.node[37].content_store 	decision_ratio[37] 	0.067492330416998
scalar dtelecom_network.node[38].core_layer 	interests[38] 	0
scalar dtelecom_network.node[38].core_layer 	data[38] 	0
scalar dtelecom_network.node[38].content_store 	p_hit[38] 	-nan
scalar dtelecom_network.node[38].content_store 	hits[38] 	0
scalar dtelecom_network.node[38].content_store 	misses[38] 	0
scalar dtelecom_network.node[38].content_store 	decision_yes[38] 	0
scalar dtelecom_network.node[38].content_store 	decision_no[38] 	0
scalar dtelecom_network.node[38].content_store 	decision_ratio[38] 	0
scalar dtelecom_network.node[39].core_layer 	interests[39] 	0
scalar dtelecom_network.node[39].core_layer 	data[39] 	0
scalar dtelecom_network.node[39].content_store 	p_hit[39] 	-nan
scalar dtelecom_network.node[39].content_store 	hits[39] 	0
scalar dtelecom_network.node[39].content_store 	misses[39] 	0
scalar dtelecom_network.node[39].content_store 	decision_yes[39] 	0
scalar dtelecom_network.node[39].content_store 	decision_no[39] 	0
scalar dtelecom_network.node[39].content_store 	decision_ratio[39] 	0
scalar dtelecom_network.node[40].core_layer 	interests[40] 	12574
scalar dtelecom_network.node[40].core_layer 	data[40] 	9437
scalar dtelecom_network.node[40].content_store 	p_hit[40] 	0.24940353109591
scalar dtelecom_network.node[40].content_store 	hits[40] 	3136
scalar dtelecom_network.node[40].content_store 	misses[40] 	9438
scalar dtelecom_network.node[40].content_store 	decision_yes[40] 	722
scalar dtelecom_network.node[40].content_store 	decision_no[40] 	8715
scalar dtelecom_network.node[40].content_store 	decision_ratio[40] 	0.07650736462859
scalar dtelecom_network.node[41].core_layer 	interests[41] 	0
scalar dtelecom_network.node[41].core_layer 	data[41] 	0
scalar dtelecom_network.node[41].content_store 	p_hit[41] 	-nan
scalar dtelecom_network.node[41].content_store 	hits[41] 	0
scalar dtelecom_network.node[41].content_store 	misses[41] 	0
scalar dtelecom_network.node[41].content_store 	decision_yes[41] 	0
scalar dtelecom_network.node[41].content_store 	decision_no[41] 	0
scalar dtelecom_network.node[41].content_store 	decision_ratio[41] 	0
scalar dtelecom_network.node[42].core_layer 	interests[42] 	12060
scalar dtelecom_network.node[42].core_layer 	data[42] 	8908
scalar dtelecom_network.node[42].content_store 	p_hit[42] 	0.26127694859038
scalar dtelecom_network.node[42].content_store 	hits[42] 	3151
scalar dtelecom_network.node[42].content_store 	misses[42] 	8909
scalar dtelecom_network.node[42].content_store 	decision_yes[42] 	530
scalar dtelecom_network.node[42].content_store 	decision_no[42] 	8378
scalar dtelecom_network.node[42].content_store 	decision_ratio[42] 	0.059497081275258
scalar dtelecom_network.node[43].core_layer 	interests[43] 	18017
scalar dtelecom_network.node[43].core_layer 	repo_load[43] 	14853
scalar dtelecom_network.node[43].core_layer 	data[43] 	0
scalar dtelecom_network.node[43].content_store 	p_hit[43] 	0.1756119220736
scalar dtelecom_network.node[43].content_store 	hits[43] 	3164
scalar dtelecom_network.node[43].content_store 	misses[43] 	14853
scalar dtelecom_network.node[43].content_store 	decision_yes[43] 	14853
scalar dtelecom_network.node[43].content_store 	decision_no[43] 	0
scalar dtelecom_network.node[43].content_store 	decision_ratio[43] 	1
scalar dtelecom_network.node[44].core_layer 	interests[44] 	0
scalar dtelecom_network.node[44].core_layer 	data[44] 	0
scalar dtelecom_network.node[44].content_store 	p_hit[44] 	-nan
scalar dtelecom_network.node[44].content_store 	hits[44] 	0
scalar dtelecom_network.node[44].content_store 	misses[44] 	0
scalar dtelecom_network.node[44].content_store 	decision_yes[44] 	0
scalar dtelecom_network.node[44].content_store 	decision_no[44] 	0
scalar dtelecom_network.node[44].content_store 	decision_ratio[44] 	0
scalar dtelecom_network.node[45].core_layer 	interests[45] 	27987
scalar dtelecom_network.node[45].core_layer 	repo_load[45] 	14185
scalar dtelecom_network.node[45].core_layer 	data[45] 	10125
scalar dtelecom_network.node[45].content_store 	p_hit[45] 	0.13113231143031
scalar dtelecom_network.node[45].content_store 	hits[45] 	3670
scalar dtelecom_network.node[45].content_store 	misses[45] 	24317
scalar dtelecom_network.node[45].content_store 	decision_yes[45] 	15789
scalar dtelecom_network.node[45].content_store 	decision_no[45] 	8521
scalar dtelecom_network.node[45].content_store 	decision_ratio[45] 	0.64948580830934
scalar dtelecom_network.node[46].core_layer 	interests[46] 	11965
scalar dtelecom_network.node[46].core_layer 	data[46] 	8888
scalar dtelecom_network.node[46].content_store 	p_hit[46] 	0.25708315921438
scalar dtelecom_network.node[46].content_store 	hits[46] 	3076
scalar dtelecom_network.node[46].content_store 	misses[46] 	8889
scalar dtelecom_network.node[46].content_store 	decision_yes[46] 	557
scalar dtelecom_network.node[46].content_store 	decision_no[46] 	8331
scalar dtelecom_network.node[46].content_store 	decision_ratio[46] 	0.062668766876688
scalar dtelecom_network.node[47].core_layer 	interests[47] 	0
scalar dtelecom_network.node[47].core_layer 	data[47] 	0
scalar dtelecom_network.node[47].content_store 	p_hit[47] 	-nan
scalar dtelecom_network.node[47].content_store 	hits[47] 	0
scalar dtelecom_network.node[47].content_store 	misses[47] 	0
scalar dtelecom_network.node[47].content_store 	decision_yes[47] 	0
scalar dtelecom_network.node[47].content_store 	decision_no[47] 	0
scalar dtelecom_network.node[47].content_store 	decision_ratio[47] 	0
scalar dtelecom_network.node[48].core_layer 	interests[48] 	12093
scalar dtelecom_network.node[48].core_layer 	data[48] 	8928
scalar dtelecom_network.node[48].content_store 	p_hit[48] 	0.26163896469032
scalar dtelecom_network.node[48].content_store 	hits[48] 	3164
scalar dtelecom_network.node[48].content_store 	misses[48] 	8929
scalar dtelecom_network.node[48].content_store 	decision_yes[48] 	573
scalar dtelecom_network.node[48].content_store 	decision_no[48] 	8355
scalar dtelecom_network.node[48].content_store 	decision_ratio[48] 	0.064180107526882
scalar dtelecom_network.node[49].core_layer 	interests[49] 	11713
scalar dtelecom_network.node[49].core_layer 	data[49] 	8594
scalar dtelecom_network.node[49].content_store 	p_hit[49] 	0.26637069922309
scalar dtelecom_network.node[49].content_store 	hits[49] 	3120
scalar dtelecom_network.node[49].content_store 	misses[49] 	8593
scalar dtelecom_network.node[49].content_store 	decision_yes[49] 	538
scalar dtelecom_network.node[49].content_store 	decision_no[49] 	8056
scalar dtelecom_network.node[49].content_store 	decision_ratio[49] 	0.062601815219921
scalar dtelecom_network.node[50].core_layer 	interests[50] 	11904
scalar dtelecom_network.node[50].core_layer 	data[50] 	8850
scalar dtelecom_network.node[50].content_store 	p_hit[50] 	0.25655241935484
scalar dtelecom_network.node[50].content_store 	hits[50] 	3054
scalar dtelecom_network.node[50].content_store 	misses[50] 	8850
scalar dtelecom_network.node[50].content_store 	decision_yes[50] 	507
scalar dtelecom_network.node[50].content_store 	decision_no[50] 	8343
scalar dtelecom_network.node[50].content_store 	decision_ratio[50] 	0.05728813559322
scalar dtelecom_network.node[51].core_layer 	interests[51] 	29748
scalar dtelecom_network.node[51].core_layer 	repo_load[51] 	15641
scalar dtelecom_network.node[51].core_layer 	data[51] 	10124
scalar dtelecom_network.node[51].content_store 	p_hit[51] 	0.13368965980906
scalar dtelecom_network.node[51].content_store 	hits[51] 	3977
scalar dtelecom_network.node[51].content_store 	misses[51] 	25771
scalar dtelecom_network.node[51].content_store 	decision_yes[51] 	17136
scalar dtelecom_network.node[51].content_store 	decision_no[51] 	8629
scalar dtelecom_network.node[51].content_store 	decision_ratio[51] 	0.66508829807879
scalar dtelecom_network.node[52].core_layer 	interests[52] 	0
scalar dtelecom_network.node[52].core_layer 	data[52] 	0
scalar dtelecom_network.node[52].content_store 	p_hit[52] 	-nan
scalar dtelecom_network.node[52].content_store 	hits[52] 	0
scalar dtelecom_network.node[52].content_store 	misses[52] 	0
scalar dtelecom_network.node[52].content_store 	decision_yes[52] 	0
scalar dtelecom_network.node[52].content_store 	decision_no[52] 	0
scalar dtelecom_network.node[52].content_store 	decision_ratio[52] 	0
scalar dtelecom_network.node[53].core_layer 	interests[53] 	12116
scalar dtelecom_network.node[53].core_layer 	data[53] 	9038
scalar dtelecom_network.node[53].content_store 	p_hit[53] 	0.25396170353252
scalar dtelecom_network.node[53].content_store 	hits[53] 	3077
scalar dtelecom_network.node[53].content_store 	misses[53] 	9039
scalar dtelecom_network.node[53].content_store 	decision_yes[53] 	589
scalar dtelecom_network.node[53].content_store 	decision_no[53] 	8449
scalar dtelecom_network.node[53].content_store 	decision_ratio[53] 	0.065169285240097
scalar dtelecom_network.node[54].core_layer 	interests[54] 	12000
scalar dtelecom_network.node[54].core_layer 	data[54] 	8934
scalar dtelecom_network.node[54].content_store 	p_hit[54] 	0.2555
scalar dtelecom_network.node[54].content_store 	hits[54] 	3066
scalar dtelecom_network.node[54].content_store 	misses[54] 	8934
scalar dtelecom_network.node[54].content_store 	decision_yes[54] 	650
scalar dtelecom_network.node[54].content_store 	decision_no[54] 	8284
scalar dtelecom_network.node[54].content_store 	decision_ratio[54] 	0.072755764495187
scalar dtelecom_network.node[55].core_layer 	interests[55] 	12166
scalar dtelecom_network.node[55].core_layer 	data[55] 	9013
scalar dtelecom_network.node[55].content_store 	p_hit[55] 	0.25916488574716
scalar dtelecom_network.node[55].content_store 	hits[55] 	3153
scalar dtelecom_network.node[55].content_store 	misses[55] 	9013
scalar dtelecom_network.node[55].content_store 	decision_yes[55] 	498
scalar dtelecom_network.node[55].content_store 	decision_no[55] 	8515
scalar dtelecom_network.node[55].content_store 	decision_ratio[55] 	0.055253522689449
scalar dtelecom_network.node[56].core_layer 	interests[56] 	11853
scalar dtelecom_network.node[56].core_layer 	data[56] 	8764
scalar dtelecom_network.node[56].content_store 	p_hit[56] 	0.26060912849068
scalar dtelecom_network.node[56].content_store 	hits[56] 	3089
scalar dtelecom_network.node[56].content_store 	misses[56] 	8764
scalar dtelecom_network.node[56].content_store 	decision_yes[56] 	547
scalar dtelecom_network.node[56].content_store 	decision_no[56] 	8217
scalar dtelecom_network.node[56].content_store 	decision_ratio[56] 	0.062414422638065
scalar dtelecom_network.node[57].core_layer 	interests[57] 	12143
scalar dtelecom_network.node[57].core_layer 	data[57] 	8911
scalar dtelecom_network.node[57].content_store 	p_hit[57] 	0.26624392654204
scalar dtelecom_network.node[57].content_store 	hits[57] 	3233
scalar dtelecom_network.node[57].content_store 	misses[57] 	8910
scalar dtelecom_network.node[57].content_store 	decision_yes[57] 	526
scalar dtelecom_network.node[57].content_store 	decision_no[57] 	8385
scalar dtelecom_network.node[57].content_store 	decision_ratio[57] 	0.059028167433509
scalar dtelecom_network.node[58].core_layer 	interests[58] 	11940
scalar dtelecom_network.node[58].core_layer 	data[58] 	8946
scalar dtelecom_network.node[58].content_store 	p_hit[58] 	0.25075376884422
scalar dtelecom_network.node[58].content_store 	hits[58] 	2994
scalar dtelecom_network.node[58].content_store 	misses[58] 	8946
scalar dtelecom_network.node[58].content_store 	decision_yes[58] 	576
scalar dtelecom_network.node[58].content_store 	decision_no[58] 	8370
scalar dtelecom_network.node[58].content_store 	decision_ratio[58] 	0.064386317907445
scalar dtelecom_network.node[59].core_layer 	interests[59] 	12118
scalar dtelecom_network.node[59].core_layer 	data[59] 	9049
scalar dtelecom_network.node[59].content_store 	p_hit[59] 	0.25309457006107
scalar dtelecom_network.node[59].content_store 	hits[59] 	3067
scalar dtelecom_network.node[59].content_store 	misses[59] 	9051
scalar dtelecom_network.node[59].content_store 	decision_yes[59] 	819
scalar dtelecom_network.node[59].content_store 	decision_no[59] 	8230
scalar dtelecom_network.node[59].content_store 	decision_ratio[59] 	0.090507238368881
scalar dtelecom_network.node[60].core_layer 	interests[60] 	15904
scalar dtelecom_network.node[60].core_layer 	repo_load[60] 	14133
scalar dtelecom_network.node[60].core_layer 	data[60] 	0
scalar dtelecom_network.node[60].content_store 	p_hit[60] 	0.11135563380282
scalar dtelecom_network.node[60].content_store 	hits[60] 	1771
scalar dtelecom_network.node[60].content_store 	misses[60] 	14133
scalar dtelecom_network.node[60].content_store 	decision_yes[60] 	14133
scalar dtelecom_network.node[60].content_store 	decision_no[60] 	0
scalar dtelecom_network.node[60].content_store 	decision_ratio[60] 	1
scalar dtelecom_network.node[61].core_layer 	interests[61] 	0
scalar dtelecom_network.node[61].core_layer 	data[61] 	0
scalar dtelecom_network.node[61].content_store 	p_hit[61] 	-nan
scalar dtelecom_network.node[61].content_store 	hits[61] 	0
scalar dtelecom_network.node[61].content_store 	misses[61] 	0
scalar dtelecom_network.node[61].content_store 	decision_yes[61] 	0
scalar dtelecom_network.node[61].content_store 	decision_no[61] 	0
scalar dtelecom_network.node[61].content_store 	decision_ratio[61] 	0
scalar dtelecom_network.node[62].core_layer 	interests[62] 	12171
scalar dtelecom_network.node[62].core_layer 	data[62] 	8835
scalar dtelecom_network.node[62].content_store 	p_hit[62] 	0.27376550817517
scalar dtelecom_network.node[62].content_store 	hits[62] 	3332
scalar dtelecom_network.node[62].content_store 	misses[62] 	8839
scalar dtelecom_network.node[62].content_store 	decision_yes[62] 	66
scalar dtelecom_network.node[62].content_store 	decision_no[62] 	8769
scalar dtelecom_network.node[62].content_store 	decision_ratio[62] 	0.0074702886247878
scalar dtelecom_network.node[63].core_layer 	interests[63] 	0
scalar dtelecom_network.node[63].core_layer 	data[63] 	0
scalar dtelecom_network.node[63].content_store 	p_hit[63] 	-nan
scalar dtelecom_network.node[63].content_store 	hits[63] 	0
scalar dtelecom_network.node[63].content_store 	misses[63] 	0
scalar dtelecom_network.node[63].content_store 	decision_yes[63] 	0
scalar dtelecom_network.node[63].content_store 	decision_no[63] 	0
scalar dtelecom_network.node[63].content_store 	decision_ratio[63] 	0
scalar dtelecom_network.node[64].core_layer 	interests[64] 	15007
scalar dtelecom_network.node[64].core_layer 	repo_load[64] 	13827
scalar dtelecom_network.node[64].core_layer 	data[64] 	0
scalar dtelecom_network.node[64].content_store 	p_hit[64] 	0.078629972679416
scalar dtelecom_network.node[64].content_store 	hits[64] 	1180
scalar dtelecom_network.node[64].content_store 	misses[64] 	13827
scalar dtelecom_network.node[64].content_store 	decision_yes[64] 	13827
scalar dtelecom_network.node[64].content_store 	decision_no[64] 	0
scalar dtelecom_network.node[64].content_store 	decision_ratio[64] 	1
scalar dtelecom_network.node[65].core_layer 	interests[65] 	0
scalar dtelecom_network.node[65].core_layer 	data[65] 	0
scalar dtelecom_network.node[65].content_store 	p_hit[65] 	-nan
scalar dtelecom_network.node[65].content_store 	hits[65] 	0
scalar dtelecom_network.node[65].content_store 	misses[65] 	0
scalar dtelecom_network.node[65].content_store 	decision_yes[65] 	0
scalar dtelecom_network.node[65].content_store 	decision_no[65] 	0
scalar dtelecom_network.node[65].content_store 	decision_ratio[65] 	0
scalar dtelecom_network.node[66].core_layer 	interests[66] 	12031
scalar dtelecom_network.node[66].core_layer 	data[66] 	8746
scalar dtelecom_network.node[66].content_store 	p_hit[66] 	0.27262904164242
scalar dtelecom_network.node[66].content_store 	hits[66] 	3280
scalar dtelecom_network.node[66].content_store 	misses[66] 	8751
scalar dtelecom_network.node[66].content_store 	decision_yes[66] 	311
scalar dtelecom_network.node[66].content_store 	decision_no[66] 	8435
scalar dtelecom_network.node[66].content_store 	decision_ratio[66] 	0.035559112737251
scalar dtelecom_network.node[67].core_layer 	interests[67] 	11946
scalar dtelecom_network.node[67].core_layer 	data[67] 	8784
scalar dtelecom_network.node[67].content_store 	p_hit[67] 	0.26452368993805
scalar dtelecom_network.node[67].content_store 	hits[67] 	3160
scalar dtelecom_network.node[67].content_store 	misses[67] 	8786
scalar dtelecom_network.node[67].content_store 	decision_yes[67] 	268
scalar dtelecom_network.node[67].content_store 	decision_no[67] 	8516
scalar dtelecom_network.node[67].content_store 	decision_ratio[67] 	0.030510018214936
scalar dtelecom_network.client[3] 	hdistance[3] 	1.576411273659
scalar dtelecom_network.client[3] 	downloads[3] 	12099
scalar dtelecom_network.client[3] 	avg_time[3] 	0.013154543687
scalar dtelecom_network.client[4] 	hdistance[4] 	1.4388306860426
scalar dtelecom_network.client[4] 	downloads[4] 	11836
scalar dtelecom_network.client[4] 	avg_time[4] 	0.047854811451
scalar dtelecom_network.client[8] 	hdistance[8] 	2.1049310974597
scalar dtelecom_network.client[8] 	downloads[8] 	12046
scalar dtelecom_network.client[8] 	avg_time[8] 	0.016473092514
scalar dtelecom_network.client[9] 	hdistance[9] 	1.8959067270592
scalar dtelecom_network.client[9] 	downloads[9] 	11922
scalar dtelecom_network.client[9] 	avg_time[9] 	0.013979035792
scalar dtelecom_network.client[17] 	hdistance[17] 	1.9148275572711
scalar dtelecom_network.client[17] 	downloads[17] 	11917
scalar dtelecom_network.client[17] 	avg_time[17] 	0.012187665409
scalar dtelecom_network.client[22] 	hdistance[22] 	2.0965885394945
scalar dtelecom_network.client[22] 	downloads[22] 	11989
scalar dtelecom_network.client[22] 	avg_time[22] 	0.016099981766
scalar dtelecom_network.client[23] 	hdistance[23] 	1.8944803830967
scalar dtelecom_network.client[23] 	downloads[23] 	11903
scalar dtelecom_network.client[23] 	avg_time[23] 	0.013957755176
scalar dtelecom_network.client[28] 	hdistance[28] 	1.9176706827309
scalar dtelecom_network.client[28] 	downloads[28] 	11952
scalar dtelecom_network.client[28] 	avg_time[28] 	0.014400281166
scalar dtelecom_network.client[30] 	hdistance[30] 	1.9472606666121
scalar dtelecom_network.client[30] 	downloads[30] 	12211
scalar dtelecom_network.client[30] 	avg_time[30] 	0.013195881152
scalar dtelecom_network.client[31] 	hdistance[31] 	1.9150808952972
scalar dtelecom_network.client[31] 	downloads[31] 	11929
scalar dtelecom_network.client[31] 	avg_time[31] 	0.014498309099
scalar dtelecom_network.client[32] 	hdistance[32] 	2.1142189195959
scalar dtelecom_network.client[32] 	downloads[32] 	11977
scalar dtelecom_network.client[32] 	avg_time[32] 	0.013799783009
scalar dtelecom_network.client[33] 	hdistance[33] 	1.8673486360612
scalar dtelecom_network.client[33] 	downloads[33] 	12024
scalar dtelecom_network.client[33] 	avg_time[33] 	0.013577175982
scalar dtelecom_network.client[36] 	hdistance[36] 	1.9540727181962
scalar dtelecom_network.client[36] 	downloads[36] 	12019
scalar dtelecom_network.client[36] 	avg_time[36] 	0.013798394219
scalar dtelecom_network.client[37] 	hdistance[37] 	1.8965546289276
scalar dtelecom_network.client[37] 	downloads[37] 	11871
scalar dtelecom_network.client[37] 	avg_time[37] 	0.012330642662
scalar dtelecom_network.client[40] 	hdistance[40] 	1.8550724637681
scalar dtelecom_network.client[40] 	downloads[40] 	12006
scalar dtelecom_network.client[40] 	avg_time[40] 	0.014327655356
scalar dtelecom_network.client[42] 	hdistance[42] 	1.9338253586533
scalar dtelecom_network.client[42] 	downloads[42] 	12059
scalar dtelecom_network.client[42] 	avg_time[42] 	0.014581059612
scalar dtelecom_network.client[45] 	hdistance[45] 	1.9930133910006
scalar dtelecom_network.client[45] 	downloads[45] 	12023
scalar dtelecom_network.client[45] 	avg_time[45] 	0.014829346982
scalar dtelecom_network.client[46] 	hdistance[46] 	1.9037947174858
scalar dtelecom_network.client[46] 	downloads[46] 	11964
scalar dtelecom_network.client[46] 	avg_time[46] 	0.015363884655
scalar dtelecom_network.client[48] 	hdistance[48] 	1.889348329474
scalar dtelecom_network.client[48] 	downloads[48] 	12092
scalar dtelecom_network.client[48] 	avg_time[48] 	0.013549900639
scalar dtelecom_network.client[49] 	hdistance[49] 	1.8853508622162
scalar dtelecom_network.client[49] 	downloads[49] 	11714
scalar dtelecom_network.client[49] 	avg_time[49] 	0.012903271193
scalar dtelecom_network.client[50] 	hdistance[50] 	1.9520329301075
scalar dtelecom_network.client[50] 	downloads[50] 	11904
scalar dtelecom_network.client[50] 	avg_time[50] 	0.012354591053
scalar dtelecom_network.client[51] 	hdistance[51] 	2.053580412544
scalar dtelecom_network.client[51] 	downloads[51] 	11926
scalar dtelecom_network.client[51] 	avg_time[51] 	0.016365497903
scalar dtelecom_network.client[53] 	hdistance[53] 	1.9139909203467
scalar dtelecom_network.client[53] 	downloads[53] 	12115
scalar dtelecom_network.client[53] 	avg_time[53] 	0.012789609869
scalar dtelecom_network.client[54] 	hdistance[54] 	1.85625
scalar dtelecom_network.client[54] 	downloads[54] 	12000
scalar dtelecom_network.client[54] 	avg_time[54] 	0.014612300682
scalar dtelecom_network.client[55] 	hdistance[55] 	1.9465724149268
scalar dtelecom_network.client[55] 	downloads[55] 	12166
scalar dtelecom_network.client[55] 	avg_time[55] 	0.017193333614
scalar dtelecom_network.client[56] 	hdistance[56] 	1.8938665316797
scalar dtelecom_network.client[56] 	downloads[56] 	11853
scalar dtelecom_network.client[56] 	avg_time[56] 	0.012965533919
scalar dtelecom_network.client[57] 	hdistance[57] 	1.9229249011858
scalar dtelecom_network.client[57] 	downloads[57] 	12144
scalar dtelecom_network.client[57] 	avg_time[57] 	0.011824214804
scalar dtelecom_network.client[58] 	hdistance[58] 	1.9189279731993
scalar dtelecom_network.client[58] 	downloads[58] 	11940
scalar dtelecom_network.client[58] 	avg_time[58] 	0.014678964551
scalar dtelecom_network.client[59] 	hdistance[59] 	2.0418454935622
scalar dtelecom_network.client[59] 	downloads[59] 	12116
scalar dtelecom_network.client[59] 	avg_time[59] 	0.058883306539
scalar dtelecom_network.client[62] 	hdistance[62] 	2.3921262431166
scalar dtelecom_network.client[62] 	downloads[62] 	12167
scalar dtelecom_network.client[62] 	avg_time[62] 	0.059313989621
scalar dtelecom_network.client[66] 	hdistance[66] 	2.0020788292034
scalar dtelecom_network.client[66] 	downloads[66] 	12026
scalar dtelecom_network.client[66] 	avg_time[66] 	0.086548567971
scalar dtelecom_network.client[67] 	hdistance[67] 	2.0632953784327
scalar dtelecom_network.client[67] 	downloads[67] 	11944
scalar dtelecom_network.client[67] 	avg_time[67] 	0.073133172872
