version 2
run General-39-20160823-13:05:24-12979
attr D wfc0.01
attr F nrr
attr R lru
attr a 0.8
attr configname General
attr datetime 20160823-13:05:24
attr experiment General
attr inifile hw5115/scenario_B/bus.ini
attr iterationvars "$net=bus, $rep=0, $a=0.8, $F=nrr, $D=wfc0.01, $R=lru, $window=60, $variance=0.05, $mytime=600, $test=test"
attr iterationvars2 "$net=bus, $rep=0, $a=0.8, $F=nrr, $D=wfc0.01, $R=lru, $window=60, $variance=0.05, $mytime=600, $test=test, $repetition=0"
attr measurement "$net=bus, $rep=0, $a=0.8, $F=nrr, $D=wfc0.01, $R=lru, $window=60, $variance=0.05, $mytime=600, $test=test"
attr mytime 600
attr net bus
attr network networks.${net=bus}_network
attr processid 12979
attr rep 0
attr repetition 0
attr replication #0
attr resultdir results
attr runnumber 39
attr seedset 0
attr test test
attr variance 0.05
attr window 60

scalar . 	a 	0.8
scalar . 	mytime 	600
scalar . 	rep 	0
scalar . 	variance 	0.05
scalar . 	window 	60
scalar bus_network.content_distribution 	repo-0 	9
scalar bus_network.content_distribution 	client-0 	5
scalar bus_network.content_distribution 	client-1 	8
scalar bus_network.content_distribution 	client-2 	9
scalar bus_network.content_distribution 	client-3 	0
scalar bus_network.content_distribution 	client-4 	1
scalar bus_network.content_distribution 	client-5 	7
scalar bus_network.content_distribution 	client-6 	6
scalar bus_network.content_distribution 	client-7 	2
scalar bus_network.content_distribution 	client-8 	4
scalar bus_network.content_distribution 	client-9 	3
scalar bus_network.content_distribution 	repo-0_card 	100000
scalar bus_network.content_distribution 	repo-0_price 	0
scalar bus_network.statistics 	stabilization_time 	1694.4
scalar bus_network.statistics 	p_hit 	0.066469321250145
scalar bus_network.statistics 	interests 	55890.7
scalar bus_network.statistics 	data 	43878.8
scalar bus_network.statistics 	hdistance 	4.4386980160196
scalar bus_network.statistics 	avg_time 	0.007301030832
scalar bus_network.statistics 	downloads 	120117
scalar bus_network.statistics 	total_cost 	0
scalar bus_network.statistics 	total_replicas 	100000
scalar bus_network.statistics 	inner_hit 	0.21188507871492
scalar bus_network.node[0].core_layer 	interests[0] 	12554
scalar bus_network.node[0].core_layer 	data[0] 	10183
scalar bus_network.node[0].core_layer 	repo_int[0] 	94666
scalar bus_network.node[0].content_store 	p_hit[0] 	0.18886410705751
scalar bus_network.node[0].content_store 	hits[0] 	2371
scalar bus_network.node[0].content_store 	misses[0] 	10183
scalar bus_network.node[0].content_store 	decision_yes[0] 	104
scalar bus_network.node[0].content_store 	decision_no[0] 	10079
scalar bus_network.node[0].content_store 	decision_ratio[0] 	0.010213100265148
scalar bus_network.node[1].core_layer 	interests[1] 	23153
scalar bus_network.node[1].core_layer 	data[1] 	20607
scalar bus_network.node[1].content_store 	p_hit[1] 	0.10992096056667
scalar bus_network.node[1].content_store 	hits[1] 	2545
scalar bus_network.node[1].content_store 	misses[1] 	20608
scalar bus_network.node[1].content_store 	decision_yes[1] 	288
scalar bus_network.node[1].content_store 	decision_no[1] 	20319
scalar bus_network.node[1].content_store 	decision_ratio[1] 	0.013975833454651
scalar bus_network.node[2].core_layer 	interests[2] 	33219
scalar bus_network.node[2].core_layer 	data[2] 	30339
scalar bus_network.node[2].content_store 	p_hit[2] 	0.08666726873175
scalar bus_network.node[2].content_store 	hits[2] 	2879
scalar bus_network.node[2].content_store 	misses[2] 	30340
scalar bus_network.node[2].content_store 	decision_yes[2] 	363
scalar bus_network.node[2].content_store 	decision_no[2] 	29976
scalar bus_network.node[2].content_store 	decision_ratio[2] 	0.011964797785029
scalar bus_network.node[3].core_layer 	interests[3] 	43278
scalar bus_network.node[3].core_layer 	data[3] 	40320
scalar bus_network.node[3].content_store 	p_hit[3] 	0.068348814640233
scalar bus_network.node[3].content_store 	hits[3] 	2958
scalar bus_network.node[3].content_store 	misses[3] 	40320
scalar bus_network.node[3].content_store 	decision_yes[3] 	472
scalar bus_network.node[3].content_store 	decision_no[3] 	39848
scalar bus_network.node[3].content_store 	decision_ratio[3] 	0.011706349206349
scalar bus_network.node[4].core_layer 	interests[4] 	52549
scalar bus_network.node[4].core_layer 	data[4] 	49746
scalar bus_network.node[4].content_store 	p_hit[4] 	0.053340691545034
scalar bus_network.node[4].content_store 	hits[4] 	2803
scalar bus_network.node[4].content_store 	misses[4] 	49746
scalar bus_network.node[4].content_store 	decision_yes[4] 	591
scalar bus_network.node[4].content_store 	decision_no[4] 	49155
scalar bus_network.node[4].content_store 	decision_ratio[4] 	0.011880352189121
scalar bus_network.node[5].core_layer 	interests[5] 	61395
scalar bus_network.node[5].core_layer 	data[5] 	58622
scalar bus_network.node[5].content_store 	p_hit[5] 	0.045133968564215
scalar bus_network.node[5].content_store 	hits[5] 	2771
scalar bus_network.node[5].content_store 	misses[5] 	58624
scalar bus_network.node[5].content_store 	decision_yes[5] 	678
scalar bus_network.node[5].content_store 	decision_no[5] 	57944
scalar bus_network.node[5].content_store 	decision_ratio[5] 	0.011565623827232
scalar bus_network.node[6].core_layer 	interests[6] 	69967
scalar bus_network.node[6].core_layer 	data[6] 	67414
scalar bus_network.node[6].content_store 	p_hit[6] 	0.036474337902154
scalar bus_network.node[6].content_store 	hits[6] 	2552
scalar bus_network.node[6].content_store 	misses[6] 	67415
scalar bus_network.node[6].content_store 	decision_yes[6] 	674
scalar bus_network.node[6].content_store 	decision_no[6] 	66740
scalar bus_network.node[6].content_store 	decision_ratio[6] 	0.0099979232800309
scalar bus_network.node[7].core_layer 	interests[7] 	78684
scalar bus_network.node[7].core_layer 	data[7] 	76237
scalar bus_network.node[7].content_store 	p_hit[7] 	0.031099079863759
scalar bus_network.node[7].content_store 	hits[7] 	2447
scalar bus_network.node[7].content_store 	misses[7] 	76237
scalar bus_network.node[7].content_store 	decision_yes[7] 	768
scalar bus_network.node[7].content_store 	decision_no[7] 	75469
scalar bus_network.node[7].content_store 	decision_ratio[7] 	0.010073848656164
scalar bus_network.node[8].core_layer 	interests[8] 	87345
scalar bus_network.node[8].core_layer 	data[8] 	85320
scalar bus_network.node[8].content_store 	p_hit[8] 	0.023172476959185
scalar bus_network.node[8].content_store 	hits[8] 	2024
scalar bus_network.node[8].content_store 	misses[8] 	85321
scalar bus_network.node[8].content_store 	decision_yes[8] 	882
scalar bus_network.node[8].content_store 	decision_no[8] 	84438
scalar bus_network.node[8].content_store 	decision_ratio[8] 	0.010337552742616
scalar bus_network.node[9].core_layer 	interests[9] 	96763
scalar bus_network.node[9].core_layer 	repo_load[9] 	94666
scalar bus_network.node[9].core_layer 	data[9] 	0
scalar bus_network.node[9].content_store 	p_hit[9] 	0.021671506670938
scalar bus_network.node[9].content_store 	hits[9] 	2097
scalar bus_network.node[9].content_store 	misses[9] 	94666
scalar bus_network.node[9].content_store 	decision_yes[9] 	1430
scalar bus_network.node[9].content_store 	decision_no[9] 	93236
scalar bus_network.node[9].content_store 	decision_ratio[9] 	0.015105740181269
scalar bus_network.client[0] 	hdistance[0] 	7.9706832298137
scalar bus_network.client[0] 	downloads[0] 	12075
scalar bus_network.client[0] 	avg_time[0] 	0.014420700918
scalar bus_network.client[1] 	hdistance[1] 	7.1725842326386
scalar bus_network.client[1] 	downloads[1] 	12139
scalar bus_network.client[1] 	avg_time[1] 	0.012814776866
scalar bus_network.client[2] 	hdistance[2] 	6.3056757444642
scalar bus_network.client[2] 	downloads[2] 	11787
scalar bus_network.client[2] 	avg_time[2] 	0.011100999638
scalar bus_network.client[3] 	hdistance[3] 	5.5772230889235
scalar bus_network.client[3] 	downloads[3] 	12179
scalar bus_network.client[3] 	avg_time[3] 	0.009627140093
scalar bus_network.client[4] 	hdistance[4] 	4.7743064233941
scalar bus_network.client[4] 	downloads[4] 	12003
scalar bus_network.client[4] 	avg_time[4] 	0.008037411599
scalar bus_network.client[5] 	hdistance[5] 	4.0404759909494
scalar bus_network.client[5] 	downloads[5] 	11933
scalar bus_network.client[5] 	avg_time[5] 	0.006562024394
scalar bus_network.client[6] 	hdistance[6] 	3.3417552078976
scalar bus_network.client[6] 	downloads[6] 	11953
scalar bus_network.client[6] 	avg_time[6] 	0.005128082029
scalar bus_network.client[7] 	hdistance[7] 	2.5344986200552
scalar bus_network.client[7] 	downloads[7] 	11957
scalar bus_network.client[7] 	avg_time[7] 	0.003477792449
scalar bus_network.client[8] 	hdistance[8] 	1.753262947876
scalar bus_network.client[8] 	downloads[8] 	12029
scalar bus_network.client[8] 	avg_time[8] 	0.001841380339
scalar bus_network.client[9] 	hdistance[9] 	0.91651467418339
scalar bus_network.client[9] 	downloads[9] 	12062
scalar bus_network.client[9] 	avg_time[9] 	0
