version 2
run General-72-20160822-10:51:28-13100
attr D lce
attr F nrr
attr R lru
attr a 0.9
attr configname General
attr datetime 20160822-10:51:28
attr experiment General
attr inifile hw5115/scenario_B/bus.ini
attr iterationvars "$net=bus, $rep=0, $a=0.9, $F=nrr, $D=lce, $R=lru, $window=60, $variance=0.05, $mytime=600"
attr iterationvars2 "$net=bus, $rep=0, $a=0.9, $F=nrr, $D=lce, $R=lru, $window=60, $variance=0.05, $mytime=600, $repetition=0"
attr measurement "$net=bus, $rep=0, $a=0.9, $F=nrr, $D=lce, $R=lru, $window=60, $variance=0.05, $mytime=600"
attr mytime 600
attr net bus
attr network networks.${net=bus}_network
attr processid 13100
attr rep 0
attr repetition 0
attr replication #0
attr resultdir results
attr runnumber 72
attr seedset 0
attr variance 0.05
attr window 60

scalar . 	a 	0.9
scalar . 	mytime 	600
scalar . 	rep 	0
scalar . 	variance 	0.05
scalar . 	window 	60
scalar bus_network.content_distribution 	repo-0 	9
scalar bus_network.content_distribution 	client-0 	5
scalar bus_network.content_distribution 	client-1 	8
scalar bus_network.content_distribution 	client-2 	9
scalar bus_network.content_distribution 	client-3 	0
scalar bus_network.content_distribution 	client-4 	1
scalar bus_network.content_distribution 	client-5 	7
scalar bus_network.content_distribution 	client-6 	6
scalar bus_network.content_distribution 	client-7 	2
scalar bus_network.content_distribution 	client-8 	4
scalar bus_network.content_distribution 	client-9 	3
scalar bus_network.content_distribution 	repo-0_card 	100000
scalar bus_network.content_distribution 	repo-0_price 	0
scalar bus_network.statistics 	stabilization_time 	406.8
scalar bus_network.statistics 	p_hit 	0.07218837512009
scalar bus_network.statistics 	interests 	55581.7
scalar bus_network.statistics 	data 	43611.2
scalar bus_network.statistics 	hdistance 	4.4432962987596
scalar bus_network.statistics 	avg_time 	0.00728923327
scalar bus_network.statistics 	downloads 	119697
scalar bus_network.statistics 	total_cost 	0
scalar bus_network.statistics 	total_replicas 	100000
scalar bus_network.statistics 	inner_hit 	0.20222729057537
scalar bus_network.node[0].core_layer 	interests[0] 	13430
scalar bus_network.node[0].core_layer 	data[0] 	9999
scalar bus_network.node[0].core_layer 	repo_int[0] 	95491
scalar bus_network.node[0].content_store 	p_hit[0] 	0.25532390171258
scalar bus_network.node[0].content_store 	hits[0] 	3429
scalar bus_network.node[0].content_store 	misses[0] 	10001
scalar bus_network.node[0].content_store 	decision_yes[0] 	9999
scalar bus_network.node[0].content_store 	decision_no[0] 	0
scalar bus_network.node[0].content_store 	decision_ratio[0] 	1
scalar bus_network.node[1].core_layer 	interests[1] 	23728
scalar bus_network.node[1].core_layer 	data[1] 	20436
scalar bus_network.node[1].content_store 	p_hit[1] 	0.1385704652731
scalar bus_network.node[1].content_store 	hits[1] 	3288
scalar bus_network.node[1].content_store 	misses[1] 	20440
scalar bus_network.node[1].content_store 	decision_yes[1] 	20433
scalar bus_network.node[1].content_store 	decision_no[1] 	0
scalar bus_network.node[1].content_store 	decision_ratio[1] 	1
scalar bus_network.node[2].core_layer 	interests[2] 	33378
scalar bus_network.node[2].core_layer 	data[2] 	30307
scalar bus_network.node[2].content_store 	p_hit[2] 	0.091826951884475
scalar bus_network.node[2].content_store 	hits[2] 	3065
scalar bus_network.node[2].content_store 	misses[2] 	30313
scalar bus_network.node[2].content_store 	decision_yes[2] 	30304
scalar bus_network.node[2].content_store 	decision_no[2] 	0
scalar bus_network.node[2].content_store 	decision_ratio[2] 	1
scalar bus_network.node[3].core_layer 	interests[3] 	42614
scalar bus_network.node[3].core_layer 	data[3] 	39945
scalar bus_network.node[3].content_store 	p_hit[3] 	0.062420800675834
scalar bus_network.node[3].content_store 	hits[3] 	2660
scalar bus_network.node[3].content_store 	misses[3] 	39954
scalar bus_network.node[3].content_store 	decision_yes[3] 	39939
scalar bus_network.node[3].content_store 	decision_no[3] 	0
scalar bus_network.node[3].content_store 	decision_ratio[3] 	1
scalar bus_network.node[4].core_layer 	interests[4] 	51546
scalar bus_network.node[4].core_layer 	data[4] 	48902
scalar bus_network.node[4].content_store 	p_hit[4] 	0.051177588949676
scalar bus_network.node[4].content_store 	hits[4] 	2638
scalar bus_network.node[4].content_store 	misses[4] 	48908
scalar bus_network.node[4].content_store 	decision_yes[4] 	48895
scalar bus_network.node[4].content_store 	decision_no[4] 	0
scalar bus_network.node[4].content_store 	decision_ratio[4] 	1
scalar bus_network.node[5].core_layer 	interests[5] 	60179
scalar bus_network.node[5].core_layer 	data[5] 	57960
scalar bus_network.node[5].content_store 	p_hit[5] 	0.036806859535718
scalar bus_network.node[5].content_store 	hits[5] 	2215
scalar bus_network.node[5].content_store 	misses[5] 	57964
scalar bus_network.node[5].content_store 	decision_yes[5] 	57953
scalar bus_network.node[5].content_store 	decision_no[5] 	0
scalar bus_network.node[5].content_store 	decision_ratio[5] 	1
scalar bus_network.node[6].core_layer 	interests[6] 	68895
scalar bus_network.node[6].core_layer 	data[6] 	66820
scalar bus_network.node[6].content_store 	p_hit[6] 	0.030016692067639
scalar bus_network.node[6].content_store 	hits[6] 	2068
scalar bus_network.node[6].content_store 	misses[6] 	66827
scalar bus_network.node[6].content_store 	decision_yes[6] 	66814
scalar bus_network.node[6].content_store 	decision_no[6] 	0
scalar bus_network.node[6].content_store 	decision_ratio[6] 	1
scalar bus_network.node[7].core_layer 	interests[7] 	77957
scalar bus_network.node[7].core_layer 	data[7] 	76108
scalar bus_network.node[7].content_store 	p_hit[7] 	0.023628410534012
scalar bus_network.node[7].content_store 	hits[7] 	1842
scalar bus_network.node[7].content_store 	misses[7] 	76115
scalar bus_network.node[7].content_store 	decision_yes[7] 	76104
scalar bus_network.node[7].content_store 	decision_no[7] 	0
scalar bus_network.node[7].content_store 	decision_ratio[7] 	1
scalar bus_network.node[8].core_layer 	interests[8] 	87009
scalar bus_network.node[8].core_layer 	data[8] 	85635
scalar bus_network.node[8].content_store 	p_hit[8] 	0.015734004528267
scalar bus_network.node[8].content_store 	hits[8] 	1369
scalar bus_network.node[8].content_store 	misses[8] 	85640
scalar bus_network.node[8].content_store 	decision_yes[8] 	85634
scalar bus_network.node[8].content_store 	decision_no[8] 	0
scalar bus_network.node[8].content_store 	decision_ratio[8] 	1
scalar bus_network.node[9].core_layer 	interests[9] 	97081
scalar bus_network.node[9].core_layer 	repo_load[9] 	95491
scalar bus_network.node[9].core_layer 	data[9] 	0
scalar bus_network.node[9].content_store 	p_hit[9] 	0.016378076039596
scalar bus_network.node[9].content_store 	hits[9] 	1590
scalar bus_network.node[9].content_store 	misses[9] 	95491
scalar bus_network.node[9].content_store 	decision_yes[9] 	95491
scalar bus_network.node[9].content_store 	decision_no[9] 	0
scalar bus_network.node[9].content_store 	decision_ratio[9] 	1
scalar bus_network.client[0] 	hdistance[0] 	7.8026913233716
scalar bus_network.client[0] 	downloads[0] 	12113
scalar bus_network.client[0] 	avg_time[0] 	0.014082445435
scalar bus_network.client[1] 	hdistance[1] 	6.9952263234166
scalar bus_network.client[1] 	downloads[1] 	11731
scalar bus_network.client[1] 	avg_time[1] 	0.012473322004
scalar bus_network.client[2] 	hdistance[2] 	6.253134730287
scalar bus_network.client[2] 	downloads[2] 	11883
scalar bus_network.client[2] 	avg_time[2] 	0.0109865451
scalar bus_network.client[3] 	hdistance[3] 	5.5824669383681
scalar bus_network.client[3] 	downloads[3] 	12023
scalar bus_network.client[3] 	avg_time[3] 	0.009630804824
scalar bus_network.client[4] 	hdistance[4] 	4.8243967828418
scalar bus_network.client[4] 	downloads[4] 	11936
scalar bus_network.client[4] 	avg_time[4] 	0.008132854327
scalar bus_network.client[5] 	hdistance[5] 	4.173271813463
scalar bus_network.client[5] 	downloads[5] 	12137
scalar bus_network.client[5] 	avg_time[5] 	0.00681114967
scalar bus_network.client[6] 	hdistance[6] 	3.4230833333333
scalar bus_network.client[6] 	downloads[6] 	12000
scalar bus_network.client[6] 	avg_time[6] 	0.005248975084
scalar bus_network.client[7] 	hdistance[7] 	2.6405537594297
scalar bus_network.client[7] 	downloads[7] 	12063
scalar bus_network.client[7] 	avg_time[7] 	0.003630711258
scalar bus_network.client[8] 	hdistance[8] 	1.8153638814016
scalar bus_network.client[8] 	downloads[8] 	11872
scalar bus_network.client[8] 	avg_time[8] 	0.001895524998
scalar bus_network.client[9] 	hdistance[9] 	0.92277410168356
scalar bus_network.client[9] 	downloads[9] 	11939
scalar bus_network.client[9] 	avg_time[9] 	0
