version 2
run General-180-20160819-13:53:21-2054
attr a 0.9
attr cd lcd
attr configname General
attr cr lru
attr datetime 20160819-13:53:21
attr experiment General
attr fsize 1
attr inifile hw5115/scenario_A/NRR-LCD.ini
attr iterationvars "$name=tree_4_3, $un=09, $rep=1, $cd=lcd, $cr=lru, $fsize=1, $a=0.9, $sl=nrr, $ttl=1000, $variance=0.05"
attr iterationvars2 "$name=tree_4_3, $un=09, $rep=1, $cd=lcd, $cr=lru, $fsize=1, $a=0.9, $sl=nrr, $ttl=1000, $variance=0.05, $repetition=0"
attr measurement "$name=tree_4_3, $un=09, $rep=1, $cd=lcd, $cr=lru, $fsize=1, $a=0.9, $sl=nrr, $ttl=1000, $variance=0.05"
attr name tree_4_3
attr network networks.${name}_u${un}_r${rep}_network
attr processid 2054
attr rep 1
attr repetition 0
attr replication #0
attr resultdir results
attr runnumber 180
attr seedset 1
attr sl nrr
attr ttl 1000
attr un 09
attr variance 0.05

scalar . 	a 	0.9
scalar . 	fsize 	1
scalar . 	rep 	1
scalar . 	ttl 	1000
scalar . 	un 	09
scalar . 	variance 	0.05
scalar tree_4_3_u09_r1_network.content_distribution 	repo-0 	0
scalar tree_4_3_u09_r1_network.content_distribution 	client-0 	13
scalar tree_4_3_u09_r1_network.content_distribution 	client-1 	14
scalar tree_4_3_u09_r1_network.content_distribution 	client-2 	15
scalar tree_4_3_u09_r1_network.content_distribution 	client-3 	16
scalar tree_4_3_u09_r1_network.content_distribution 	client-4 	17
scalar tree_4_3_u09_r1_network.content_distribution 	client-5 	18
scalar tree_4_3_u09_r1_network.content_distribution 	client-6 	19
scalar tree_4_3_u09_r1_network.content_distribution 	client-7 	20
scalar tree_4_3_u09_r1_network.content_distribution 	client-8 	21
scalar tree_4_3_u09_r1_network.content_distribution 	client-9 	22
scalar tree_4_3_u09_r1_network.content_distribution 	client-10 	23
scalar tree_4_3_u09_r1_network.content_distribution 	client-11 	24
scalar tree_4_3_u09_r1_network.content_distribution 	client-12 	25
scalar tree_4_3_u09_r1_network.content_distribution 	client-13 	26
scalar tree_4_3_u09_r1_network.content_distribution 	client-14 	27
scalar tree_4_3_u09_r1_network.content_distribution 	client-15 	28
scalar tree_4_3_u09_r1_network.content_distribution 	client-16 	29
scalar tree_4_3_u09_r1_network.content_distribution 	client-17 	30
scalar tree_4_3_u09_r1_network.content_distribution 	client-18 	31
scalar tree_4_3_u09_r1_network.content_distribution 	client-19 	32
scalar tree_4_3_u09_r1_network.content_distribution 	client-20 	33
scalar tree_4_3_u09_r1_network.content_distribution 	client-21 	34
scalar tree_4_3_u09_r1_network.content_distribution 	client-22 	35
scalar tree_4_3_u09_r1_network.content_distribution 	client-23 	36
scalar tree_4_3_u09_r1_network.content_distribution 	client-24 	37
scalar tree_4_3_u09_r1_network.content_distribution 	client-25 	38
scalar tree_4_3_u09_r1_network.content_distribution 	client-26 	39
scalar tree_4_3_u09_r1_network.content_distribution 	repo-0_card 	100000
scalar tree_4_3_u09_r1_network.content_distribution 	repo-0_price 	0
scalar tree_4_3_u09_r1_network.statistics 	stabilization_time 	702.8
scalar tree_4_3_u09_r1_network.statistics 	p_hit 	0.22566783382866
scalar tree_4_3_u09_r1_network.statistics 	interests 	24736.825
scalar tree_4_3_u09_r1_network.statistics 	data 	16649.375
scalar tree_4_3_u09_r1_network.statistics 	hdistance 	2.6670207397989
scalar tree_4_3_u09_r1_network.statistics 	avg_time 	0.004117334192
scalar tree_4_3_u09_r1_network.statistics 	downloads 	323489
scalar tree_4_3_u09_r1_network.statistics 	total_cost 	0
scalar tree_4_3_u09_r1_network.statistics 	total_replicas 	100000
scalar tree_4_3_u09_r1_network.statistics 	inner_hit 	0.39167946978104
scalar tree_4_3_u09_r1_network.node[0].core_layer 	interests[0] 	198015
scalar tree_4_3_u09_r1_network.node[0].core_layer 	repo_load[0] 	196785
scalar tree_4_3_u09_r1_network.node[0].core_layer 	data[0] 	0
scalar tree_4_3_u09_r1_network.node[0].core_layer 	repo_int[0] 	196785
scalar tree_4_3_u09_r1_network.node[0].content_store 	p_hit[0] 	0.0062116506325278
scalar tree_4_3_u09_r1_network.node[0].content_store 	hits[0] 	1230
scalar tree_4_3_u09_r1_network.node[0].content_store 	misses[0] 	196785
scalar tree_4_3_u09_r1_network.node[0].content_store 	decision_yes[0] 	196785
scalar tree_4_3_u09_r1_network.node[0].content_store 	decision_no[0] 	0
scalar tree_4_3_u09_r1_network.node[0].content_store 	decision_ratio[0] 	1
scalar tree_4_3_u09_r1_network.node[1].core_layer 	interests[1] 	144264
scalar tree_4_3_u09_r1_network.node[1].core_layer 	data[1] 	141676
scalar tree_4_3_u09_r1_network.node[1].content_store 	p_hit[1] 	0.017925469971719
scalar tree_4_3_u09_r1_network.node[1].content_store 	hits[1] 	2586
scalar tree_4_3_u09_r1_network.node[1].content_store 	misses[1] 	141678
scalar tree_4_3_u09_r1_network.node[1].content_store 	decision_yes[1] 	2794
scalar tree_4_3_u09_r1_network.node[1].content_store 	decision_no[1] 	138881
scalar tree_4_3_u09_r1_network.node[1].content_store 	decision_ratio[1] 	0.019721192871008
scalar tree_4_3_u09_r1_network.node[2].core_layer 	interests[2] 	55781
scalar tree_4_3_u09_r1_network.node[2].core_layer 	data[2] 	53286
scalar tree_4_3_u09_r1_network.node[2].content_store 	p_hit[2] 	0.044692637277926
scalar tree_4_3_u09_r1_network.node[2].content_store 	hits[2] 	2493
scalar tree_4_3_u09_r1_network.node[2].content_store 	misses[2] 	53288
scalar tree_4_3_u09_r1_network.node[2].content_store 	decision_yes[2] 	1759
scalar tree_4_3_u09_r1_network.node[2].content_store 	decision_no[2] 	51527
scalar tree_4_3_u09_r1_network.node[2].content_store 	decision_ratio[2] 	0.033010546860339
scalar tree_4_3_u09_r1_network.node[3].core_layer 	interests[3] 	11252
scalar tree_4_3_u09_r1_network.node[3].core_layer 	data[3] 	8703
scalar tree_4_3_u09_r1_network.node[3].content_store 	p_hit[3] 	0.22653750444365
scalar tree_4_3_u09_r1_network.node[3].content_store 	hits[3] 	2549
scalar tree_4_3_u09_r1_network.node[3].content_store 	misses[3] 	8703
scalar tree_4_3_u09_r1_network.node[3].content_store 	decision_yes[3] 	1182
scalar tree_4_3_u09_r1_network.node[3].content_store 	decision_no[3] 	7521
scalar tree_4_3_u09_r1_network.node[3].content_store 	decision_ratio[3] 	0.13581523612547
scalar tree_4_3_u09_r1_network.node[4].core_layer 	interests[4] 	33800
scalar tree_4_3_u09_r1_network.node[4].core_layer 	data[4] 	32080
scalar tree_4_3_u09_r1_network.node[4].content_store 	p_hit[4] 	0.05085798816568
scalar tree_4_3_u09_r1_network.node[4].content_store 	hits[4] 	1719
scalar tree_4_3_u09_r1_network.node[4].content_store 	misses[4] 	32081
scalar tree_4_3_u09_r1_network.node[4].content_store 	decision_yes[4] 	1513
scalar tree_4_3_u09_r1_network.node[4].content_store 	decision_no[4] 	30567
scalar tree_4_3_u09_r1_network.node[4].content_store 	decision_ratio[4] 	0.047163341645885
scalar tree_4_3_u09_r1_network.node[5].core_layer 	interests[5] 	27428
scalar tree_4_3_u09_r1_network.node[5].core_layer 	data[5] 	24947
scalar tree_4_3_u09_r1_network.node[5].content_store 	p_hit[5] 	0.090418550386466
scalar tree_4_3_u09_r1_network.node[5].content_store 	hits[5] 	2480
scalar tree_4_3_u09_r1_network.node[5].content_store 	misses[5] 	24948
scalar tree_4_3_u09_r1_network.node[5].content_store 	decision_yes[5] 	2687
scalar tree_4_3_u09_r1_network.node[5].content_store 	decision_no[5] 	22260
scalar tree_4_3_u09_r1_network.node[5].content_store 	decision_ratio[5] 	0.10770834168437
scalar tree_4_3_u09_r1_network.node[6].core_layer 	interests[6] 	20617
scalar tree_4_3_u09_r1_network.node[6].core_layer 	data[6] 	17994
scalar tree_4_3_u09_r1_network.node[6].content_store 	p_hit[6] 	0.12722510549546
scalar tree_4_3_u09_r1_network.node[6].content_store 	hits[6] 	2623
scalar tree_4_3_u09_r1_network.node[6].content_store 	misses[6] 	17994
scalar tree_4_3_u09_r1_network.node[6].content_store 	decision_yes[6] 	2734
scalar tree_4_3_u09_r1_network.node[6].content_store 	decision_no[6] 	15260
scalar tree_4_3_u09_r1_network.node[6].content_store 	decision_ratio[6] 	0.15193953540069
scalar tree_4_3_u09_r1_network.node[7].core_layer 	interests[7] 	43222
scalar tree_4_3_u09_r1_network.node[7].core_layer 	data[7] 	40646
scalar tree_4_3_u09_r1_network.node[7].content_store 	p_hit[7] 	0.059599278145389
scalar tree_4_3_u09_r1_network.node[7].content_store 	hits[7] 	2576
scalar tree_4_3_u09_r1_network.node[7].content_store 	misses[7] 	40646
scalar tree_4_3_u09_r1_network.node[7].content_store 	decision_yes[7] 	3284
scalar tree_4_3_u09_r1_network.node[7].content_store 	decision_no[7] 	37362
scalar tree_4_3_u09_r1_network.node[7].content_store 	decision_ratio[7] 	0.080795158195148
scalar tree_4_3_u09_r1_network.node[8].core_layer 	interests[8] 	26565
scalar tree_4_3_u09_r1_network.node[8].core_layer 	data[8] 	24368
scalar tree_4_3_u09_r1_network.node[8].content_store 	p_hit[8] 	0.08266516092603
scalar tree_4_3_u09_r1_network.node[8].content_store 	hits[8] 	2196
scalar tree_4_3_u09_r1_network.node[8].content_store 	misses[8] 	24369
scalar tree_4_3_u09_r1_network.node[8].content_store 	decision_yes[8] 	1714
scalar tree_4_3_u09_r1_network.node[8].content_store 	decision_no[8] 	22654
scalar tree_4_3_u09_r1_network.node[8].content_store 	decision_ratio[8] 	0.070338148391333
scalar tree_4_3_u09_r1_network.node[9].core_layer 	interests[9] 	11422
scalar tree_4_3_u09_r1_network.node[9].core_layer 	data[9] 	9437
scalar tree_4_3_u09_r1_network.node[9].content_store 	p_hit[9] 	0.17378742777097
scalar tree_4_3_u09_r1_network.node[9].content_store 	hits[9] 	1985
scalar tree_4_3_u09_r1_network.node[9].content_store 	misses[9] 	9437
scalar tree_4_3_u09_r1_network.node[9].content_store 	decision_yes[9] 	1619
scalar tree_4_3_u09_r1_network.node[9].content_store 	decision_no[9] 	7818
scalar tree_4_3_u09_r1_network.node[9].content_store 	decision_ratio[9] 	0.1715587580799
scalar tree_4_3_u09_r1_network.node[10].core_layer 	interests[10] 	42765
scalar tree_4_3_u09_r1_network.node[10].core_layer 	data[10] 	40193
scalar tree_4_3_u09_r1_network.node[10].content_store 	p_hit[10] 	0.060095872793172
scalar tree_4_3_u09_r1_network.node[10].content_store 	hits[10] 	2570
scalar tree_4_3_u09_r1_network.node[10].content_store 	misses[10] 	40195
scalar tree_4_3_u09_r1_network.node[10].content_store 	decision_yes[10] 	2801
scalar tree_4_3_u09_r1_network.node[10].content_store 	decision_no[10] 	37392
scalar tree_4_3_u09_r1_network.node[10].content_store 	decision_ratio[10] 	0.069688751772697
scalar tree_4_3_u09_r1_network.node[11].core_layer 	interests[11] 	27607
scalar tree_4_3_u09_r1_network.node[11].core_layer 	data[11] 	25110
scalar tree_4_3_u09_r1_network.node[11].content_store 	p_hit[11] 	0.090448074763647
scalar tree_4_3_u09_r1_network.node[11].content_store 	hits[11] 	2497
scalar tree_4_3_u09_r1_network.node[11].content_store 	misses[11] 	25110
scalar tree_4_3_u09_r1_network.node[11].content_store 	decision_yes[11] 	2412
scalar tree_4_3_u09_r1_network.node[11].content_store 	decision_no[11] 	22698
scalar tree_4_3_u09_r1_network.node[11].content_store 	decision_ratio[11] 	0.096057347670251
scalar tree_4_3_u09_r1_network.node[12].core_layer 	interests[12] 	10881
scalar tree_4_3_u09_r1_network.node[12].core_layer 	data[12] 	8880
scalar tree_4_3_u09_r1_network.node[12].content_store 	p_hit[12] 	0.18389853873725
scalar tree_4_3_u09_r1_network.node[12].content_store 	hits[12] 	2001
scalar tree_4_3_u09_r1_network.node[12].content_store 	misses[12] 	8880
scalar tree_4_3_u09_r1_network.node[12].content_store 	decision_yes[12] 	1222
scalar tree_4_3_u09_r1_network.node[12].content_store 	decision_no[12] 	7658
scalar tree_4_3_u09_r1_network.node[12].content_store 	decision_ratio[12] 	0.13761261261261
scalar tree_4_3_u09_r1_network.node[13].core_layer 	interests[13] 	12450
scalar tree_4_3_u09_r1_network.node[13].core_layer 	data[13] 	8986
scalar tree_4_3_u09_r1_network.node[13].content_store 	p_hit[13] 	0.27815261044177
scalar tree_4_3_u09_r1_network.node[13].content_store 	hits[13] 	3463
scalar tree_4_3_u09_r1_network.node[13].content_store 	misses[13] 	8987
scalar tree_4_3_u09_r1_network.node[13].content_store 	decision_yes[13] 	365
scalar tree_4_3_u09_r1_network.node[13].content_store 	decision_no[13] 	8621
scalar tree_4_3_u09_r1_network.node[13].content_store 	decision_ratio[13] 	0.040618740262631
scalar tree_4_3_u09_r1_network.node[14].core_layer 	interests[14] 	12540
scalar tree_4_3_u09_r1_network.node[14].core_layer 	data[14] 	8944
scalar tree_4_3_u09_r1_network.node[14].content_store 	p_hit[14] 	0.28676236044657
scalar tree_4_3_u09_r1_network.node[14].content_store 	hits[14] 	3596
scalar tree_4_3_u09_r1_network.node[14].content_store 	misses[14] 	8944
scalar tree_4_3_u09_r1_network.node[14].content_store 	decision_yes[14] 	697
scalar tree_4_3_u09_r1_network.node[14].content_store 	decision_no[14] 	8247
scalar tree_4_3_u09_r1_network.node[14].content_store 	decision_ratio[14] 	0.077929338103757
scalar tree_4_3_u09_r1_network.node[15].core_layer 	interests[15] 	12624
scalar tree_4_3_u09_r1_network.node[15].core_layer 	data[15] 	8947
scalar tree_4_3_u09_r1_network.node[15].content_store 	p_hit[15] 	0.29127059569075
scalar tree_4_3_u09_r1_network.node[15].content_store 	hits[15] 	3677
scalar tree_4_3_u09_r1_network.node[15].content_store 	misses[15] 	8947
scalar tree_4_3_u09_r1_network.node[15].content_store 	decision_yes[15] 	705
scalar tree_4_3_u09_r1_network.node[15].content_store 	decision_no[15] 	8242
scalar tree_4_3_u09_r1_network.node[15].content_store 	decision_ratio[15] 	0.078797362244328
scalar tree_4_3_u09_r1_network.node[16].core_layer 	interests[16] 	12643
scalar tree_4_3_u09_r1_network.node[16].core_layer 	data[16] 	9008
scalar tree_4_3_u09_r1_network.node[16].content_store 	p_hit[16] 	0.28751087558333
scalar tree_4_3_u09_r1_network.node[16].content_store 	hits[16] 	3635
scalar tree_4_3_u09_r1_network.node[16].content_store 	misses[16] 	9008
scalar tree_4_3_u09_r1_network.node[16].content_store 	decision_yes[16] 	718
scalar tree_4_3_u09_r1_network.node[16].content_store 	decision_no[16] 	8290
scalar tree_4_3_u09_r1_network.node[16].content_store 	decision_ratio[16] 	0.079706927175844
scalar tree_4_3_u09_r1_network.node[17].core_layer 	interests[17] 	12137
scalar tree_4_3_u09_r1_network.node[17].core_layer 	data[17] 	8684
scalar tree_4_3_u09_r1_network.node[17].content_store 	p_hit[17] 	0.28450193622806
scalar tree_4_3_u09_r1_network.node[17].content_store 	hits[17] 	3453
scalar tree_4_3_u09_r1_network.node[17].content_store 	misses[17] 	8684
scalar tree_4_3_u09_r1_network.node[17].content_store 	decision_yes[17] 	394
scalar tree_4_3_u09_r1_network.node[17].content_store 	decision_no[17] 	8290
scalar tree_4_3_u09_r1_network.node[17].content_store 	decision_ratio[17] 	0.045370796867803
scalar tree_4_3_u09_r1_network.node[18].core_layer 	interests[18] 	12518
scalar tree_4_3_u09_r1_network.node[18].core_layer 	data[18] 	8779
scalar tree_4_3_u09_r1_network.node[18].content_store 	p_hit[18] 	0.29868988656335
scalar tree_4_3_u09_r1_network.node[18].content_store 	hits[18] 	3739
scalar tree_4_3_u09_r1_network.node[18].content_store 	misses[18] 	8779
scalar tree_4_3_u09_r1_network.node[18].content_store 	decision_yes[18] 	751
scalar tree_4_3_u09_r1_network.node[18].content_store 	decision_no[18] 	8028
scalar tree_4_3_u09_r1_network.node[18].content_store 	decision_ratio[18] 	0.085545050689145
scalar tree_4_3_u09_r1_network.node[19].core_layer 	interests[19] 	12323
scalar tree_4_3_u09_r1_network.node[19].core_layer 	data[19] 	8778
scalar tree_4_3_u09_r1_network.node[19].content_store 	p_hit[19] 	0.28767345613893
scalar tree_4_3_u09_r1_network.node[19].content_store 	hits[19] 	3545
scalar tree_4_3_u09_r1_network.node[19].content_store 	misses[19] 	8778
scalar tree_4_3_u09_r1_network.node[19].content_store 	decision_yes[19] 	443
scalar tree_4_3_u09_r1_network.node[19].content_store 	decision_no[19] 	8335
scalar tree_4_3_u09_r1_network.node[19].content_store 	decision_ratio[19] 	0.050467076782866
scalar tree_4_3_u09_r1_network.node[20].core_layer 	interests[20] 	12629
scalar tree_4_3_u09_r1_network.node[20].core_layer 	data[20] 	8845
scalar tree_4_3_u09_r1_network.node[20].content_store 	p_hit[20] 	0.29954865785098
scalar tree_4_3_u09_r1_network.node[20].content_store 	hits[20] 	3783
scalar tree_4_3_u09_r1_network.node[20].content_store 	misses[20] 	8846
scalar tree_4_3_u09_r1_network.node[20].content_store 	decision_yes[20] 	731
scalar tree_4_3_u09_r1_network.node[20].content_store 	decision_no[20] 	8114
scalar tree_4_3_u09_r1_network.node[20].content_store 	decision_ratio[20] 	0.082645562464669
scalar tree_4_3_u09_r1_network.node[21].core_layer 	interests[21] 	12463
scalar tree_4_3_u09_r1_network.node[21].core_layer 	data[21] 	8882
scalar tree_4_3_u09_r1_network.node[21].content_store 	p_hit[21] 	0.28733049827489
scalar tree_4_3_u09_r1_network.node[21].content_store 	hits[21] 	3581
scalar tree_4_3_u09_r1_network.node[21].content_store 	misses[21] 	8882
scalar tree_4_3_u09_r1_network.node[21].content_store 	decision_yes[21] 	437
scalar tree_4_3_u09_r1_network.node[21].content_store 	decision_no[21] 	8445
scalar tree_4_3_u09_r1_network.node[21].content_store 	decision_ratio[21] 	0.049200630488629
scalar tree_4_3_u09_r1_network.node[22].core_layer 	interests[22] 	12338
scalar tree_4_3_u09_r1_network.node[22].core_layer 	data[22] 	8810
scalar tree_4_3_u09_r1_network.node[22].content_store 	p_hit[22] 	0.28594585832388
scalar tree_4_3_u09_r1_network.node[22].content_store 	hits[22] 	3528
scalar tree_4_3_u09_r1_network.node[22].content_store 	misses[22] 	8810
scalar tree_4_3_u09_r1_network.node[22].content_store 	decision_yes[22] 	387
scalar tree_4_3_u09_r1_network.node[22].content_store 	decision_no[22] 	8423
scalar tree_4_3_u09_r1_network.node[22].content_store 	decision_ratio[22] 	0.043927355278093
scalar tree_4_3_u09_r1_network.node[23].core_layer 	interests[23] 	12663
scalar tree_4_3_u09_r1_network.node[23].core_layer 	data[23] 	8895
scalar tree_4_3_u09_r1_network.node[23].content_store 	p_hit[23] 	0.29755981994788
scalar tree_4_3_u09_r1_network.node[23].content_store 	hits[23] 	3768
scalar tree_4_3_u09_r1_network.node[23].content_store 	misses[23] 	8895
scalar tree_4_3_u09_r1_network.node[23].content_store 	decision_yes[23] 	773
scalar tree_4_3_u09_r1_network.node[23].content_store 	decision_no[23] 	8122
scalar tree_4_3_u09_r1_network.node[23].content_store 	decision_ratio[23] 	0.08690275435638
scalar tree_4_3_u09_r1_network.node[24].core_layer 	interests[24] 	12237
scalar tree_4_3_u09_r1_network.node[24].core_layer 	data[24] 	8605
scalar tree_4_3_u09_r1_network.node[24].content_store 	p_hit[24] 	0.29672305303587
scalar tree_4_3_u09_r1_network.node[24].content_store 	hits[24] 	3631
scalar tree_4_3_u09_r1_network.node[24].content_store 	misses[24] 	8606
scalar tree_4_3_u09_r1_network.node[24].content_store 	decision_yes[24] 	435
scalar tree_4_3_u09_r1_network.node[24].content_store 	decision_no[24] 	8170
scalar tree_4_3_u09_r1_network.node[24].content_store 	decision_ratio[24] 	0.05055200464846
scalar tree_4_3_u09_r1_network.node[25].core_layer 	interests[25] 	12606
scalar tree_4_3_u09_r1_network.node[25].core_layer 	data[25] 	8830
scalar tree_4_3_u09_r1_network.node[25].content_store 	p_hit[25] 	0.29953990163414
scalar tree_4_3_u09_r1_network.node[25].content_store 	hits[25] 	3776
scalar tree_4_3_u09_r1_network.node[25].content_store 	misses[25] 	8830
scalar tree_4_3_u09_r1_network.node[25].content_store 	decision_yes[25] 	745
scalar tree_4_3_u09_r1_network.node[25].content_store 	decision_no[25] 	8085
scalar tree_4_3_u09_r1_network.node[25].content_store 	decision_ratio[25] 	0.084371460928652
scalar tree_4_3_u09_r1_network.node[26].core_layer 	interests[26] 	12352
scalar tree_4_3_u09_r1_network.node[26].core_layer 	data[26] 	8833
scalar tree_4_3_u09_r1_network.node[26].content_store 	p_hit[26] 	0.28489313471503
scalar tree_4_3_u09_r1_network.node[26].content_store 	hits[26] 	3519
scalar tree_4_3_u09_r1_network.node[26].content_store 	misses[26] 	8833
scalar tree_4_3_u09_r1_network.node[26].content_store 	decision_yes[26] 	394
scalar tree_4_3_u09_r1_network.node[26].content_store 	decision_no[26] 	8439
scalar tree_4_3_u09_r1_network.node[26].content_store 	decision_ratio[26] 	0.044605456809691
scalar tree_4_3_u09_r1_network.node[27].core_layer 	interests[27] 	12386
scalar tree_4_3_u09_r1_network.node[27].core_layer 	data[27] 	8859
scalar tree_4_3_u09_r1_network.node[27].content_store 	p_hit[27] 	0.28475698369126
scalar tree_4_3_u09_r1_network.node[27].content_store 	hits[27] 	3527
scalar tree_4_3_u09_r1_network.node[27].content_store 	misses[27] 	8859
scalar tree_4_3_u09_r1_network.node[27].content_store 	decision_yes[27] 	742
scalar tree_4_3_u09_r1_network.node[27].content_store 	decision_no[27] 	8117
scalar tree_4_3_u09_r1_network.node[27].content_store 	decision_ratio[27] 	0.083756631674004
scalar tree_4_3_u09_r1_network.node[28].core_layer 	interests[28] 	12737
scalar tree_4_3_u09_r1_network.node[28].core_layer 	data[28] 	8977
scalar tree_4_3_u09_r1_network.node[28].content_store 	p_hit[28] 	0.29520295202952
scalar tree_4_3_u09_r1_network.node[28].content_store 	hits[28] 	3760
scalar tree_4_3_u09_r1_network.node[28].content_store 	misses[28] 	8977
scalar tree_4_3_u09_r1_network.node[28].content_store 	decision_yes[28] 	708
scalar tree_4_3_u09_r1_network.node[28].content_store 	decision_no[28] 	8269
scalar tree_4_3_u09_r1_network.node[28].content_store 	decision_ratio[28] 	0.07886821878133
scalar tree_4_3_u09_r1_network.node[29].core_layer 	interests[29] 	12415
scalar tree_4_3_u09_r1_network.node[29].core_layer 	data[29] 	8814
scalar tree_4_3_u09_r1_network.node[29].content_store 	p_hit[29] 	0.29005235602094
scalar tree_4_3_u09_r1_network.node[29].content_store 	hits[29] 	3601
scalar tree_4_3_u09_r1_network.node[29].content_store 	misses[29] 	8814
scalar tree_4_3_u09_r1_network.node[29].content_store 	decision_yes[29] 	722
scalar tree_4_3_u09_r1_network.node[29].content_store 	decision_no[29] 	8092
scalar tree_4_3_u09_r1_network.node[29].content_store 	decision_ratio[29] 	0.08191513501248
scalar tree_4_3_u09_r1_network.node[30].core_layer 	interests[30] 	12215
scalar tree_4_3_u09_r1_network.node[30].core_layer 	data[30] 	8741
scalar tree_4_3_u09_r1_network.node[30].content_store 	p_hit[30] 	0.28440442079411
scalar tree_4_3_u09_r1_network.node[30].content_store 	hits[30] 	3474
scalar tree_4_3_u09_r1_network.node[30].content_store 	misses[30] 	8741
scalar tree_4_3_u09_r1_network.node[30].content_store 	decision_yes[30] 	384
scalar tree_4_3_u09_r1_network.node[30].content_store 	decision_no[30] 	8357
scalar tree_4_3_u09_r1_network.node[30].content_store 	decision_ratio[30] 	0.04393090035465
scalar tree_4_3_u09_r1_network.node[31].core_layer 	interests[31] 	12176
scalar tree_4_3_u09_r1_network.node[31].core_layer 	data[31] 	8796
scalar tree_4_3_u09_r1_network.node[31].content_store 	p_hit[31] 	0.27759526938239
scalar tree_4_3_u09_r1_network.node[31].content_store 	hits[31] 	3380
scalar tree_4_3_u09_r1_network.node[31].content_store 	misses[31] 	8796
scalar tree_4_3_u09_r1_network.node[31].content_store 	decision_yes[31] 	420
scalar tree_4_3_u09_r1_network.node[31].content_store 	decision_no[31] 	8376
scalar tree_4_3_u09_r1_network.node[31].content_store 	decision_ratio[31] 	0.04774897680764
scalar tree_4_3_u09_r1_network.node[32].core_layer 	interests[32] 	12498
scalar tree_4_3_u09_r1_network.node[32].core_layer 	data[32] 	8792
scalar tree_4_3_u09_r1_network.node[32].content_store 	p_hit[32] 	0.2965274443911
scalar tree_4_3_u09_r1_network.node[32].content_store 	hits[32] 	3706
scalar tree_4_3_u09_r1_network.node[32].content_store 	misses[32] 	8792
scalar tree_4_3_u09_r1_network.node[32].content_store 	decision_yes[32] 	754
scalar tree_4_3_u09_r1_network.node[32].content_store 	decision_no[32] 	8038
scalar tree_4_3_u09_r1_network.node[32].content_store 	decision_ratio[32] 	0.085759781619654
scalar tree_4_3_u09_r1_network.node[33].core_layer 	interests[33] 	12352
scalar tree_4_3_u09_r1_network.node[33].core_layer 	data[33] 	8793
scalar tree_4_3_u09_r1_network.node[33].content_store 	p_hit[33] 	0.28813147668394
scalar tree_4_3_u09_r1_network.node[33].content_store 	hits[33] 	3559
scalar tree_4_3_u09_r1_network.node[33].content_store 	misses[33] 	8793
scalar tree_4_3_u09_r1_network.node[33].content_store 	decision_yes[33] 	709
scalar tree_4_3_u09_r1_network.node[33].content_store 	decision_no[33] 	8084
scalar tree_4_3_u09_r1_network.node[33].content_store 	decision_ratio[33] 	0.080632321164563
scalar tree_4_3_u09_r1_network.node[34].core_layer 	interests[34] 	12785
scalar tree_4_3_u09_r1_network.node[34].core_layer 	data[34] 	9122
scalar tree_4_3_u09_r1_network.node[34].content_store 	p_hit[34] 	0.28650762612436
scalar tree_4_3_u09_r1_network.node[34].content_store 	hits[34] 	3663
scalar tree_4_3_u09_r1_network.node[34].content_store 	misses[34] 	9122
scalar tree_4_3_u09_r1_network.node[34].content_store 	decision_yes[34] 	786
scalar tree_4_3_u09_r1_network.node[34].content_store 	decision_no[34] 	8336
scalar tree_4_3_u09_r1_network.node[34].content_store 	decision_ratio[34] 	0.086165314623986
scalar tree_4_3_u09_r1_network.node[35].core_layer 	interests[35] 	12294
scalar tree_4_3_u09_r1_network.node[35].core_layer 	data[35] 	8808
scalar tree_4_3_u09_r1_network.node[35].content_store 	p_hit[35] 	0.28355295265983
scalar tree_4_3_u09_r1_network.node[35].content_store 	hits[35] 	3486
scalar tree_4_3_u09_r1_network.node[35].content_store 	misses[35] 	8808
scalar tree_4_3_u09_r1_network.node[35].content_store 	decision_yes[35] 	399
scalar tree_4_3_u09_r1_network.node[35].content_store 	decision_no[35] 	8409
scalar tree_4_3_u09_r1_network.node[35].content_store 	decision_ratio[35] 	0.045299727520436
scalar tree_4_3_u09_r1_network.node[36].core_layer 	interests[36] 	12571
scalar tree_4_3_u09_r1_network.node[36].core_layer 	data[36] 	8941
scalar tree_4_3_u09_r1_network.node[36].content_store 	p_hit[36] 	0.28868029591918
scalar tree_4_3_u09_r1_network.node[36].content_store 	hits[36] 	3629
scalar tree_4_3_u09_r1_network.node[36].content_store 	misses[36] 	8942
scalar tree_4_3_u09_r1_network.node[36].content_store 	decision_yes[36] 	710
scalar tree_4_3_u09_r1_network.node[36].content_store 	decision_no[36] 	8231
scalar tree_4_3_u09_r1_network.node[36].content_store 	decision_ratio[36] 	0.079409462028856
scalar tree_4_3_u09_r1_network.node[37].core_layer 	interests[37] 	12372
scalar tree_4_3_u09_r1_network.node[37].core_layer 	data[37] 	8800
scalar tree_4_3_u09_r1_network.node[37].content_store 	p_hit[37] 	0.28871645651471
scalar tree_4_3_u09_r1_network.node[37].content_store 	hits[37] 	3572
scalar tree_4_3_u09_r1_network.node[37].content_store 	misses[37] 	8800
scalar tree_4_3_u09_r1_network.node[37].content_store 	decision_yes[37] 	719
scalar tree_4_3_u09_r1_network.node[37].content_store 	decision_no[37] 	8081
scalar tree_4_3_u09_r1_network.node[37].content_store 	decision_ratio[37] 	0.081704545454545
scalar tree_4_3_u09_r1_network.node[38].core_layer 	interests[38] 	12453
scalar tree_4_3_u09_r1_network.node[38].core_layer 	data[38] 	8752
scalar tree_4_3_u09_r1_network.node[38].content_store 	p_hit[38] 	0.29719746245885
scalar tree_4_3_u09_r1_network.node[38].content_store 	hits[38] 	3701
scalar tree_4_3_u09_r1_network.node[38].content_store 	misses[38] 	8752
scalar tree_4_3_u09_r1_network.node[38].content_store 	decision_yes[38] 	752
scalar tree_4_3_u09_r1_network.node[38].content_store 	decision_no[38] 	8000
scalar tree_4_3_u09_r1_network.node[38].content_store 	decision_ratio[38] 	0.085923217550274
scalar tree_4_3_u09_r1_network.node[39].core_layer 	interests[39] 	12077
scalar tree_4_3_u09_r1_network.node[39].core_layer 	data[39] 	8634
scalar tree_4_3_u09_r1_network.node[39].content_store 	p_hit[39] 	0.28492175209075
scalar tree_4_3_u09_r1_network.node[39].content_store 	hits[39] 	3441
scalar tree_4_3_u09_r1_network.node[39].content_store 	misses[39] 	8636
scalar tree_4_3_u09_r1_network.node[39].content_store 	decision_yes[39] 	362
scalar tree_4_3_u09_r1_network.node[39].content_store 	decision_no[39] 	8272
scalar tree_4_3_u09_r1_network.node[39].content_store 	decision_ratio[39] 	0.041927264303915
scalar tree_4_3_u09_r1_network.client[13] 	hdistance[13] 	2.7198596032977
scalar tree_4_3_u09_r1_network.client[13] 	downloads[13] 	12251
scalar tree_4_3_u09_r1_network.client[13] 	avg_time[13] 	0.004206184201
scalar tree_4_3_u09_r1_network.client[14] 	hdistance[14] 	2.6797167846731
scalar tree_4_3_u09_r1_network.client[14] 	downloads[14] 	12005
scalar tree_4_3_u09_r1_network.client[14] 	avg_time[14] 	0.00413527397
scalar tree_4_3_u09_r1_network.client[15] 	hdistance[15] 	2.68079425997
scalar tree_4_3_u09_r1_network.client[15] 	downloads[15] 	11986
scalar tree_4_3_u09_r1_network.client[15] 	avg_time[15] 	0.004135321525
scalar tree_4_3_u09_r1_network.client[16] 	hdistance[16] 	2.6701635552618
scalar tree_4_3_u09_r1_network.client[16] 	downloads[16] 	12106
scalar tree_4_3_u09_r1_network.client[16] 	avg_time[16] 	0.004119772319
scalar tree_4_3_u09_r1_network.client[17] 	hdistance[17] 	2.6728781975267
scalar tree_4_3_u09_r1_network.client[17] 	downloads[17] 	11806
scalar tree_4_3_u09_r1_network.client[17] 	avg_time[17] 	0.004141111733
scalar tree_4_3_u09_r1_network.client[18] 	hdistance[18] 	2.6482076428813
scalar tree_4_3_u09_r1_network.client[18] 	downloads[18] 	11828
scalar tree_4_3_u09_r1_network.client[18] 	avg_time[18] 	0.004083020379
scalar tree_4_3_u09_r1_network.client[19] 	hdistance[19] 	2.6596134621793
scalar tree_4_3_u09_r1_network.client[19] 	downloads[19] 	12004
scalar tree_4_3_u09_r1_network.client[19] 	avg_time[19] 	0.004115785699
scalar tree_4_3_u09_r1_network.client[20] 	hdistance[20] 	2.6438677270825
scalar tree_4_3_u09_r1_network.client[20] 	downloads[20] 	11945
scalar tree_4_3_u09_r1_network.client[20] 	avg_time[20] 	0.004076849275
scalar tree_4_3_u09_r1_network.client[21] 	hdistance[21] 	2.6596410340853
scalar tree_4_3_u09_r1_network.client[21] 	downloads[21] 	12146
scalar tree_4_3_u09_r1_network.client[21] 	avg_time[21] 	0.00411740191
scalar tree_4_3_u09_r1_network.client[22] 	hdistance[22] 	2.6792295505712
scalar tree_4_3_u09_r1_network.client[22] 	downloads[22] 	11993
scalar tree_4_3_u09_r1_network.client[22] 	avg_time[22] 	0.004145915445
scalar tree_4_3_u09_r1_network.client[23] 	hdistance[23] 	2.646637816245
scalar tree_4_3_u09_r1_network.client[23] 	downloads[23] 	12016
scalar tree_4_3_u09_r1_network.client[23] 	avg_time[23] 	0.00408538318
scalar tree_4_3_u09_r1_network.client[24] 	hdistance[24] 	2.6411035180967
scalar tree_4_3_u09_r1_network.client[24] 	downloads[24] 	11853
scalar tree_4_3_u09_r1_network.client[24] 	avg_time[24] 	0.004084907759
scalar tree_4_3_u09_r1_network.client[25] 	hdistance[25] 	2.6470194239786
scalar tree_4_3_u09_r1_network.client[25] 	downloads[25] 	11944
scalar tree_4_3_u09_r1_network.client[25] 	avg_time[25] 	0.004083553614
scalar tree_4_3_u09_r1_network.client[26] 	hdistance[26] 	2.6898802147873
scalar tree_4_3_u09_r1_network.client[26] 	downloads[26] 	12105
scalar tree_4_3_u09_r1_network.client[26] 	avg_time[26] 	0.004156886749
scalar tree_4_3_u09_r1_network.client[27] 	hdistance[27] 	2.680434051144
scalar tree_4_3_u09_r1_network.client[27] 	downloads[27] 	11888
scalar tree_4_3_u09_r1_network.client[27] 	avg_time[27] 	0.004130707566
scalar tree_4_3_u09_r1_network.client[28] 	hdistance[28] 	2.6571025789866
scalar tree_4_3_u09_r1_network.client[28] 	downloads[28] 	12059
scalar tree_4_3_u09_r1_network.client[28] 	avg_time[28] 	0.004100502854
scalar tree_4_3_u09_r1_network.client[29] 	hdistance[29] 	2.6584855084604
scalar tree_4_3_u09_r1_network.client[29] 	downloads[29] 	11938
scalar tree_4_3_u09_r1_network.client[29] 	avg_time[29] 	0.004096830671
scalar tree_4_3_u09_r1_network.client[30] 	hdistance[30] 	2.6680829792552
scalar tree_4_3_u09_r1_network.client[30] 	downloads[30] 	12003
scalar tree_4_3_u09_r1_network.client[30] 	avg_time[30] 	0.004126465395
scalar tree_4_3_u09_r1_network.client[31] 	hdistance[31] 	2.6975884379464
scalar tree_4_3_u09_r1_network.client[31] 	downloads[31] 	11901
scalar tree_4_3_u09_r1_network.client[31] 	avg_time[31] 	0.004165391989
scalar tree_4_3_u09_r1_network.client[32] 	hdistance[32] 	2.6332941374097
scalar tree_4_3_u09_r1_network.client[32] 	downloads[32] 	11906
scalar tree_4_3_u09_r1_network.client[32] 	avg_time[32] 	0.004062150571
scalar tree_4_3_u09_r1_network.client[33] 	hdistance[33] 	2.6688097453684
scalar tree_4_3_u09_r1_network.client[33] 	downloads[33] 	11821
scalar tree_4_3_u09_r1_network.client[33] 	avg_time[33] 	0.004119783878
scalar tree_4_3_u09_r1_network.client[34] 	hdistance[34] 	2.6692332896461
scalar tree_4_3_u09_r1_network.client[34] 	downloads[34] 	12208
scalar tree_4_3_u09_r1_network.client[34] 	avg_time[34] 	0.004110804757
scalar tree_4_3_u09_r1_network.client[35] 	hdistance[35] 	2.6840526578903
scalar tree_4_3_u09_r1_network.client[35] 	downloads[35] 	12002
scalar tree_4_3_u09_r1_network.client[35] 	avg_time[35] 	0.004146639237
scalar tree_4_3_u09_r1_network.client[36] 	hdistance[36] 	2.6692040377296
scalar tree_4_3_u09_r1_network.client[36] 	downloads[36] 	12086
scalar tree_4_3_u09_r1_network.client[36] 	avg_time[36] 	0.004110366765
scalar tree_4_3_u09_r1_network.client[37] 	hdistance[37] 	2.6739001942075
scalar tree_4_3_u09_r1_network.client[37] 	downloads[37] 	11843
scalar tree_4_3_u09_r1_network.client[37] 	avg_time[37] 	0.004119054729
scalar tree_4_3_u09_r1_network.client[38] 	hdistance[38] 	2.6257221803567
scalar tree_4_3_u09_r1_network.client[38] 	downloads[38] 	11943
scalar tree_4_3_u09_r1_network.client[38] 	avg_time[38] 	0.004047221326
scalar tree_4_3_u09_r1_network.client[39] 	hdistance[39] 	2.6850373855331
scalar tree_4_3_u09_r1_network.client[39] 	downloads[39] 	11903
scalar tree_4_3_u09_r1_network.client[39] 	avg_time[39] 	0.004144735698
