version 2
run General-195-20160819-14:13:10-2054
attr a 0.9
attr cd lcd
attr configname General
attr cr lru
attr datetime 20160819-14:13:10
attr experiment General
attr fsize 1
attr inifile hw5115/scenario_A/NRR-LCD.ini
attr iterationvars "$name=tree_4_3, $un=09, $rep=16, $cd=lcd, $cr=lru, $fsize=1, $a=0.9, $sl=nrr, $ttl=1000, $variance=0.05"
attr iterationvars2 "$name=tree_4_3, $un=09, $rep=16, $cd=lcd, $cr=lru, $fsize=1, $a=0.9, $sl=nrr, $ttl=1000, $variance=0.05, $repetition=0"
attr measurement "$name=tree_4_3, $un=09, $rep=16, $cd=lcd, $cr=lru, $fsize=1, $a=0.9, $sl=nrr, $ttl=1000, $variance=0.05"
attr name tree_4_3
attr network networks.${name}_u${un}_r${rep}_network
attr processid 2054
attr rep 16
attr repetition 0
attr replication #0
attr resultdir results
attr runnumber 195
attr seedset 16
attr sl nrr
attr ttl 1000
attr un 09
attr variance 0.05

scalar . 	a 	0.9
scalar . 	fsize 	1
scalar . 	rep 	16
scalar . 	ttl 	1000
scalar . 	un 	09
scalar . 	variance 	0.05
scalar tree_4_3_u09_r16_network.content_distribution 	repo-0 	0
scalar tree_4_3_u09_r16_network.content_distribution 	client-0 	13
scalar tree_4_3_u09_r16_network.content_distribution 	client-1 	14
scalar tree_4_3_u09_r16_network.content_distribution 	client-2 	15
scalar tree_4_3_u09_r16_network.content_distribution 	client-3 	16
scalar tree_4_3_u09_r16_network.content_distribution 	client-4 	17
scalar tree_4_3_u09_r16_network.content_distribution 	client-5 	18
scalar tree_4_3_u09_r16_network.content_distribution 	client-6 	19
scalar tree_4_3_u09_r16_network.content_distribution 	client-7 	20
scalar tree_4_3_u09_r16_network.content_distribution 	client-8 	21
scalar tree_4_3_u09_r16_network.content_distribution 	client-9 	22
scalar tree_4_3_u09_r16_network.content_distribution 	client-10 	23
scalar tree_4_3_u09_r16_network.content_distribution 	client-11 	24
scalar tree_4_3_u09_r16_network.content_distribution 	client-12 	25
scalar tree_4_3_u09_r16_network.content_distribution 	client-13 	26
scalar tree_4_3_u09_r16_network.content_distribution 	client-14 	27
scalar tree_4_3_u09_r16_network.content_distribution 	client-15 	28
scalar tree_4_3_u09_r16_network.content_distribution 	client-16 	29
scalar tree_4_3_u09_r16_network.content_distribution 	client-17 	30
scalar tree_4_3_u09_r16_network.content_distribution 	client-18 	31
scalar tree_4_3_u09_r16_network.content_distribution 	client-19 	32
scalar tree_4_3_u09_r16_network.content_distribution 	client-20 	33
scalar tree_4_3_u09_r16_network.content_distribution 	client-21 	34
scalar tree_4_3_u09_r16_network.content_distribution 	client-22 	35
scalar tree_4_3_u09_r16_network.content_distribution 	client-23 	36
scalar tree_4_3_u09_r16_network.content_distribution 	client-24 	37
scalar tree_4_3_u09_r16_network.content_distribution 	client-25 	38
scalar tree_4_3_u09_r16_network.content_distribution 	client-26 	39
scalar tree_4_3_u09_r16_network.content_distribution 	repo-0_card 	100000
scalar tree_4_3_u09_r16_network.content_distribution 	repo-0_price 	0
scalar tree_4_3_u09_r16_network.statistics 	stabilization_time 	724
scalar tree_4_3_u09_r16_network.statistics 	p_hit 	0.22395715356261
scalar tree_4_3_u09_r16_network.statistics 	interests 	24736.05
scalar tree_4_3_u09_r16_network.statistics 	data 	16654.9
scalar tree_4_3_u09_r16_network.statistics 	hdistance 	2.6723123401559
scalar tree_4_3_u09_r16_network.statistics 	avg_time 	0.004121932297
scalar tree_4_3_u09_r16_network.statistics 	downloads 	323248
scalar tree_4_3_u09_r16_network.statistics 	total_cost 	0
scalar tree_4_3_u09_r16_network.statistics 	total_replicas 	100000
scalar tree_4_3_u09_r16_network.statistics 	inner_hit 	0.38869846062466
scalar tree_4_3_u09_r16_network.node[0].core_layer 	interests[0] 	198790
scalar tree_4_3_u09_r16_network.node[0].core_layer 	repo_load[0] 	197602
scalar tree_4_3_u09_r16_network.node[0].core_layer 	data[0] 	0
scalar tree_4_3_u09_r16_network.node[0].core_layer 	repo_int[0] 	197602
scalar tree_4_3_u09_r16_network.node[0].content_store 	p_hit[0] 	0.0059761557422406
scalar tree_4_3_u09_r16_network.node[0].content_store 	hits[0] 	1188
scalar tree_4_3_u09_r16_network.node[0].content_store 	misses[0] 	197602
scalar tree_4_3_u09_r16_network.node[0].content_store 	decision_yes[0] 	197602
scalar tree_4_3_u09_r16_network.node[0].content_store 	decision_no[0] 	0
scalar tree_4_3_u09_r16_network.node[0].content_store 	decision_ratio[0] 	1
scalar tree_4_3_u09_r16_network.node[1].core_layer 	interests[1] 	144182
scalar tree_4_3_u09_r16_network.node[1].core_layer 	data[1] 	141724
scalar tree_4_3_u09_r16_network.node[1].content_store 	p_hit[1] 	0.017020155081772
scalar tree_4_3_u09_r16_network.node[1].content_store 	hits[1] 	2454
scalar tree_4_3_u09_r16_network.node[1].content_store 	misses[1] 	141728
scalar tree_4_3_u09_r16_network.node[1].content_store 	decision_yes[1] 	2636
scalar tree_4_3_u09_r16_network.node[1].content_store 	decision_no[1] 	139088
scalar tree_4_3_u09_r16_network.node[1].content_store 	decision_ratio[1] 	0.018599531483729
scalar tree_4_3_u09_r16_network.node[2].core_layer 	interests[2] 	32437
scalar tree_4_3_u09_r16_network.node[2].core_layer 	data[2] 	30615
scalar tree_4_3_u09_r16_network.node[2].content_store 	p_hit[2] 	0.056170422665475
scalar tree_4_3_u09_r16_network.node[2].content_store 	hits[2] 	1822
scalar tree_4_3_u09_r16_network.node[2].content_store 	misses[2] 	30615
scalar tree_4_3_u09_r16_network.node[2].content_store 	decision_yes[2] 	989
scalar tree_4_3_u09_r16_network.node[2].content_store 	decision_no[2] 	29626
scalar tree_4_3_u09_r16_network.node[2].content_store 	decision_ratio[2] 	0.032304425934999
scalar tree_4_3_u09_r16_network.node[3].core_layer 	interests[3] 	34219
scalar tree_4_3_u09_r16_network.node[3].core_layer 	data[3] 	31728
scalar tree_4_3_u09_r16_network.node[3].content_store 	p_hit[3] 	0.072795815190391
scalar tree_4_3_u09_r16_network.node[3].content_store 	hits[3] 	2491
scalar tree_4_3_u09_r16_network.node[3].content_store 	misses[3] 	31728
scalar tree_4_3_u09_r16_network.node[3].content_store 	decision_yes[3] 	1616
scalar tree_4_3_u09_r16_network.node[3].content_store 	decision_no[3] 	30112
scalar tree_4_3_u09_r16_network.node[3].content_store 	decision_ratio[3] 	0.050932929904186
scalar tree_4_3_u09_r16_network.node[4].core_layer 	interests[4] 	41714
scalar tree_4_3_u09_r16_network.node[4].core_layer 	data[4] 	39599
scalar tree_4_3_u09_r16_network.node[4].content_store 	p_hit[4] 	0.05067842930431
scalar tree_4_3_u09_r16_network.node[4].content_store 	hits[4] 	2114
scalar tree_4_3_u09_r16_network.node[4].content_store 	misses[4] 	39600
scalar tree_4_3_u09_r16_network.node[4].content_store 	decision_yes[4] 	2018
scalar tree_4_3_u09_r16_network.node[4].content_store 	decision_no[4] 	37581
scalar tree_4_3_u09_r16_network.node[4].content_store 	decision_ratio[4] 	0.050960882850577
scalar tree_4_3_u09_r16_network.node[5].core_layer 	interests[5] 	27479
scalar tree_4_3_u09_r16_network.node[5].core_layer 	data[5] 	25034
scalar tree_4_3_u09_r16_network.node[5].content_store 	p_hit[5] 	0.0889406455839
scalar tree_4_3_u09_r16_network.node[5].content_store 	hits[5] 	2444
scalar tree_4_3_u09_r16_network.node[5].content_store 	misses[5] 	25035
scalar tree_4_3_u09_r16_network.node[5].content_store 	decision_yes[5] 	2501
scalar tree_4_3_u09_r16_network.node[5].content_store 	decision_no[5] 	22533
scalar tree_4_3_u09_r16_network.node[5].content_store 	decision_ratio[5] 	0.09990413038268
scalar tree_4_3_u09_r16_network.node[6].core_layer 	interests[6] 	12450
scalar tree_4_3_u09_r16_network.node[6].core_layer 	data[6] 	9919
scalar tree_4_3_u09_r16_network.node[6].content_store 	p_hit[6] 	0.20329317269076
scalar tree_4_3_u09_r16_network.node[6].content_store 	hits[6] 	2531
scalar tree_4_3_u09_r16_network.node[6].content_store 	misses[6] 	9919
scalar tree_4_3_u09_r16_network.node[6].content_store 	decision_yes[6] 	2222
scalar tree_4_3_u09_r16_network.node[6].content_store 	decision_no[6] 	7697
scalar tree_4_3_u09_r16_network.node[6].content_store 	decision_ratio[6] 	0.2240145175925
scalar tree_4_3_u09_r16_network.node[7].core_layer 	interests[7] 	43115
scalar tree_4_3_u09_r16_network.node[7].core_layer 	data[7] 	40572
scalar tree_4_3_u09_r16_network.node[7].content_store 	p_hit[7] 	0.058981792879508
scalar tree_4_3_u09_r16_network.node[7].content_store 	hits[7] 	2543
scalar tree_4_3_u09_r16_network.node[7].content_store 	misses[7] 	40572
scalar tree_4_3_u09_r16_network.node[7].content_store 	decision_yes[7] 	3361
scalar tree_4_3_u09_r16_network.node[7].content_store 	decision_no[7] 	37211
scalar tree_4_3_u09_r16_network.node[7].content_store 	decision_ratio[7] 	0.082840382529824
scalar tree_4_3_u09_r16_network.node[8].core_layer 	interests[8] 	25405
scalar tree_4_3_u09_r16_network.node[8].core_layer 	data[8] 	23896
scalar tree_4_3_u09_r16_network.node[8].content_store 	p_hit[8] 	0.059358394016926
scalar tree_4_3_u09_r16_network.node[8].content_store 	hits[8] 	1508
scalar tree_4_3_u09_r16_network.node[8].content_store 	misses[8] 	23897
scalar tree_4_3_u09_r16_network.node[8].content_store 	decision_yes[8] 	1183
scalar tree_4_3_u09_r16_network.node[8].content_store 	decision_no[8] 	22713
scalar tree_4_3_u09_r16_network.node[8].content_store 	decision_ratio[8] 	0.049506193505189
scalar tree_4_3_u09_r16_network.node[9].core_layer 	interests[9] 	12828
scalar tree_4_3_u09_r16_network.node[9].core_layer 	data[9] 	10263
scalar tree_4_3_u09_r16_network.node[9].content_store 	p_hit[9] 	0.19987527284066
scalar tree_4_3_u09_r16_network.node[9].content_store 	hits[9] 	2564
scalar tree_4_3_u09_r16_network.node[9].content_store 	misses[9] 	10264
scalar tree_4_3_u09_r16_network.node[9].content_store 	decision_yes[9] 	2290
scalar tree_4_3_u09_r16_network.node[9].content_store 	decision_no[9] 	7973
scalar tree_4_3_u09_r16_network.node[9].content_store 	decision_ratio[9] 	0.22313163792263
scalar tree_4_3_u09_r16_network.node[10].core_layer 	interests[10] 	43066
scalar tree_4_3_u09_r16_network.node[10].core_layer 	data[10] 	40581
scalar tree_4_3_u09_r16_network.node[10].content_store 	p_hit[10] 	0.057702131611944
scalar tree_4_3_u09_r16_network.node[10].content_store 	hits[10] 	2485
scalar tree_4_3_u09_r16_network.node[10].content_store 	misses[10] 	40581
scalar tree_4_3_u09_r16_network.node[10].content_store 	decision_yes[10] 	2994
scalar tree_4_3_u09_r16_network.node[10].content_store 	decision_no[10] 	37587
scalar tree_4_3_u09_r16_network.node[10].content_store 	decision_ratio[10] 	0.073778369187551
scalar tree_4_3_u09_r16_network.node[11].core_layer 	interests[11] 	26811
scalar tree_4_3_u09_r16_network.node[11].core_layer 	data[11] 	24742
scalar tree_4_3_u09_r16_network.node[11].content_store 	p_hit[11] 	0.077132520234232
scalar tree_4_3_u09_r16_network.node[11].content_store 	hits[11] 	2068
scalar tree_4_3_u09_r16_network.node[11].content_store 	misses[11] 	24743
scalar tree_4_3_u09_r16_network.node[11].content_store 	decision_yes[11] 	1679
scalar tree_4_3_u09_r16_network.node[11].content_store 	decision_no[11] 	23063
scalar tree_4_3_u09_r16_network.node[11].content_store 	decision_ratio[11] 	0.067860318486784
scalar tree_4_3_u09_r16_network.node[12].core_layer 	interests[12] 	10989
scalar tree_4_3_u09_r16_network.node[12].core_layer 	data[12] 	8942
scalar tree_4_3_u09_r16_network.node[12].content_store 	p_hit[12] 	0.18636818636819
scalar tree_4_3_u09_r16_network.node[12].content_store 	hits[12] 	2048
scalar tree_4_3_u09_r16_network.node[12].content_store 	misses[12] 	8941
scalar tree_4_3_u09_r16_network.node[12].content_store 	decision_yes[12] 	1230
scalar tree_4_3_u09_r16_network.node[12].content_store 	decision_no[12] 	7712
scalar tree_4_3_u09_r16_network.node[12].content_store 	decision_ratio[12] 	0.13755312010736
scalar tree_4_3_u09_r16_network.node[13].core_layer 	interests[13] 	12234
scalar tree_4_3_u09_r16_network.node[13].core_layer 	data[13] 	8766
scalar tree_4_3_u09_r16_network.node[13].content_store 	p_hit[13] 	0.2834722903384
scalar tree_4_3_u09_r16_network.node[13].content_store 	hits[13] 	3468
scalar tree_4_3_u09_r16_network.node[13].content_store 	misses[13] 	8766
scalar tree_4_3_u09_r16_network.node[13].content_store 	decision_yes[13] 	351
scalar tree_4_3_u09_r16_network.node[13].content_store 	decision_no[13] 	8415
scalar tree_4_3_u09_r16_network.node[13].content_store 	decision_ratio[13] 	0.040041067761807
scalar tree_4_3_u09_r16_network.node[14].core_layer 	interests[14] 	12522
scalar tree_4_3_u09_r16_network.node[14].core_layer 	data[14] 	9002
scalar tree_4_3_u09_r16_network.node[14].content_store 	p_hit[14] 	0.28110525475164
scalar tree_4_3_u09_r16_network.node[14].content_store 	hits[14] 	3520
scalar tree_4_3_u09_r16_network.node[14].content_store 	misses[14] 	9002
scalar tree_4_3_u09_r16_network.node[14].content_store 	decision_yes[14] 	751
scalar tree_4_3_u09_r16_network.node[14].content_store 	decision_no[14] 	8251
scalar tree_4_3_u09_r16_network.node[14].content_store 	decision_ratio[14] 	0.083425905354366
scalar tree_4_3_u09_r16_network.node[15].core_layer 	interests[15] 	12496
scalar tree_4_3_u09_r16_network.node[15].core_layer 	data[15] 	8833
scalar tree_4_3_u09_r16_network.node[15].content_store 	p_hit[15] 	0.2931338028169
scalar tree_4_3_u09_r16_network.node[15].content_store 	hits[15] 	3663
scalar tree_4_3_u09_r16_network.node[15].content_store 	misses[15] 	8833
scalar tree_4_3_u09_r16_network.node[15].content_store 	decision_yes[15] 	689
scalar tree_4_3_u09_r16_network.node[15].content_store 	decision_no[15] 	8144
scalar tree_4_3_u09_r16_network.node[15].content_store 	decision_ratio[15] 	0.078002943507302
scalar tree_4_3_u09_r16_network.node[16].core_layer 	interests[16] 	12706
scalar tree_4_3_u09_r16_network.node[16].core_layer 	data[16] 	8908
scalar tree_4_3_u09_r16_network.node[16].content_store 	p_hit[16] 	0.29891389894538
scalar tree_4_3_u09_r16_network.node[16].content_store 	hits[16] 	3798
scalar tree_4_3_u09_r16_network.node[16].content_store 	misses[16] 	8908
scalar tree_4_3_u09_r16_network.node[16].content_store 	decision_yes[16] 	708
scalar tree_4_3_u09_r16_network.node[16].content_store 	decision_no[16] 	8200
scalar tree_4_3_u09_r16_network.node[16].content_store 	decision_ratio[16] 	0.079479119892232
scalar tree_4_3_u09_r16_network.node[17].core_layer 	interests[17] 	12160
scalar tree_4_3_u09_r16_network.node[17].core_layer 	data[17] 	8775
scalar tree_4_3_u09_r16_network.node[17].content_store 	p_hit[17] 	0.27837171052632
scalar tree_4_3_u09_r16_network.node[17].content_store 	hits[17] 	3385
scalar tree_4_3_u09_r16_network.node[17].content_store 	misses[17] 	8775
scalar tree_4_3_u09_r16_network.node[17].content_store 	decision_yes[17] 	406
scalar tree_4_3_u09_r16_network.node[17].content_store 	decision_no[17] 	8369
scalar tree_4_3_u09_r16_network.node[17].content_store 	decision_ratio[17] 	0.046267806267806
scalar tree_4_3_u09_r16_network.node[18].core_layer 	interests[18] 	12702
scalar tree_4_3_u09_r16_network.node[18].core_layer 	data[18] 	9095
scalar tree_4_3_u09_r16_network.node[18].content_store 	p_hit[18] 	0.28397102818454
scalar tree_4_3_u09_r16_network.node[18].content_store 	hits[18] 	3607
scalar tree_4_3_u09_r16_network.node[18].content_store 	misses[18] 	9095
scalar tree_4_3_u09_r16_network.node[18].content_store 	decision_yes[18] 	772
scalar tree_4_3_u09_r16_network.node[18].content_store 	decision_no[18] 	8323
scalar tree_4_3_u09_r16_network.node[18].content_store 	decision_ratio[18] 	0.084881803188565
scalar tree_4_3_u09_r16_network.node[19].core_layer 	interests[19] 	12452
scalar tree_4_3_u09_r16_network.node[19].core_layer 	data[19] 	8860
scalar tree_4_3_u09_r16_network.node[19].content_store 	p_hit[19] 	0.28846771602955
scalar tree_4_3_u09_r16_network.node[19].content_store 	hits[19] 	3592
scalar tree_4_3_u09_r16_network.node[19].content_store 	misses[19] 	8860
scalar tree_4_3_u09_r16_network.node[19].content_store 	decision_yes[19] 	776
scalar tree_4_3_u09_r16_network.node[19].content_store 	decision_no[19] 	8084
scalar tree_4_3_u09_r16_network.node[19].content_store 	decision_ratio[19] 	0.087584650112867
scalar tree_4_3_u09_r16_network.node[20].core_layer 	interests[20] 	12552
scalar tree_4_3_u09_r16_network.node[20].core_layer 	data[20] 	8815
scalar tree_4_3_u09_r16_network.node[20].content_store 	p_hit[20] 	0.29772147864882
scalar tree_4_3_u09_r16_network.node[20].content_store 	hits[20] 	3737
scalar tree_4_3_u09_r16_network.node[20].content_store 	misses[20] 	8815
scalar tree_4_3_u09_r16_network.node[20].content_store 	decision_yes[20] 	725
scalar tree_4_3_u09_r16_network.node[20].content_store 	decision_no[20] 	8090
scalar tree_4_3_u09_r16_network.node[20].content_store 	decision_ratio[20] 	0.082246171298922
scalar tree_4_3_u09_r16_network.node[21].core_layer 	interests[21] 	12107
scalar tree_4_3_u09_r16_network.node[21].core_layer 	data[21] 	8619
scalar tree_4_3_u09_r16_network.node[21].content_store 	p_hit[21] 	0.28818039150904
scalar tree_4_3_u09_r16_network.node[21].content_store 	hits[21] 	3489
scalar tree_4_3_u09_r16_network.node[21].content_store 	misses[21] 	8618
scalar tree_4_3_u09_r16_network.node[21].content_store 	decision_yes[21] 	377
scalar tree_4_3_u09_r16_network.node[21].content_store 	decision_no[21] 	8242
scalar tree_4_3_u09_r16_network.node[21].content_store 	decision_ratio[21] 	0.043740573152338
scalar tree_4_3_u09_r16_network.node[22].core_layer 	interests[22] 	12424
scalar tree_4_3_u09_r16_network.node[22].core_layer 	data[22] 	8927
scalar tree_4_3_u09_r16_network.node[22].content_store 	p_hit[22] 	0.28147134578236
scalar tree_4_3_u09_r16_network.node[22].content_store 	hits[22] 	3497
scalar tree_4_3_u09_r16_network.node[22].content_store 	misses[22] 	8927
scalar tree_4_3_u09_r16_network.node[22].content_store 	decision_yes[22] 	431
scalar tree_4_3_u09_r16_network.node[22].content_store 	decision_no[22] 	8496
scalar tree_4_3_u09_r16_network.node[22].content_store 	decision_ratio[22] 	0.048280497367537
scalar tree_4_3_u09_r16_network.node[23].core_layer 	interests[23] 	12250
scalar tree_4_3_u09_r16_network.node[23].core_layer 	data[23] 	8750
scalar tree_4_3_u09_r16_network.node[23].content_store 	p_hit[23] 	0.28571428571429
scalar tree_4_3_u09_r16_network.node[23].content_store 	hits[23] 	3500
scalar tree_4_3_u09_r16_network.node[23].content_store 	misses[23] 	8750
scalar tree_4_3_u09_r16_network.node[23].content_store 	decision_yes[23] 	398
scalar tree_4_3_u09_r16_network.node[23].content_store 	decision_no[23] 	8352
scalar tree_4_3_u09_r16_network.node[23].content_store 	decision_ratio[23] 	0.045485714285714
scalar tree_4_3_u09_r16_network.node[24].core_layer 	interests[24] 	12709
scalar tree_4_3_u09_r16_network.node[24].core_layer 	data[24] 	8879
scalar tree_4_3_u09_r16_network.node[24].content_store 	p_hit[24] 	0.30136124006609
scalar tree_4_3_u09_r16_network.node[24].content_store 	hits[24] 	3830
scalar tree_4_3_u09_r16_network.node[24].content_store 	misses[24] 	8879
scalar tree_4_3_u09_r16_network.node[24].content_store 	decision_yes[24] 	747
scalar tree_4_3_u09_r16_network.node[24].content_store 	decision_no[24] 	8132
scalar tree_4_3_u09_r16_network.node[24].content_store 	decision_ratio[24] 	0.084131095844127
scalar tree_4_3_u09_r16_network.node[25].core_layer 	interests[25] 	12555
scalar tree_4_3_u09_r16_network.node[25].core_layer 	data[25] 	8782
scalar tree_4_3_u09_r16_network.node[25].content_store 	p_hit[25] 	0.30059737156511
scalar tree_4_3_u09_r16_network.node[25].content_store 	hits[25] 	3774
scalar tree_4_3_u09_r16_network.node[25].content_store 	misses[25] 	8781
scalar tree_4_3_u09_r16_network.node[25].content_store 	decision_yes[25] 	693
scalar tree_4_3_u09_r16_network.node[25].content_store 	decision_no[25] 	8089
scalar tree_4_3_u09_r16_network.node[25].content_store 	decision_ratio[25] 	0.078911409701662
scalar tree_4_3_u09_r16_network.node[26].core_layer 	interests[26] 	12126
scalar tree_4_3_u09_r16_network.node[26].core_layer 	data[26] 	8706
scalar tree_4_3_u09_r16_network.node[26].content_store 	p_hit[26] 	0.28203859475507
scalar tree_4_3_u09_r16_network.node[26].content_store 	hits[26] 	3420
scalar tree_4_3_u09_r16_network.node[26].content_store 	misses[26] 	8706
scalar tree_4_3_u09_r16_network.node[26].content_store 	decision_yes[26] 	381
scalar tree_4_3_u09_r16_network.node[26].content_store 	decision_no[26] 	8325
scalar tree_4_3_u09_r16_network.node[26].content_store 	decision_ratio[26] 	0.043762922122674
scalar tree_4_3_u09_r16_network.node[27].core_layer 	interests[27] 	12666
scalar tree_4_3_u09_r16_network.node[27].core_layer 	data[27] 	8978
scalar tree_4_3_u09_r16_network.node[27].content_store 	p_hit[27] 	0.29117321964314
scalar tree_4_3_u09_r16_network.node[27].content_store 	hits[27] 	3688
scalar tree_4_3_u09_r16_network.node[27].content_store 	misses[27] 	8978
scalar tree_4_3_u09_r16_network.node[27].content_store 	decision_yes[27] 	689
scalar tree_4_3_u09_r16_network.node[27].content_store 	decision_no[27] 	8289
scalar tree_4_3_u09_r16_network.node[27].content_store 	decision_ratio[27] 	0.076743149922032
scalar tree_4_3_u09_r16_network.node[28].core_layer 	interests[28] 	12617
scalar tree_4_3_u09_r16_network.node[28].core_layer 	data[28] 	8788
scalar tree_4_3_u09_r16_network.node[28].content_store 	p_hit[28] 	0.30347943251169
scalar tree_4_3_u09_r16_network.node[28].content_store 	hits[28] 	3829
scalar tree_4_3_u09_r16_network.node[28].content_store 	misses[28] 	8788
scalar tree_4_3_u09_r16_network.node[28].content_store 	decision_yes[28] 	792
scalar tree_4_3_u09_r16_network.node[28].content_store 	decision_no[28] 	7996
scalar tree_4_3_u09_r16_network.node[28].content_store 	decision_ratio[28] 	0.090122894856623
scalar tree_4_3_u09_r16_network.node[29].core_layer 	interests[29] 	12383
scalar tree_4_3_u09_r16_network.node[29].core_layer 	data[29] 	8772
scalar tree_4_3_u09_r16_network.node[29].content_store 	p_hit[29] 	0.29160946458855
scalar tree_4_3_u09_r16_network.node[29].content_store 	hits[29] 	3611
scalar tree_4_3_u09_r16_network.node[29].content_store 	misses[29] 	8772
scalar tree_4_3_u09_r16_network.node[29].content_store 	decision_yes[29] 	699
scalar tree_4_3_u09_r16_network.node[29].content_store 	decision_no[29] 	8073
scalar tree_4_3_u09_r16_network.node[29].content_store 	decision_ratio[29] 	0.0796853625171
scalar tree_4_3_u09_r16_network.node[30].core_layer 	interests[30] 	12432
scalar tree_4_3_u09_r16_network.node[30].core_layer 	data[30] 	8949
scalar tree_4_3_u09_r16_network.node[30].content_store 	p_hit[30] 	0.28008365508366
scalar tree_4_3_u09_r16_network.node[30].content_store 	hits[30] 	3482
scalar tree_4_3_u09_r16_network.node[30].content_store 	misses[30] 	8950
scalar tree_4_3_u09_r16_network.node[30].content_store 	decision_yes[30] 	428
scalar tree_4_3_u09_r16_network.node[30].content_store 	decision_no[30] 	8521
scalar tree_4_3_u09_r16_network.node[30].content_store 	decision_ratio[30] 	0.04782657280143
scalar tree_4_3_u09_r16_network.node[31].core_layer 	interests[31] 	12373
scalar tree_4_3_u09_r16_network.node[31].core_layer 	data[31] 	8801
scalar tree_4_3_u09_r16_network.node[31].content_store 	p_hit[31] 	0.28869312212075
scalar tree_4_3_u09_r16_network.node[31].content_store 	hits[31] 	3572
scalar tree_4_3_u09_r16_network.node[31].content_store 	misses[31] 	8801
scalar tree_4_3_u09_r16_network.node[31].content_store 	decision_yes[31] 	381
scalar tree_4_3_u09_r16_network.node[31].content_store 	decision_no[31] 	8420
scalar tree_4_3_u09_r16_network.node[31].content_store 	decision_ratio[31] 	0.043290535166458
scalar tree_4_3_u09_r16_network.node[32].core_layer 	interests[32] 	12700
scalar tree_4_3_u09_r16_network.node[32].core_layer 	data[32] 	8961
scalar tree_4_3_u09_r16_network.node[32].content_store 	p_hit[32] 	0.2944094488189
scalar tree_4_3_u09_r16_network.node[32].content_store 	hits[32] 	3739
scalar tree_4_3_u09_r16_network.node[32].content_store 	misses[32] 	8961
scalar tree_4_3_u09_r16_network.node[32].content_store 	decision_yes[32] 	724
scalar tree_4_3_u09_r16_network.node[32].content_store 	decision_no[32] 	8237
scalar tree_4_3_u09_r16_network.node[32].content_store 	decision_ratio[32] 	0.080794554179221
scalar tree_4_3_u09_r16_network.node[33].core_layer 	interests[33] 	12466
scalar tree_4_3_u09_r16_network.node[33].core_layer 	data[33] 	8863
scalar tree_4_3_u09_r16_network.node[33].content_store 	p_hit[33] 	0.28902615113108
scalar tree_4_3_u09_r16_network.node[33].content_store 	hits[33] 	3603
scalar tree_4_3_u09_r16_network.node[33].content_store 	misses[33] 	8863
scalar tree_4_3_u09_r16_network.node[33].content_store 	decision_yes[33] 	773
scalar tree_4_3_u09_r16_network.node[33].content_store 	decision_no[33] 	8090
scalar tree_4_3_u09_r16_network.node[33].content_store 	decision_ratio[33] 	0.087216518108992
scalar tree_4_3_u09_r16_network.node[34].core_layer 	interests[34] 	12692
scalar tree_4_3_u09_r16_network.node[34].core_layer 	data[34] 	8946
scalar tree_4_3_u09_r16_network.node[34].content_store 	p_hit[34] 	0.29514654900725
scalar tree_4_3_u09_r16_network.node[34].content_store 	hits[34] 	3746
scalar tree_4_3_u09_r16_network.node[34].content_store 	misses[34] 	8946
scalar tree_4_3_u09_r16_network.node[34].content_store 	decision_yes[34] 	718
scalar tree_4_3_u09_r16_network.node[34].content_store 	decision_no[34] 	8228
scalar tree_4_3_u09_r16_network.node[34].content_store 	decision_ratio[34] 	0.080259333780461
scalar tree_4_3_u09_r16_network.node[35].core_layer 	interests[35] 	12158
scalar tree_4_3_u09_r16_network.node[35].core_layer 	data[35] 	8791
scalar tree_4_3_u09_r16_network.node[35].content_store 	p_hit[35] 	0.27693699621648
scalar tree_4_3_u09_r16_network.node[35].content_store 	hits[35] 	3367
scalar tree_4_3_u09_r16_network.node[35].content_store 	misses[35] 	8791
scalar tree_4_3_u09_r16_network.node[35].content_store 	decision_yes[35] 	408
scalar tree_4_3_u09_r16_network.node[35].content_store 	decision_no[35] 	8383
scalar tree_4_3_u09_r16_network.node[35].content_store 	decision_ratio[35] 	0.046411102263679
scalar tree_4_3_u09_r16_network.node[36].core_layer 	interests[36] 	12495
scalar tree_4_3_u09_r16_network.node[36].core_layer 	data[36] 	8802
scalar tree_4_3_u09_r16_network.node[36].content_store 	p_hit[36] 	0.29555822328932
scalar tree_4_3_u09_r16_network.node[36].content_store 	hits[36] 	3693
scalar tree_4_3_u09_r16_network.node[36].content_store 	misses[36] 	8802
scalar tree_4_3_u09_r16_network.node[36].content_store 	decision_yes[36] 	677
scalar tree_4_3_u09_r16_network.node[36].content_store 	decision_no[36] 	8125
scalar tree_4_3_u09_r16_network.node[36].content_store 	decision_ratio[36] 	0.076914337650534
scalar tree_4_3_u09_r16_network.node[37].core_layer 	interests[37] 	12396
scalar tree_4_3_u09_r16_network.node[37].core_layer 	data[37] 	8696
scalar tree_4_3_u09_r16_network.node[37].content_store 	p_hit[37] 	0.29848338173604
scalar tree_4_3_u09_r16_network.node[37].content_store 	hits[37] 	3700
scalar tree_4_3_u09_r16_network.node[37].content_store 	misses[37] 	8696
scalar tree_4_3_u09_r16_network.node[37].content_store 	decision_yes[37] 	711
scalar tree_4_3_u09_r16_network.node[37].content_store 	decision_no[37] 	7985
scalar tree_4_3_u09_r16_network.node[37].content_store 	decision_ratio[37] 	0.081761729530819
scalar tree_4_3_u09_r16_network.node[38].core_layer 	interests[38] 	12419
scalar tree_4_3_u09_r16_network.node[38].core_layer 	data[38] 	8816
scalar tree_4_3_u09_r16_network.node[38].content_store 	p_hit[38] 	0.29003945567276
scalar tree_4_3_u09_r16_network.node[38].content_store 	hits[38] 	3602
scalar tree_4_3_u09_r16_network.node[38].content_store 	misses[38] 	8817
scalar tree_4_3_u09_r16_network.node[38].content_store 	decision_yes[38] 	667
scalar tree_4_3_u09_r16_network.node[38].content_store 	decision_no[38] 	8149
scalar tree_4_3_u09_r16_network.node[38].content_store 	decision_ratio[38] 	0.075657894736842
scalar tree_4_3_u09_r16_network.node[39].core_layer 	interests[39] 	12165
scalar tree_4_3_u09_r16_network.node[39].core_layer 	data[39] 	8701
scalar tree_4_3_u09_r16_network.node[39].content_store 	p_hit[39] 	0.28483353884094
scalar tree_4_3_u09_r16_network.node[39].content_store 	hits[39] 	3465
scalar tree_4_3_u09_r16_network.node[39].content_store 	misses[39] 	8700
scalar tree_4_3_u09_r16_network.node[39].content_store 	decision_yes[39] 	380
scalar tree_4_3_u09_r16_network.node[39].content_store 	decision_no[39] 	8321
scalar tree_4_3_u09_r16_network.node[39].content_store 	decision_ratio[39] 	0.043673141018274
scalar tree_4_3_u09_r16_network.client[13] 	hdistance[13] 	2.7177021490091
scalar tree_4_3_u09_r16_network.client[13] 	downloads[13] 	11959
scalar tree_4_3_u09_r16_network.client[13] 	avg_time[13] 	0.004193324207
scalar tree_4_3_u09_r16_network.client[14] 	hdistance[14] 	2.6933500627353
scalar tree_4_3_u09_r16_network.client[14] 	downloads[14] 	11955
scalar tree_4_3_u09_r16_network.client[14] 	avg_time[14] 	0.004154743988
scalar tree_4_3_u09_r16_network.client[15] 	hdistance[15] 	2.6718185636287
scalar tree_4_3_u09_r16_network.client[15] 	downloads[15] 	11905
scalar tree_4_3_u09_r16_network.client[15] 	avg_time[15] 	0.004117762656
scalar tree_4_3_u09_r16_network.client[16] 	hdistance[16] 	2.645158632056
scalar tree_4_3_u09_r16_network.client[16] 	downloads[16] 	12135
scalar tree_4_3_u09_r16_network.client[16] 	avg_time[16] 	0.004074986716
scalar tree_4_3_u09_r16_network.client[17] 	hdistance[17] 	2.6987363100253
scalar tree_4_3_u09_r16_network.client[17] 	downloads[17] 	11870
scalar tree_4_3_u09_r16_network.client[17] 	avg_time[17] 	0.004170342433
scalar tree_4_3_u09_r16_network.client[18] 	hdistance[18] 	2.6803244764506
scalar tree_4_3_u09_r16_network.client[18] 	downloads[18] 	12081
scalar tree_4_3_u09_r16_network.client[18] 	avg_time[18] 	0.00413640953
scalar tree_4_3_u09_r16_network.client[19] 	hdistance[19] 	2.6593989393047
scalar tree_4_3_u09_r16_network.client[19] 	downloads[19] 	11879
scalar tree_4_3_u09_r16_network.client[19] 	avg_time[19] 	0.004103354567
scalar tree_4_3_u09_r16_network.client[20] 	hdistance[20] 	2.6428152492669
scalar tree_4_3_u09_r16_network.client[20] 	downloads[20] 	11935
scalar tree_4_3_u09_r16_network.client[20] 	avg_time[20] 	0.004071925117
scalar tree_4_3_u09_r16_network.client[21] 	hdistance[21] 	2.6746253492507
scalar tree_4_3_u09_r16_network.client[21] 	downloads[21] 	11811
scalar tree_4_3_u09_r16_network.client[21] 	avg_time[21] 	0.004129706656
scalar tree_4_3_u09_r16_network.client[22] 	hdistance[22] 	2.6921609290751
scalar tree_4_3_u09_r16_network.client[22] 	downloads[22] 	12055
scalar tree_4_3_u09_r16_network.client[22] 	avg_time[22] 	0.004163187254
scalar tree_4_3_u09_r16_network.client[23] 	hdistance[23] 	2.6912893161312
scalar tree_4_3_u09_r16_network.client[23] 	downloads[23] 	11859
scalar tree_4_3_u09_r16_network.client[23] 	avg_time[23] 	0.004161562091
scalar tree_4_3_u09_r16_network.client[24] 	hdistance[24] 	2.6545652720718
scalar tree_4_3_u09_r16_network.client[24] 	downloads[24] 	11927
scalar tree_4_3_u09_r16_network.client[24] 	avg_time[24] 	0.004093901604
scalar tree_4_3_u09_r16_network.client[25] 	hdistance[25] 	2.6547579018157
scalar tree_4_3_u09_r16_network.client[25] 	downloads[25] 	11896
scalar tree_4_3_u09_r16_network.client[25] 	avg_time[25] 	0.00409196069
scalar tree_4_3_u09_r16_network.client[26] 	hdistance[26] 	2.6995654354003
scalar tree_4_3_u09_r16_network.client[26] 	downloads[26] 	11966
scalar tree_4_3_u09_r16_network.client[26] 	avg_time[26] 	0.00416546586
scalar tree_4_3_u09_r16_network.client[27] 	hdistance[27] 	2.6717940281319
scalar tree_4_3_u09_r16_network.client[27] 	downloads[27] 	12157
scalar tree_4_3_u09_r16_network.client[27] 	avg_time[27] 	0.004116966607
scalar tree_4_3_u09_r16_network.client[28] 	hdistance[28] 	2.6176371874476
scalar tree_4_3_u09_r16_network.client[28] 	downloads[28] 	11918
scalar tree_4_3_u09_r16_network.client[28] 	avg_time[28] 	0.0040382585
scalar tree_4_3_u09_r16_network.client[29] 	hdistance[29] 	2.6512291299606
scalar tree_4_3_u09_r16_network.client[29] 	downloads[29] 	11919
scalar tree_4_3_u09_r16_network.client[29] 	avg_time[29] 	0.004088786981
scalar tree_4_3_u09_r16_network.client[30] 	hdistance[30] 	2.6808633330587
scalar tree_4_3_u09_r16_network.client[30] 	downloads[30] 	12139
scalar tree_4_3_u09_r16_network.client[30] 	avg_time[30] 	0.00414910314
scalar tree_4_3_u09_r16_network.client[31] 	hdistance[31] 	2.6801663201663
scalar tree_4_3_u09_r16_network.client[31] 	downloads[31] 	12025
scalar tree_4_3_u09_r16_network.client[31] 	avg_time[31] 	0.004138541719
scalar tree_4_3_u09_r16_network.client[32] 	hdistance[32] 	2.652299324213
scalar tree_4_3_u09_r16_network.client[32] 	downloads[32] 	12134
scalar tree_4_3_u09_r16_network.client[32] 	avg_time[32] 	0.004089991997
scalar tree_4_3_u09_r16_network.client[33] 	hdistance[33] 	2.659144295302
scalar tree_4_3_u09_r16_network.client[33] 	downloads[33] 	11920
scalar tree_4_3_u09_r16_network.client[33] 	avg_time[33] 	0.004100668127
scalar tree_4_3_u09_r16_network.client[34] 	hdistance[34] 	2.6573889993373
scalar tree_4_3_u09_r16_network.client[34] 	downloads[34] 	12072
scalar tree_4_3_u09_r16_network.client[34] 	avg_time[34] 	0.004100300996
scalar tree_4_3_u09_r16_network.client[35] 	hdistance[35] 	2.717577077748
scalar tree_4_3_u09_r16_network.client[35] 	downloads[35] 	11936
scalar tree_4_3_u09_r16_network.client[35] 	avg_time[35] 	0.004191518443
scalar tree_4_3_u09_r16_network.client[36] 	hdistance[36] 	2.6649197238167
scalar tree_4_3_u09_r16_network.client[36] 	downloads[36] 	12021
scalar tree_4_3_u09_r16_network.client[36] 	avg_time[36] 	0.004096661152
scalar tree_4_3_u09_r16_network.client[37] 	hdistance[37] 	2.6427787625559
scalar tree_4_3_u09_r16_network.client[37] 	downloads[37] 	11847
scalar tree_4_3_u09_r16_network.client[37] 	avg_time[37] 	0.004070394601
scalar tree_4_3_u09_r16_network.client[38] 	hdistance[38] 	2.691696630153
scalar tree_4_3_u09_r16_network.client[38] 	downloads[38] 	11959
scalar tree_4_3_u09_r16_network.client[38] 	avg_time[38] 	0.004132616784
scalar tree_4_3_u09_r16_network.client[39] 	hdistance[39] 	2.6886697860963
scalar tree_4_3_u09_r16_network.client[39] 	downloads[39] 	11968
scalar tree_4_3_u09_r16_network.client[39] 	avg_time[39] 	0.004149729629
