version 2
run General-191-20160819-14:08:48-2054
attr a 0.9
attr cd lcd
attr configname General
attr cr lru
attr datetime 20160819-14:08:48
attr experiment General
attr fsize 1
attr inifile hw5115/scenario_A/NRR-LCD.ini
attr iterationvars "$name=tree_4_3, $un=09, $rep=12, $cd=lcd, $cr=lru, $fsize=1, $a=0.9, $sl=nrr, $ttl=1000, $variance=0.05"
attr iterationvars2 "$name=tree_4_3, $un=09, $rep=12, $cd=lcd, $cr=lru, $fsize=1, $a=0.9, $sl=nrr, $ttl=1000, $variance=0.05, $repetition=0"
attr measurement "$name=tree_4_3, $un=09, $rep=12, $cd=lcd, $cr=lru, $fsize=1, $a=0.9, $sl=nrr, $ttl=1000, $variance=0.05"
attr name tree_4_3
attr network networks.${name}_u${un}_r${rep}_network
attr processid 2054
attr rep 12
attr repetition 0
attr replication #0
attr resultdir results
attr runnumber 191
attr seedset 12
attr sl nrr
attr ttl 1000
attr un 09
attr variance 0.05

scalar . 	a 	0.9
scalar . 	fsize 	1
scalar . 	rep 	12
scalar . 	ttl 	1000
scalar . 	un 	09
scalar . 	variance 	0.05
scalar tree_4_3_u09_r12_network.content_distribution 	repo-0 	0
scalar tree_4_3_u09_r12_network.content_distribution 	client-0 	13
scalar tree_4_3_u09_r12_network.content_distribution 	client-1 	14
scalar tree_4_3_u09_r12_network.content_distribution 	client-2 	15
scalar tree_4_3_u09_r12_network.content_distribution 	client-3 	16
scalar tree_4_3_u09_r12_network.content_distribution 	client-4 	17
scalar tree_4_3_u09_r12_network.content_distribution 	client-5 	18
scalar tree_4_3_u09_r12_network.content_distribution 	client-6 	19
scalar tree_4_3_u09_r12_network.content_distribution 	client-7 	20
scalar tree_4_3_u09_r12_network.content_distribution 	client-8 	21
scalar tree_4_3_u09_r12_network.content_distribution 	client-9 	22
scalar tree_4_3_u09_r12_network.content_distribution 	client-10 	23
scalar tree_4_3_u09_r12_network.content_distribution 	client-11 	24
scalar tree_4_3_u09_r12_network.content_distribution 	client-12 	25
scalar tree_4_3_u09_r12_network.content_distribution 	client-13 	26
scalar tree_4_3_u09_r12_network.content_distribution 	client-14 	27
scalar tree_4_3_u09_r12_network.content_distribution 	client-15 	28
scalar tree_4_3_u09_r12_network.content_distribution 	client-16 	29
scalar tree_4_3_u09_r12_network.content_distribution 	client-17 	30
scalar tree_4_3_u09_r12_network.content_distribution 	client-18 	31
scalar tree_4_3_u09_r12_network.content_distribution 	client-19 	32
scalar tree_4_3_u09_r12_network.content_distribution 	client-20 	33
scalar tree_4_3_u09_r12_network.content_distribution 	client-21 	34
scalar tree_4_3_u09_r12_network.content_distribution 	client-22 	35
scalar tree_4_3_u09_r12_network.content_distribution 	client-23 	36
scalar tree_4_3_u09_r12_network.content_distribution 	client-24 	37
scalar tree_4_3_u09_r12_network.content_distribution 	client-25 	38
scalar tree_4_3_u09_r12_network.content_distribution 	client-26 	39
scalar tree_4_3_u09_r12_network.content_distribution 	repo-0_card 	100000
scalar tree_4_3_u09_r12_network.content_distribution 	repo-0_price 	0
scalar tree_4_3_u09_r12_network.statistics 	stabilization_time 	655.6
scalar tree_4_3_u09_r12_network.statistics 	p_hit 	0.22402797538786
scalar tree_4_3_u09_r12_network.statistics 	interests 	24833.2
scalar tree_4_3_u09_r12_network.statistics 	data 	16723.725
scalar tree_4_3_u09_r12_network.statistics 	hdistance 	2.6703680957698
scalar tree_4_3_u09_r12_network.statistics 	avg_time 	0.004124521371
scalar tree_4_3_u09_r12_network.statistics 	downloads 	324372
scalar tree_4_3_u09_r12_network.statistics 	total_cost 	0
scalar tree_4_3_u09_r12_network.statistics 	total_replicas 	100000
scalar tree_4_3_u09_r12_network.statistics 	inner_hit 	0.39190805618241
scalar tree_4_3_u09_r12_network.node[0].core_layer 	interests[0] 	198455
scalar tree_4_3_u09_r12_network.node[0].core_layer 	repo_load[0] 	197248
scalar tree_4_3_u09_r12_network.node[0].core_layer 	data[0] 	0
scalar tree_4_3_u09_r12_network.node[0].core_layer 	repo_int[0] 	197248
scalar tree_4_3_u09_r12_network.node[0].content_store 	p_hit[0] 	0.0060819833211559
scalar tree_4_3_u09_r12_network.node[0].content_store 	hits[0] 	1207
scalar tree_4_3_u09_r12_network.node[0].content_store 	misses[0] 	197248
scalar tree_4_3_u09_r12_network.node[0].content_store 	decision_yes[0] 	197248
scalar tree_4_3_u09_r12_network.node[0].content_store 	decision_no[0] 	0
scalar tree_4_3_u09_r12_network.node[0].content_store 	decision_ratio[0] 	1
scalar tree_4_3_u09_r12_network.node[1].core_layer 	interests[1] 	144189
scalar tree_4_3_u09_r12_network.node[1].core_layer 	data[1] 	141674
scalar tree_4_3_u09_r12_network.node[1].content_store 	p_hit[1] 	0.017442384647927
scalar tree_4_3_u09_r12_network.node[1].content_store 	hits[1] 	2515
scalar tree_4_3_u09_r12_network.node[1].content_store 	misses[1] 	141674
scalar tree_4_3_u09_r12_network.node[1].content_store 	decision_yes[1] 	2573
scalar tree_4_3_u09_r12_network.node[1].content_store 	decision_no[1] 	139101
scalar tree_4_3_u09_r12_network.node[1].content_store 	decision_ratio[1] 	0.018161412820983
scalar tree_4_3_u09_r12_network.node[2].core_layer 	interests[2] 	47895
scalar tree_4_3_u09_r12_network.node[2].core_layer 	data[2] 	45679
scalar tree_4_3_u09_r12_network.node[2].content_store 	p_hit[2] 	0.046267877649024
scalar tree_4_3_u09_r12_network.node[2].content_store 	hits[2] 	2216
scalar tree_4_3_u09_r12_network.node[2].content_store 	misses[2] 	45679
scalar tree_4_3_u09_r12_network.node[2].content_store 	decision_yes[2] 	1623
scalar tree_4_3_u09_r12_network.node[2].content_store 	decision_no[2] 	44056
scalar tree_4_3_u09_r12_network.node[2].content_store 	decision_ratio[2] 	0.035530550143392
scalar tree_4_3_u09_r12_network.node[3].core_layer 	interests[3] 	19613
scalar tree_4_3_u09_r12_network.node[3].core_layer 	data[3] 	16904
scalar tree_4_3_u09_r12_network.node[3].content_store 	p_hit[3] 	0.13812267373681
scalar tree_4_3_u09_r12_network.node[3].content_store 	hits[3] 	2709
scalar tree_4_3_u09_r12_network.node[3].content_store 	misses[3] 	16904
scalar tree_4_3_u09_r12_network.node[3].content_store 	decision_yes[3] 	1530
scalar tree_4_3_u09_r12_network.node[3].content_store 	decision_no[3] 	15374
scalar tree_4_3_u09_r12_network.node[3].content_store 	decision_ratio[3] 	0.090511121628017
scalar tree_4_3_u09_r12_network.node[4].core_layer 	interests[4] 	41691
scalar tree_4_3_u09_r12_network.node[4].core_layer 	data[4] 	39511
scalar tree_4_3_u09_r12_network.node[4].content_store 	p_hit[4] 	0.052289462953635
scalar tree_4_3_u09_r12_network.node[4].content_store 	hits[4] 	2180
scalar tree_4_3_u09_r12_network.node[4].content_store 	misses[4] 	39511
scalar tree_4_3_u09_r12_network.node[4].content_store 	decision_yes[4] 	2153
scalar tree_4_3_u09_r12_network.node[4].content_store 	decision_no[4] 	37358
scalar tree_4_3_u09_r12_network.node[4].content_store 	decision_ratio[4] 	0.054491154362076
scalar tree_4_3_u09_r12_network.node[5].core_layer 	interests[5] 	27552
scalar tree_4_3_u09_r12_network.node[5].core_layer 	data[5] 	24969
scalar tree_4_3_u09_r12_network.node[5].content_store 	p_hit[5] 	0.093713704994193
scalar tree_4_3_u09_r12_network.node[5].content_store 	hits[5] 	2582
scalar tree_4_3_u09_r12_network.node[5].content_store 	misses[5] 	24970
scalar tree_4_3_u09_r12_network.node[5].content_store 	decision_yes[5] 	2631
scalar tree_4_3_u09_r12_network.node[5].content_store 	decision_no[5] 	22338
scalar tree_4_3_u09_r12_network.node[5].content_store 	decision_ratio[5] 	0.10537065961793
scalar tree_4_3_u09_r12_network.node[6].core_layer 	interests[6] 	12696
scalar tree_4_3_u09_r12_network.node[6].core_layer 	data[6] 	10075
scalar tree_4_3_u09_r12_network.node[6].content_store 	p_hit[6] 	0.20644297416509
scalar tree_4_3_u09_r12_network.node[6].content_store 	hits[6] 	2621
scalar tree_4_3_u09_r12_network.node[6].content_store 	misses[6] 	10075
scalar tree_4_3_u09_r12_network.node[6].content_store 	decision_yes[6] 	2349
scalar tree_4_3_u09_r12_network.node[6].content_store 	decision_no[6] 	7726
scalar tree_4_3_u09_r12_network.node[6].content_store 	decision_ratio[6] 	0.23315136476427
scalar tree_4_3_u09_r12_network.node[7].core_layer 	interests[7] 	43135
scalar tree_4_3_u09_r12_network.node[7].core_layer 	data[7] 	40619
scalar tree_4_3_u09_r12_network.node[7].content_store 	p_hit[7] 	0.05830532050539
scalar tree_4_3_u09_r12_network.node[7].content_store 	hits[7] 	2515
scalar tree_4_3_u09_r12_network.node[7].content_store 	misses[7] 	40620
scalar tree_4_3_u09_r12_network.node[7].content_store 	decision_yes[7] 	3105
scalar tree_4_3_u09_r12_network.node[7].content_store 	decision_no[7] 	37513
scalar tree_4_3_u09_r12_network.node[7].content_store 	decision_ratio[7] 	0.076443941109853
scalar tree_4_3_u09_r12_network.node[8].core_layer 	interests[8] 	26220
scalar tree_4_3_u09_r12_network.node[8].core_layer 	data[8] 	24128
scalar tree_4_3_u09_r12_network.node[8].content_store 	p_hit[8] 	0.07974828375286
scalar tree_4_3_u09_r12_network.node[8].content_store 	hits[8] 	2091
scalar tree_4_3_u09_r12_network.node[8].content_store 	misses[8] 	24129
scalar tree_4_3_u09_r12_network.node[8].content_store 	decision_yes[8] 	1627
scalar tree_4_3_u09_r12_network.node[8].content_store 	decision_no[8] 	22501
scalar tree_4_3_u09_r12_network.node[8].content_store 	decision_ratio[8] 	0.067432029177719
scalar tree_4_3_u09_r12_network.node[9].core_layer 	interests[9] 	12540
scalar tree_4_3_u09_r12_network.node[9].core_layer 	data[9] 	10019
scalar tree_4_3_u09_r12_network.node[9].content_store 	p_hit[9] 	0.20103668261563
scalar tree_4_3_u09_r12_network.node[9].content_store 	hits[9] 	2521
scalar tree_4_3_u09_r12_network.node[9].content_store 	misses[9] 	10019
scalar tree_4_3_u09_r12_network.node[9].content_store 	decision_yes[9] 	2167
scalar tree_4_3_u09_r12_network.node[9].content_store 	decision_no[9] 	7852
scalar tree_4_3_u09_r12_network.node[9].content_store 	decision_ratio[9] 	0.21628905080347
scalar tree_4_3_u09_r12_network.node[10].core_layer 	interests[10] 	43878
scalar tree_4_3_u09_r12_network.node[10].core_layer 	data[10] 	41192
scalar tree_4_3_u09_r12_network.node[10].content_store 	p_hit[10] 	0.061169606636583
scalar tree_4_3_u09_r12_network.node[10].content_store 	hits[10] 	2684
scalar tree_4_3_u09_r12_network.node[10].content_store 	misses[10] 	41194
scalar tree_4_3_u09_r12_network.node[10].content_store 	decision_yes[10] 	3288
scalar tree_4_3_u09_r12_network.node[10].content_store 	decision_no[10] 	37904
scalar tree_4_3_u09_r12_network.node[10].content_store 	decision_ratio[10] 	0.079821324529035
scalar tree_4_3_u09_r12_network.node[11].core_layer 	interests[11] 	18322
scalar tree_4_3_u09_r12_network.node[11].core_layer 	data[11] 	16745
scalar tree_4_3_u09_r12_network.node[11].content_store 	p_hit[11] 	0.08607138958629
scalar tree_4_3_u09_r12_network.node[11].content_store 	hits[11] 	1577
scalar tree_4_3_u09_r12_network.node[11].content_store 	misses[11] 	16745
scalar tree_4_3_u09_r12_network.node[11].content_store 	decision_yes[11] 	1368
scalar tree_4_3_u09_r12_network.node[11].content_store 	decision_no[11] 	15377
scalar tree_4_3_u09_r12_network.node[11].content_store 	decision_ratio[11] 	0.081696028665273
scalar tree_4_3_u09_r12_network.node[12].core_layer 	interests[12] 	19643
scalar tree_4_3_u09_r12_network.node[12].core_layer 	data[12] 	17560
scalar tree_4_3_u09_r12_network.node[12].content_store 	p_hit[12] 	0.1060428651428
scalar tree_4_3_u09_r12_network.node[12].content_store 	hits[12] 	2083
scalar tree_4_3_u09_r12_network.node[12].content_store 	misses[12] 	17560
scalar tree_4_3_u09_r12_network.node[12].content_store 	decision_yes[12] 	1873
scalar tree_4_3_u09_r12_network.node[12].content_store 	decision_no[12] 	15687
scalar tree_4_3_u09_r12_network.node[12].content_store 	decision_ratio[12] 	0.10666287015945
scalar tree_4_3_u09_r12_network.node[13].core_layer 	interests[13] 	12497
scalar tree_4_3_u09_r12_network.node[13].core_layer 	data[13] 	8938
scalar tree_4_3_u09_r12_network.node[13].content_store 	p_hit[13] 	0.28478834920381
scalar tree_4_3_u09_r12_network.node[13].content_store 	hits[13] 	3559
scalar tree_4_3_u09_r12_network.node[13].content_store 	misses[13] 	8938
scalar tree_4_3_u09_r12_network.node[13].content_store 	decision_yes[13] 	405
scalar tree_4_3_u09_r12_network.node[13].content_store 	decision_no[13] 	8533
scalar tree_4_3_u09_r12_network.node[13].content_store 	decision_ratio[13] 	0.04531215036921
scalar tree_4_3_u09_r12_network.node[14].core_layer 	interests[14] 	12561
scalar tree_4_3_u09_r12_network.node[14].core_layer 	data[14] 	8857
scalar tree_4_3_u09_r12_network.node[14].content_store 	p_hit[14] 	0.29488098081363
scalar tree_4_3_u09_r12_network.node[14].content_store 	hits[14] 	3704
scalar tree_4_3_u09_r12_network.node[14].content_store 	misses[14] 	8857
scalar tree_4_3_u09_r12_network.node[14].content_store 	decision_yes[14] 	759
scalar tree_4_3_u09_r12_network.node[14].content_store 	decision_no[14] 	8098
scalar tree_4_3_u09_r12_network.node[14].content_store 	decision_ratio[14] 	0.085694930563396
scalar tree_4_3_u09_r12_network.node[15].core_layer 	interests[15] 	12721
scalar tree_4_3_u09_r12_network.node[15].core_layer 	data[15] 	8990
scalar tree_4_3_u09_r12_network.node[15].content_store 	p_hit[15] 	0.29329455231507
scalar tree_4_3_u09_r12_network.node[15].content_store 	hits[15] 	3731
scalar tree_4_3_u09_r12_network.node[15].content_store 	misses[15] 	8990
scalar tree_4_3_u09_r12_network.node[15].content_store 	decision_yes[15] 	786
scalar tree_4_3_u09_r12_network.node[15].content_store 	decision_no[15] 	8204
scalar tree_4_3_u09_r12_network.node[15].content_store 	decision_ratio[15] 	0.087430478309232
scalar tree_4_3_u09_r12_network.node[16].core_layer 	interests[16] 	12518
scalar tree_4_3_u09_r12_network.node[16].core_layer 	data[16] 	8809
scalar tree_4_3_u09_r12_network.node[16].content_store 	p_hit[16] 	0.29621345262822
scalar tree_4_3_u09_r12_network.node[16].content_store 	hits[16] 	3708
scalar tree_4_3_u09_r12_network.node[16].content_store 	misses[16] 	8810
scalar tree_4_3_u09_r12_network.node[16].content_store 	decision_yes[16] 	695
scalar tree_4_3_u09_r12_network.node[16].content_store 	decision_no[16] 	8114
scalar tree_4_3_u09_r12_network.node[16].content_store 	decision_ratio[16] 	0.078896583040073
scalar tree_4_3_u09_r12_network.node[17].core_layer 	interests[17] 	12227
scalar tree_4_3_u09_r12_network.node[17].core_layer 	data[17] 	8747
scalar tree_4_3_u09_r12_network.node[17].content_store 	p_hit[17] 	0.28461601374008
scalar tree_4_3_u09_r12_network.node[17].content_store 	hits[17] 	3480
scalar tree_4_3_u09_r12_network.node[17].content_store 	misses[17] 	8747
scalar tree_4_3_u09_r12_network.node[17].content_store 	decision_yes[17] 	462
scalar tree_4_3_u09_r12_network.node[17].content_store 	decision_no[17] 	8285
scalar tree_4_3_u09_r12_network.node[17].content_store 	decision_ratio[17] 	0.052818109065965
scalar tree_4_3_u09_r12_network.node[18].core_layer 	interests[18] 	12515
scalar tree_4_3_u09_r12_network.node[18].core_layer 	data[18] 	8885
scalar tree_4_3_u09_r12_network.node[18].content_store 	p_hit[18] 	0.29005193767479
scalar tree_4_3_u09_r12_network.node[18].content_store 	hits[18] 	3630
scalar tree_4_3_u09_r12_network.node[18].content_store 	misses[18] 	8885
scalar tree_4_3_u09_r12_network.node[18].content_store 	decision_yes[18] 	790
scalar tree_4_3_u09_r12_network.node[18].content_store 	decision_no[18] 	8095
scalar tree_4_3_u09_r12_network.node[18].content_store 	decision_ratio[18] 	0.088913899831176
scalar tree_4_3_u09_r12_network.node[19].core_layer 	interests[19] 	12453
scalar tree_4_3_u09_r12_network.node[19].core_layer 	data[19] 	8858
scalar tree_4_3_u09_r12_network.node[19].content_store 	p_hit[19] 	0.2887657592548
scalar tree_4_3_u09_r12_network.node[19].content_store 	hits[19] 	3596
scalar tree_4_3_u09_r12_network.node[19].content_store 	misses[19] 	8857
scalar tree_4_3_u09_r12_network.node[19].content_store 	decision_yes[19] 	747
scalar tree_4_3_u09_r12_network.node[19].content_store 	decision_no[19] 	8111
scalar tree_4_3_u09_r12_network.node[19].content_store 	decision_ratio[19] 	0.084330548656582
scalar tree_4_3_u09_r12_network.node[20].core_layer 	interests[20] 	12763
scalar tree_4_3_u09_r12_network.node[20].core_layer 	data[20] 	9024
scalar tree_4_3_u09_r12_network.node[20].content_store 	p_hit[20] 	0.29295620152002
scalar tree_4_3_u09_r12_network.node[20].content_store 	hits[20] 	3739
scalar tree_4_3_u09_r12_network.node[20].content_store 	misses[20] 	9024
scalar tree_4_3_u09_r12_network.node[20].content_store 	decision_yes[20] 	773
scalar tree_4_3_u09_r12_network.node[20].content_store 	decision_no[20] 	8251
scalar tree_4_3_u09_r12_network.node[20].content_store 	decision_ratio[20] 	0.085660460992908
scalar tree_4_3_u09_r12_network.node[21].core_layer 	interests[21] 	12352
scalar tree_4_3_u09_r12_network.node[21].core_layer 	data[21] 	8796
scalar tree_4_3_u09_r12_network.node[21].content_store 	p_hit[21] 	0.28788860103627
scalar tree_4_3_u09_r12_network.node[21].content_store 	hits[21] 	3556
scalar tree_4_3_u09_r12_network.node[21].content_store 	misses[21] 	8796
scalar tree_4_3_u09_r12_network.node[21].content_store 	decision_yes[21] 	416
scalar tree_4_3_u09_r12_network.node[21].content_store 	decision_no[21] 	8380
scalar tree_4_3_u09_r12_network.node[21].content_store 	decision_ratio[21] 	0.047294224647567
scalar tree_4_3_u09_r12_network.node[22].core_layer 	interests[22] 	12426
scalar tree_4_3_u09_r12_network.node[22].core_layer 	data[22] 	8959
scalar tree_4_3_u09_r12_network.node[22].content_store 	p_hit[22] 	0.27893127313697
scalar tree_4_3_u09_r12_network.node[22].content_store 	hits[22] 	3466
scalar tree_4_3_u09_r12_network.node[22].content_store 	misses[22] 	8960
scalar tree_4_3_u09_r12_network.node[22].content_store 	decision_yes[22] 	392
scalar tree_4_3_u09_r12_network.node[22].content_store 	decision_no[22] 	8567
scalar tree_4_3_u09_r12_network.node[22].content_store 	decision_ratio[22] 	0.043754883357518
scalar tree_4_3_u09_r12_network.node[23].core_layer 	interests[23] 	12471
scalar tree_4_3_u09_r12_network.node[23].core_layer 	data[23] 	8877
scalar tree_4_3_u09_r12_network.node[23].content_store 	p_hit[23] 	0.28818859754631
scalar tree_4_3_u09_r12_network.node[23].content_store 	hits[23] 	3594
scalar tree_4_3_u09_r12_network.node[23].content_store 	misses[23] 	8877
scalar tree_4_3_u09_r12_network.node[23].content_store 	decision_yes[23] 	756
scalar tree_4_3_u09_r12_network.node[23].content_store 	decision_no[23] 	8121
scalar tree_4_3_u09_r12_network.node[23].content_store 	decision_ratio[23] 	0.085163906725245
scalar tree_4_3_u09_r12_network.node[24].core_layer 	interests[24] 	12688
scalar tree_4_3_u09_r12_network.node[24].core_layer 	data[24] 	9040
scalar tree_4_3_u09_r12_network.node[24].content_store 	p_hit[24] 	0.2875157629256
scalar tree_4_3_u09_r12_network.node[24].content_store 	hits[24] 	3648
scalar tree_4_3_u09_r12_network.node[24].content_store 	misses[24] 	9040
scalar tree_4_3_u09_r12_network.node[24].content_store 	decision_yes[24] 	758
scalar tree_4_3_u09_r12_network.node[24].content_store 	decision_no[24] 	8282
scalar tree_4_3_u09_r12_network.node[24].content_store 	decision_ratio[24] 	0.083849557522124
scalar tree_4_3_u09_r12_network.node[25].core_layer 	interests[25] 	12585
scalar tree_4_3_u09_r12_network.node[25].core_layer 	data[25] 	8915
scalar tree_4_3_u09_r12_network.node[25].content_store 	p_hit[25] 	0.2916964640445
scalar tree_4_3_u09_r12_network.node[25].content_store 	hits[25] 	3671
scalar tree_4_3_u09_r12_network.node[25].content_store 	misses[25] 	8914
scalar tree_4_3_u09_r12_network.node[25].content_store 	decision_yes[25] 	720
scalar tree_4_3_u09_r12_network.node[25].content_store 	decision_no[25] 	8195
scalar tree_4_3_u09_r12_network.node[25].content_store 	decision_ratio[25] 	0.080762759394279
scalar tree_4_3_u09_r12_network.node[26].core_layer 	interests[26] 	12174
scalar tree_4_3_u09_r12_network.node[26].core_layer 	data[26] 	8684
scalar tree_4_3_u09_r12_network.node[26].content_store 	p_hit[26] 	0.28667652373912
scalar tree_4_3_u09_r12_network.node[26].content_store 	hits[26] 	3490
scalar tree_4_3_u09_r12_network.node[26].content_store 	misses[26] 	8684
scalar tree_4_3_u09_r12_network.node[26].content_store 	decision_yes[26] 	388
scalar tree_4_3_u09_r12_network.node[26].content_store 	decision_no[26] 	8296
scalar tree_4_3_u09_r12_network.node[26].content_store 	decision_ratio[26] 	0.044679871027176
scalar tree_4_3_u09_r12_network.node[27].core_layer 	interests[27] 	12538
scalar tree_4_3_u09_r12_network.node[27].core_layer 	data[27] 	8842
scalar tree_4_3_u09_r12_network.node[27].content_store 	p_hit[27] 	0.29470409953741
scalar tree_4_3_u09_r12_network.node[27].content_store 	hits[27] 	3695
scalar tree_4_3_u09_r12_network.node[27].content_store 	misses[27] 	8843
scalar tree_4_3_u09_r12_network.node[27].content_store 	decision_yes[27] 	761
scalar tree_4_3_u09_r12_network.node[27].content_store 	decision_no[27] 	8081
scalar tree_4_3_u09_r12_network.node[27].content_store 	decision_ratio[27] 	0.086066500791676
scalar tree_4_3_u09_r12_network.node[28].core_layer 	interests[28] 	12595
scalar tree_4_3_u09_r12_network.node[28].core_layer 	data[28] 	8947
scalar tree_4_3_u09_r12_network.node[28].content_store 	p_hit[28] 	0.28963874553394
scalar tree_4_3_u09_r12_network.node[28].content_store 	hits[28] 	3648
scalar tree_4_3_u09_r12_network.node[28].content_store 	misses[28] 	8947
scalar tree_4_3_u09_r12_network.node[28].content_store 	decision_yes[28] 	788
scalar tree_4_3_u09_r12_network.node[28].content_store 	decision_no[28] 	8159
scalar tree_4_3_u09_r12_network.node[28].content_store 	decision_ratio[28] 	0.08807421482061
scalar tree_4_3_u09_r12_network.node[29].core_layer 	interests[29] 	12556
scalar tree_4_3_u09_r12_network.node[29].core_layer 	data[29] 	8912
scalar tree_4_3_u09_r12_network.node[29].content_store 	p_hit[29] 	0.29014017202931
scalar tree_4_3_u09_r12_network.node[29].content_store 	hits[29] 	3643
scalar tree_4_3_u09_r12_network.node[29].content_store 	misses[29] 	8913
scalar tree_4_3_u09_r12_network.node[29].content_store 	decision_yes[29] 	724
scalar tree_4_3_u09_r12_network.node[29].content_store 	decision_no[29] 	8188
scalar tree_4_3_u09_r12_network.node[29].content_store 	decision_ratio[29] 	0.081238779174147
scalar tree_4_3_u09_r12_network.node[30].core_layer 	interests[30] 	12335
scalar tree_4_3_u09_r12_network.node[30].core_layer 	data[30] 	8825
scalar tree_4_3_u09_r12_network.node[30].content_store 	p_hit[30] 	0.28455614106202
scalar tree_4_3_u09_r12_network.node[30].content_store 	hits[30] 	3510
scalar tree_4_3_u09_r12_network.node[30].content_store 	misses[30] 	8825
scalar tree_4_3_u09_r12_network.node[30].content_store 	decision_yes[30] 	393
scalar tree_4_3_u09_r12_network.node[30].content_store 	decision_no[30] 	8432
scalar tree_4_3_u09_r12_network.node[30].content_store 	decision_ratio[30] 	0.044532577903683
scalar tree_4_3_u09_r12_network.node[31].core_layer 	interests[31] 	12444
scalar tree_4_3_u09_r12_network.node[31].core_layer 	data[31] 	8833
scalar tree_4_3_u09_r12_network.node[31].content_store 	p_hit[31] 	0.29009964641594
scalar tree_4_3_u09_r12_network.node[31].content_store 	hits[31] 	3610
scalar tree_4_3_u09_r12_network.node[31].content_store 	misses[31] 	8834
scalar tree_4_3_u09_r12_network.node[31].content_store 	decision_yes[31] 	421
scalar tree_4_3_u09_r12_network.node[31].content_store 	decision_no[31] 	8412
scalar tree_4_3_u09_r12_network.node[31].content_store 	decision_ratio[31] 	0.047662175931167
scalar tree_4_3_u09_r12_network.node[32].core_layer 	interests[32] 	12444
scalar tree_4_3_u09_r12_network.node[32].core_layer 	data[32] 	8933
scalar tree_4_3_u09_r12_network.node[32].content_store 	p_hit[32] 	0.28214400514304
scalar tree_4_3_u09_r12_network.node[32].content_store 	hits[32] 	3511
scalar tree_4_3_u09_r12_network.node[32].content_store 	misses[32] 	8933
scalar tree_4_3_u09_r12_network.node[32].content_store 	decision_yes[32] 	416
scalar tree_4_3_u09_r12_network.node[32].content_store 	decision_no[32] 	8517
scalar tree_4_3_u09_r12_network.node[32].content_store 	decision_ratio[32] 	0.046568901824695
scalar tree_4_3_u09_r12_network.node[33].core_layer 	interests[33] 	12849
scalar tree_4_3_u09_r12_network.node[33].core_layer 	data[33] 	9033
scalar tree_4_3_u09_r12_network.node[33].content_store 	p_hit[33] 	0.29698809245856
scalar tree_4_3_u09_r12_network.node[33].content_store 	hits[33] 	3816
scalar tree_4_3_u09_r12_network.node[33].content_store 	misses[33] 	9033
scalar tree_4_3_u09_r12_network.node[33].content_store 	decision_yes[33] 	740
scalar tree_4_3_u09_r12_network.node[33].content_store 	decision_no[33] 	8293
scalar tree_4_3_u09_r12_network.node[33].content_store 	decision_ratio[33] 	0.081921842134396
scalar tree_4_3_u09_r12_network.node[34].core_layer 	interests[34] 	12608
scalar tree_4_3_u09_r12_network.node[34].core_layer 	data[34] 	8934
scalar tree_4_3_u09_r12_network.node[34].content_store 	p_hit[34] 	0.29140228426396
scalar tree_4_3_u09_r12_network.node[34].content_store 	hits[34] 	3674
scalar tree_4_3_u09_r12_network.node[34].content_store 	misses[34] 	8934
scalar tree_4_3_u09_r12_network.node[34].content_store 	decision_yes[34] 	744
scalar tree_4_3_u09_r12_network.node[34].content_store 	decision_no[34] 	8190
scalar tree_4_3_u09_r12_network.node[34].content_store 	decision_ratio[34] 	0.083277367360645
scalar tree_4_3_u09_r12_network.node[35].core_layer 	interests[35] 	12205
scalar tree_4_3_u09_r12_network.node[35].core_layer 	data[35] 	8863
scalar tree_4_3_u09_r12_network.node[35].content_store 	p_hit[35] 	0.27382220401475
scalar tree_4_3_u09_r12_network.node[35].content_store 	hits[35] 	3342
scalar tree_4_3_u09_r12_network.node[35].content_store 	misses[35] 	8863
scalar tree_4_3_u09_r12_network.node[35].content_store 	decision_yes[35] 	369
scalar tree_4_3_u09_r12_network.node[35].content_store 	decision_no[35] 	8494
scalar tree_4_3_u09_r12_network.node[35].content_store 	decision_ratio[35] 	0.04163375832111
scalar tree_4_3_u09_r12_network.node[36].core_layer 	interests[36] 	12478
scalar tree_4_3_u09_r12_network.node[36].core_layer 	data[36] 	8797
scalar tree_4_3_u09_r12_network.node[36].content_store 	p_hit[36] 	0.29499919858952
scalar tree_4_3_u09_r12_network.node[36].content_store 	hits[36] 	3681
scalar tree_4_3_u09_r12_network.node[36].content_store 	misses[36] 	8797
scalar tree_4_3_u09_r12_network.node[36].content_store 	decision_yes[36] 	641
scalar tree_4_3_u09_r12_network.node[36].content_store 	decision_no[36] 	8156
scalar tree_4_3_u09_r12_network.node[36].content_store 	decision_ratio[36] 	0.072865749687393
scalar tree_4_3_u09_r12_network.node[37].core_layer 	interests[37] 	12754
scalar tree_4_3_u09_r12_network.node[37].core_layer 	data[37] 	8947
scalar tree_4_3_u09_r12_network.node[37].content_store 	p_hit[37] 	0.29841618315822
scalar tree_4_3_u09_r12_network.node[37].content_store 	hits[37] 	3806
scalar tree_4_3_u09_r12_network.node[37].content_store 	misses[37] 	8948
scalar tree_4_3_u09_r12_network.node[37].content_store 	decision_yes[37] 	760
scalar tree_4_3_u09_r12_network.node[37].content_store 	decision_no[37] 	8187
scalar tree_4_3_u09_r12_network.node[37].content_store 	decision_ratio[37] 	0.084944674192467
scalar tree_4_3_u09_r12_network.node[38].core_layer 	interests[38] 	12315
scalar tree_4_3_u09_r12_network.node[38].core_layer 	data[38] 	8727
scalar tree_4_3_u09_r12_network.node[38].content_store 	p_hit[38] 	0.29135200974421
scalar tree_4_3_u09_r12_network.node[38].content_store 	hits[38] 	3588
scalar tree_4_3_u09_r12_network.node[38].content_store 	misses[38] 	8727
scalar tree_4_3_u09_r12_network.node[38].content_store 	decision_yes[38] 	365
scalar tree_4_3_u09_r12_network.node[38].content_store 	decision_no[38] 	8362
scalar tree_4_3_u09_r12_network.node[38].content_store 	decision_ratio[38] 	0.041824223673656
scalar tree_4_3_u09_r12_network.node[39].core_layer 	interests[39] 	12427
scalar tree_4_3_u09_r12_network.node[39].core_layer 	data[39] 	8902
scalar tree_4_3_u09_r12_network.node[39].content_store 	p_hit[39] 	0.28365655427698
scalar tree_4_3_u09_r12_network.node[39].content_store 	hits[39] 	3525
scalar tree_4_3_u09_r12_network.node[39].content_store 	misses[39] 	8902
scalar tree_4_3_u09_r12_network.node[39].content_store 	decision_yes[39] 	366
scalar tree_4_3_u09_r12_network.node[39].content_store 	decision_no[39] 	8536
scalar tree_4_3_u09_r12_network.node[39].content_store 	decision_ratio[39] 	0.041114356324421
scalar tree_4_3_u09_r12_network.client[13] 	hdistance[13] 	2.6928045789043
scalar tree_4_3_u09_r12_network.client[13] 	downloads[13] 	12230
scalar tree_4_3_u09_r12_network.client[13] 	avg_time[13] 	0.00416483748
scalar tree_4_3_u09_r12_network.client[14] 	hdistance[14] 	2.6578329419658
scalar tree_4_3_u09_r12_network.client[14] 	downloads[14] 	11924
scalar tree_4_3_u09_r12_network.client[14] 	avg_time[14] 	0.004099124804
scalar tree_4_3_u09_r12_network.client[15] 	hdistance[15] 	2.6467517401392
scalar tree_4_3_u09_r12_network.client[15] 	downloads[15] 	12068
scalar tree_4_3_u09_r12_network.client[15] 	avg_time[15] 	0.00409230725
scalar tree_4_3_u09_r12_network.client[16] 	hdistance[16] 	2.6559112679607
scalar tree_4_3_u09_r12_network.client[16] 	downloads[16] 	11901
scalar tree_4_3_u09_r12_network.client[16] 	avg_time[16] 	0.004100409569
scalar tree_4_3_u09_r12_network.client[17] 	hdistance[17] 	2.6555248387367
scalar tree_4_3_u09_r12_network.client[17] 	downloads[17] 	11937
scalar tree_4_3_u09_r12_network.client[17] 	avg_time[17] 	0.00410756175
scalar tree_4_3_u09_r12_network.client[18] 	hdistance[18] 	2.6602785985648
scalar tree_4_3_u09_r12_network.client[18] 	downloads[18] 	11845
scalar tree_4_3_u09_r12_network.client[18] 	avg_time[18] 	0.004107046432
scalar tree_4_3_u09_r12_network.client[19] 	hdistance[19] 	2.6780978123152
scalar tree_4_3_u09_r12_network.client[19] 	downloads[19] 	11839
scalar tree_4_3_u09_r12_network.client[19] 	avg_time[19] 	0.004132271725
scalar tree_4_3_u09_r12_network.client[20] 	hdistance[20] 	2.6386873350924
scalar tree_4_3_u09_r12_network.client[20] 	downloads[20] 	12128
scalar tree_4_3_u09_r12_network.client[20] 	avg_time[20] 	0.004077461668
scalar tree_4_3_u09_r12_network.client[21] 	hdistance[21] 	2.6588831643676
scalar tree_4_3_u09_r12_network.client[21] 	downloads[21] 	12034
scalar tree_4_3_u09_r12_network.client[21] 	avg_time[21] 	0.004116167816
scalar tree_4_3_u09_r12_network.client[22] 	hdistance[22] 	2.7111443033773
scalar tree_4_3_u09_r12_network.client[22] 	downloads[22] 	12051
scalar tree_4_3_u09_r12_network.client[22] 	avg_time[22] 	0.004195167494
scalar tree_4_3_u09_r12_network.client[23] 	hdistance[23] 	2.6735777496839
scalar tree_4_3_u09_r12_network.client[23] 	downloads[23] 	11865
scalar tree_4_3_u09_r12_network.client[23] 	avg_time[23] 	0.004126587839
scalar tree_4_3_u09_r12_network.client[24] 	hdistance[24] 	2.6691274054413
scalar tree_4_3_u09_r12_network.client[24] 	downloads[24] 	12056
scalar tree_4_3_u09_r12_network.client[24] 	avg_time[24] 	0.004120932629
scalar tree_4_3_u09_r12_network.client[25] 	hdistance[25] 	2.6628256513026
scalar tree_4_3_u09_r12_network.client[25] 	downloads[25] 	11976
scalar tree_4_3_u09_r12_network.client[25] 	avg_time[25] 	0.004111553448
scalar tree_4_3_u09_r12_network.client[26] 	hdistance[26] 	2.6840827262832
scalar tree_4_3_u09_r12_network.client[26] 	downloads[26] 	11943
scalar tree_4_3_u09_r12_network.client[26] 	avg_time[26] 	0.004145689052
scalar tree_4_3_u09_r12_network.client[27] 	hdistance[27] 	2.6338802365287
scalar tree_4_3_u09_r12_network.client[27] 	downloads[27] 	12007
scalar tree_4_3_u09_r12_network.client[27] 	avg_time[27] 	0.004067124501
scalar tree_4_3_u09_r12_network.client[28] 	hdistance[28] 	2.6607247468408
scalar tree_4_3_u09_r12_network.client[28] 	downloads[28] 	11949
scalar tree_4_3_u09_r12_network.client[28] 	avg_time[28] 	0.004105947301
scalar tree_4_3_u09_r12_network.client[29] 	hdistance[29] 	2.6683601232614
scalar tree_4_3_u09_r12_network.client[29] 	downloads[29] 	12007
scalar tree_4_3_u09_r12_network.client[29] 	avg_time[29] 	0.004113763985
scalar tree_4_3_u09_r12_network.client[30] 	hdistance[30] 	2.6662250558913
scalar tree_4_3_u09_r12_network.client[30] 	downloads[30] 	12077
scalar tree_4_3_u09_r12_network.client[30] 	avg_time[30] 	0.004127677685
scalar tree_4_3_u09_r12_network.client[31] 	hdistance[31] 	2.6703387724675
scalar tree_4_3_u09_r12_network.client[31] 	downloads[31] 	12073
scalar tree_4_3_u09_r12_network.client[31] 	avg_time[31] 	0.004127237582
scalar tree_4_3_u09_r12_network.client[32] 	hdistance[32] 	2.6952057630206
scalar tree_4_3_u09_r12_network.client[32] 	downloads[32] 	12077
scalar tree_4_3_u09_r12_network.client[32] 	avg_time[32] 	0.004169701337
scalar tree_4_3_u09_r12_network.client[33] 	hdistance[33] 	2.6587945879459
scalar tree_4_3_u09_r12_network.client[33] 	downloads[33] 	12195
scalar tree_4_3_u09_r12_network.client[33] 	avg_time[33] 	0.00410052998
scalar tree_4_3_u09_r12_network.client[34] 	hdistance[34] 	2.6627450980392
scalar tree_4_3_u09_r12_network.client[34] 	downloads[34] 	11985
scalar tree_4_3_u09_r12_network.client[34] 	avg_time[34] 	0.004105611563
scalar tree_4_3_u09_r12_network.client[35] 	hdistance[35] 	2.703288490284
scalar tree_4_3_u09_r12_network.client[35] 	downloads[35] 	12042
scalar tree_4_3_u09_r12_network.client[35] 	avg_time[35] 	0.004187507364
scalar tree_4_3_u09_r12_network.client[36] 	hdistance[36] 	2.6751490719745
scalar tree_4_3_u09_r12_network.client[36] 	downloads[36] 	11907
scalar tree_4_3_u09_r12_network.client[36] 	avg_time[36] 	0.004126309278
scalar tree_4_3_u09_r12_network.client[37] 	hdistance[37] 	2.650629347466
scalar tree_4_3_u09_r12_network.client[37] 	downloads[37] 	12076
scalar tree_4_3_u09_r12_network.client[37] 	avg_time[37] 	0.004091141778
scalar tree_4_3_u09_r12_network.client[38] 	hdistance[38] 	2.6904742131052
scalar tree_4_3_u09_r12_network.client[38] 	downloads[38] 	12041
scalar tree_4_3_u09_r12_network.client[38] 	avg_time[38] 	0.004148323542
scalar tree_4_3_u09_r12_network.client[39] 	hdistance[39] 	2.7185929648241
scalar tree_4_3_u09_r12_network.client[39] 	downloads[39] 	12139
scalar tree_4_3_u09_r12_network.client[39] 	avg_time[39] 	0.004194082169
