version 2
run General-198-20160819-14:16:21-2054
attr a 0.9
attr cd lcd
attr configname General
attr cr lru
attr datetime 20160819-14:16:21
attr experiment General
attr fsize 1
attr inifile hw5115/scenario_A/NRR-LCD.ini
attr iterationvars "$name=tree_4_3, $un=09, $rep=19, $cd=lcd, $cr=lru, $fsize=1, $a=0.9, $sl=nrr, $ttl=1000, $variance=0.05"
attr iterationvars2 "$name=tree_4_3, $un=09, $rep=19, $cd=lcd, $cr=lru, $fsize=1, $a=0.9, $sl=nrr, $ttl=1000, $variance=0.05, $repetition=0"
attr measurement "$name=tree_4_3, $un=09, $rep=19, $cd=lcd, $cr=lru, $fsize=1, $a=0.9, $sl=nrr, $ttl=1000, $variance=0.05"
attr name tree_4_3
attr network networks.${name}_u${un}_r${rep}_network
attr processid 2054
attr rep 19
attr repetition 0
attr replication #0
attr resultdir results
attr runnumber 198
attr seedset 19
attr sl nrr
attr ttl 1000
attr un 09
attr variance 0.05

scalar . 	a 	0.9
scalar . 	fsize 	1
scalar . 	rep 	19
scalar . 	ttl 	1000
scalar . 	un 	09
scalar . 	variance 	0.05
scalar tree_4_3_u09_r19_network.content_distribution 	repo-0 	0
scalar tree_4_3_u09_r19_network.content_distribution 	client-0 	13
scalar tree_4_3_u09_r19_network.content_distribution 	client-1 	14
scalar tree_4_3_u09_r19_network.content_distribution 	client-2 	15
scalar tree_4_3_u09_r19_network.content_distribution 	client-3 	16
scalar tree_4_3_u09_r19_network.content_distribution 	client-4 	17
scalar tree_4_3_u09_r19_network.content_distribution 	client-5 	18
scalar tree_4_3_u09_r19_network.content_distribution 	client-6 	19
scalar tree_4_3_u09_r19_network.content_distribution 	client-7 	20
scalar tree_4_3_u09_r19_network.content_distribution 	client-8 	21
scalar tree_4_3_u09_r19_network.content_distribution 	client-9 	22
scalar tree_4_3_u09_r19_network.content_distribution 	client-10 	23
scalar tree_4_3_u09_r19_network.content_distribution 	client-11 	24
scalar tree_4_3_u09_r19_network.content_distribution 	client-12 	25
scalar tree_4_3_u09_r19_network.content_distribution 	client-13 	26
scalar tree_4_3_u09_r19_network.content_distribution 	client-14 	27
scalar tree_4_3_u09_r19_network.content_distribution 	client-15 	28
scalar tree_4_3_u09_r19_network.content_distribution 	client-16 	29
scalar tree_4_3_u09_r19_network.content_distribution 	client-17 	30
scalar tree_4_3_u09_r19_network.content_distribution 	client-18 	31
scalar tree_4_3_u09_r19_network.content_distribution 	client-19 	32
scalar tree_4_3_u09_r19_network.content_distribution 	client-20 	33
scalar tree_4_3_u09_r19_network.content_distribution 	client-21 	34
scalar tree_4_3_u09_r19_network.content_distribution 	client-22 	35
scalar tree_4_3_u09_r19_network.content_distribution 	client-23 	36
scalar tree_4_3_u09_r19_network.content_distribution 	client-24 	37
scalar tree_4_3_u09_r19_network.content_distribution 	client-25 	38
scalar tree_4_3_u09_r19_network.content_distribution 	client-26 	39
scalar tree_4_3_u09_r19_network.content_distribution 	repo-0_card 	100000
scalar tree_4_3_u09_r19_network.content_distribution 	repo-0_price 	0
scalar tree_4_3_u09_r19_network.statistics 	stabilization_time 	882.6
scalar tree_4_3_u09_r19_network.statistics 	p_hit 	0.22668890870176
scalar tree_4_3_u09_r19_network.statistics 	interests 	24821
scalar tree_4_3_u09_r19_network.statistics 	data 	16708.575
scalar tree_4_3_u09_r19_network.statistics 	hdistance 	2.6664766275752
scalar tree_4_3_u09_r19_network.statistics 	avg_time 	0.004119431623
scalar tree_4_3_u09_r19_network.statistics 	downloads 	324489
scalar tree_4_3_u09_r19_network.statistics 	total_cost 	0
scalar tree_4_3_u09_r19_network.statistics 	total_replicas 	100000
scalar tree_4_3_u09_r19_network.statistics 	inner_hit 	0.39326756839215
scalar tree_4_3_u09_r19_network.node[0].core_layer 	interests[0] 	198058
scalar tree_4_3_u09_r19_network.node[0].core_layer 	repo_load[0] 	196878
scalar tree_4_3_u09_r19_network.node[0].core_layer 	data[0] 	0
scalar tree_4_3_u09_r19_network.node[0].core_layer 	repo_int[0] 	196878
scalar tree_4_3_u09_r19_network.node[0].content_store 	p_hit[0] 	0.0059578507305941
scalar tree_4_3_u09_r19_network.node[0].content_store 	hits[0] 	1180
scalar tree_4_3_u09_r19_network.node[0].content_store 	misses[0] 	196878
scalar tree_4_3_u09_r19_network.node[0].content_store 	decision_yes[0] 	196878
scalar tree_4_3_u09_r19_network.node[0].content_store 	decision_no[0] 	0
scalar tree_4_3_u09_r19_network.node[0].content_store 	decision_ratio[0] 	1
scalar tree_4_3_u09_r19_network.node[1].core_layer 	interests[1] 	144195
scalar tree_4_3_u09_r19_network.node[1].core_layer 	data[1] 	141684
scalar tree_4_3_u09_r19_network.node[1].content_store 	p_hit[1] 	0.017372308332466
scalar tree_4_3_u09_r19_network.node[1].content_store 	hits[1] 	2505
scalar tree_4_3_u09_r19_network.node[1].content_store 	misses[1] 	141690
scalar tree_4_3_u09_r19_network.node[1].content_store 	decision_yes[1] 	2752
scalar tree_4_3_u09_r19_network.node[1].content_store 	decision_no[1] 	138932
scalar tree_4_3_u09_r19_network.node[1].content_store 	decision_ratio[1] 	0.019423505829875
scalar tree_4_3_u09_r19_network.node[2].core_layer 	interests[2] 	55708
scalar tree_4_3_u09_r19_network.node[2].core_layer 	data[2] 	53283
scalar tree_4_3_u09_r19_network.node[2].content_store 	p_hit[2] 	0.04353055216486
scalar tree_4_3_u09_r19_network.node[2].content_store 	hits[2] 	2425
scalar tree_4_3_u09_r19_network.node[2].content_store 	misses[2] 	53283
scalar tree_4_3_u09_r19_network.node[2].content_store 	decision_yes[2] 	1739
scalar tree_4_3_u09_r19_network.node[2].content_store 	decision_no[2] 	51544
scalar tree_4_3_u09_r19_network.node[2].content_store 	decision_ratio[2] 	0.032637051217086
scalar tree_4_3_u09_r19_network.node[3].core_layer 	interests[3] 	11707
scalar tree_4_3_u09_r19_network.node[3].core_layer 	data[3] 	9006
scalar tree_4_3_u09_r19_network.node[3].content_store 	p_hit[3] 	0.23071666524302
scalar tree_4_3_u09_r19_network.node[3].content_store 	hits[3] 	2701
scalar tree_4_3_u09_r19_network.node[3].content_store 	misses[3] 	9006
scalar tree_4_3_u09_r19_network.node[3].content_store 	decision_yes[3] 	1350
scalar tree_4_3_u09_r19_network.node[3].content_store 	decision_no[3] 	7656
scalar tree_4_3_u09_r19_network.node[3].content_store 	decision_ratio[3] 	0.14990006662225
scalar tree_4_3_u09_r19_network.node[4].core_layer 	interests[4] 	42228
scalar tree_4_3_u09_r19_network.node[4].core_layer 	data[4] 	40072
scalar tree_4_3_u09_r19_network.node[4].content_store 	p_hit[4] 	0.05100880932083
scalar tree_4_3_u09_r19_network.node[4].content_store 	hits[4] 	2154
scalar tree_4_3_u09_r19_network.node[4].content_store 	misses[4] 	40074
scalar tree_4_3_u09_r19_network.node[4].content_store 	decision_yes[4] 	2277
scalar tree_4_3_u09_r19_network.node[4].content_store 	decision_no[4] 	37795
scalar tree_4_3_u09_r19_network.node[4].content_store 	decision_ratio[4] 	0.05682271910561
scalar tree_4_3_u09_r19_network.node[5].core_layer 	interests[5] 	19182
scalar tree_4_3_u09_r19_network.node[5].core_layer 	data[5] 	17076
scalar tree_4_3_u09_r19_network.node[5].content_store 	p_hit[5] 	0.10979042852674
scalar tree_4_3_u09_r19_network.node[5].content_store 	hits[5] 	2106
scalar tree_4_3_u09_r19_network.node[5].content_store 	misses[5] 	17076
scalar tree_4_3_u09_r19_network.node[5].content_store 	decision_yes[5] 	1931
scalar tree_4_3_u09_r19_network.node[5].content_store 	decision_no[5] 	15145
scalar tree_4_3_u09_r19_network.node[5].content_store 	decision_ratio[5] 	0.11308268915437
scalar tree_4_3_u09_r19_network.node[6].core_layer 	interests[6] 	20856
scalar tree_4_3_u09_r19_network.node[6].core_layer 	data[6] 	18217
scalar tree_4_3_u09_r19_network.node[6].content_store 	p_hit[6] 	0.12653433064825
scalar tree_4_3_u09_r19_network.node[6].content_store 	hits[6] 	2639
scalar tree_4_3_u09_r19_network.node[6].content_store 	misses[6] 	18217
scalar tree_4_3_u09_r19_network.node[6].content_store 	decision_yes[6] 	2872
scalar tree_4_3_u09_r19_network.node[6].content_store 	decision_no[6] 	15345
scalar tree_4_3_u09_r19_network.node[6].content_store 	decision_ratio[6] 	0.15765493769556
scalar tree_4_3_u09_r19_network.node[7].core_layer 	interests[7] 	43133
scalar tree_4_3_u09_r19_network.node[7].core_layer 	data[7] 	40556
scalar tree_4_3_u09_r19_network.node[7].content_store 	p_hit[7] 	0.059722254422368
scalar tree_4_3_u09_r19_network.node[7].content_store 	hits[7] 	2576
scalar tree_4_3_u09_r19_network.node[7].content_store 	misses[7] 	40557
scalar tree_4_3_u09_r19_network.node[7].content_store 	decision_yes[7] 	3065
scalar tree_4_3_u09_r19_network.node[7].content_store 	decision_no[7] 	37491
scalar tree_4_3_u09_r19_network.node[7].content_store 	decision_ratio[7] 	0.075574514251899
scalar tree_4_3_u09_r19_network.node[8].core_layer 	interests[8] 	26511
scalar tree_4_3_u09_r19_network.node[8].core_layer 	data[8] 	24415
scalar tree_4_3_u09_r19_network.node[8].content_store 	p_hit[8] 	0.079099241824148
scalar tree_4_3_u09_r19_network.node[8].content_store 	hits[8] 	2097
scalar tree_4_3_u09_r19_network.node[8].content_store 	misses[8] 	24414
scalar tree_4_3_u09_r19_network.node[8].content_store 	decision_yes[8] 	1759
scalar tree_4_3_u09_r19_network.node[8].content_store 	decision_no[8] 	22656
scalar tree_4_3_u09_r19_network.node[8].content_store 	decision_ratio[8] 	0.07204587343846
scalar tree_4_3_u09_r19_network.node[9].core_layer 	interests[9] 	12415
scalar tree_4_3_u09_r19_network.node[9].core_layer 	data[9] 	9915
scalar tree_4_3_u09_r19_network.node[9].content_store 	p_hit[9] 	0.20136931131696
scalar tree_4_3_u09_r19_network.node[9].content_store 	hits[9] 	2500
scalar tree_4_3_u09_r19_network.node[9].content_store 	misses[9] 	9915
scalar tree_4_3_u09_r19_network.node[9].content_store 	decision_yes[9] 	2154
scalar tree_4_3_u09_r19_network.node[9].content_store 	decision_no[9] 	7761
scalar tree_4_3_u09_r19_network.node[9].content_store 	decision_ratio[9] 	0.21724659606657
scalar tree_4_3_u09_r19_network.node[10].core_layer 	interests[10] 	42982
scalar tree_4_3_u09_r19_network.node[10].core_layer 	data[10] 	40387
scalar tree_4_3_u09_r19_network.node[10].content_store 	p_hit[10] 	0.060374110092597
scalar tree_4_3_u09_r19_network.node[10].content_store 	hits[10] 	2595
scalar tree_4_3_u09_r19_network.node[10].content_store 	misses[10] 	40387
scalar tree_4_3_u09_r19_network.node[10].content_store 	decision_yes[10] 	3235
scalar tree_4_3_u09_r19_network.node[10].content_store 	decision_no[10] 	37152
scalar tree_4_3_u09_r19_network.node[10].content_store 	decision_ratio[10] 	0.080100032188576
scalar tree_4_3_u09_r19_network.node[11].core_layer 	interests[11] 	27844
scalar tree_4_3_u09_r19_network.node[11].core_layer 	data[11] 	25347
scalar tree_4_3_u09_r19_network.node[11].content_store 	p_hit[11] 	0.089678207154145
scalar tree_4_3_u09_r19_network.node[11].content_store 	hits[11] 	2497
scalar tree_4_3_u09_r19_network.node[11].content_store 	misses[11] 	25347
scalar tree_4_3_u09_r19_network.node[11].content_store 	decision_yes[11] 	2515
scalar tree_4_3_u09_r19_network.node[11].content_store 	decision_no[11] 	22832
scalar tree_4_3_u09_r19_network.node[11].content_store 	decision_ratio[11] 	0.099222787706632
scalar tree_4_3_u09_r19_network.node[12].core_layer 	interests[12] 	10402
scalar tree_4_3_u09_r19_network.node[12].core_layer 	data[12] 	8749
scalar tree_4_3_u09_r19_network.node[12].content_store 	p_hit[12] 	0.15891174774082
scalar tree_4_3_u09_r19_network.node[12].content_store 	hits[12] 	1653
scalar tree_4_3_u09_r19_network.node[12].content_store 	misses[12] 	8749
scalar tree_4_3_u09_r19_network.node[12].content_store 	decision_yes[12] 	948
scalar tree_4_3_u09_r19_network.node[12].content_store 	decision_no[12] 	7801
scalar tree_4_3_u09_r19_network.node[12].content_store 	decision_ratio[12] 	0.10835524059893
scalar tree_4_3_u09_r19_network.node[13].core_layer 	interests[13] 	12283
scalar tree_4_3_u09_r19_network.node[13].core_layer 	data[13] 	8784
scalar tree_4_3_u09_r19_network.node[13].content_store 	p_hit[13] 	0.28478384759424
scalar tree_4_3_u09_r19_network.node[13].content_store 	hits[13] 	3498
scalar tree_4_3_u09_r19_network.node[13].content_store 	misses[13] 	8785
scalar tree_4_3_u09_r19_network.node[13].content_store 	decision_yes[13] 	348
scalar tree_4_3_u09_r19_network.node[13].content_store 	decision_no[13] 	8436
scalar tree_4_3_u09_r19_network.node[13].content_store 	decision_ratio[13] 	0.039617486338798
scalar tree_4_3_u09_r19_network.node[14].core_layer 	interests[14] 	12701
scalar tree_4_3_u09_r19_network.node[14].core_layer 	data[14] 	9003
scalar tree_4_3_u09_r19_network.node[14].content_store 	p_hit[14] 	0.29115817652153
scalar tree_4_3_u09_r19_network.node[14].content_store 	hits[14] 	3698
scalar tree_4_3_u09_r19_network.node[14].content_store 	misses[14] 	9003
scalar tree_4_3_u09_r19_network.node[14].content_store 	decision_yes[14] 	714
scalar tree_4_3_u09_r19_network.node[14].content_store 	decision_no[14] 	8289
scalar tree_4_3_u09_r19_network.node[14].content_store 	decision_ratio[14] 	0.079306897700766
scalar tree_4_3_u09_r19_network.node[15].core_layer 	interests[15] 	12845
scalar tree_4_3_u09_r19_network.node[15].core_layer 	data[15] 	9084
scalar tree_4_3_u09_r19_network.node[15].content_store 	p_hit[15] 	0.29279875437914
scalar tree_4_3_u09_r19_network.node[15].content_store 	hits[15] 	3761
scalar tree_4_3_u09_r19_network.node[15].content_store 	misses[15] 	9084
scalar tree_4_3_u09_r19_network.node[15].content_store 	decision_yes[15] 	765
scalar tree_4_3_u09_r19_network.node[15].content_store 	decision_no[15] 	8319
scalar tree_4_3_u09_r19_network.node[15].content_store 	decision_ratio[15] 	0.084214002642008
scalar tree_4_3_u09_r19_network.node[16].core_layer 	interests[16] 	12600
scalar tree_4_3_u09_r19_network.node[16].core_layer 	data[16] 	8994
scalar tree_4_3_u09_r19_network.node[16].content_store 	p_hit[16] 	0.28619047619048
scalar tree_4_3_u09_r19_network.node[16].content_store 	hits[16] 	3606
scalar tree_4_3_u09_r19_network.node[16].content_store 	misses[16] 	8994
scalar tree_4_3_u09_r19_network.node[16].content_store 	decision_yes[16] 	691
scalar tree_4_3_u09_r19_network.node[16].content_store 	decision_no[16] 	8303
scalar tree_4_3_u09_r19_network.node[16].content_store 	decision_ratio[16] 	0.076828997109184
scalar tree_4_3_u09_r19_network.node[17].core_layer 	interests[17] 	12131
scalar tree_4_3_u09_r19_network.node[17].core_layer 	data[17] 	8799
scalar tree_4_3_u09_r19_network.node[17].content_store 	p_hit[17] 	0.27466820542412
scalar tree_4_3_u09_r19_network.node[17].content_store 	hits[17] 	3332
scalar tree_4_3_u09_r19_network.node[17].content_store 	misses[17] 	8799
scalar tree_4_3_u09_r19_network.node[17].content_store 	decision_yes[17] 	364
scalar tree_4_3_u09_r19_network.node[17].content_store 	decision_no[17] 	8435
scalar tree_4_3_u09_r19_network.node[17].content_store 	decision_ratio[17] 	0.041368337311058
scalar tree_4_3_u09_r19_network.node[18].core_layer 	interests[18] 	12564
scalar tree_4_3_u09_r19_network.node[18].core_layer 	data[18] 	8815
scalar tree_4_3_u09_r19_network.node[18].content_store 	p_hit[18] 	0.29831263928685
scalar tree_4_3_u09_r19_network.node[18].content_store 	hits[18] 	3748
scalar tree_4_3_u09_r19_network.node[18].content_store 	misses[18] 	8816
scalar tree_4_3_u09_r19_network.node[18].content_store 	decision_yes[18] 	713
scalar tree_4_3_u09_r19_network.node[18].content_store 	decision_no[18] 	8102
scalar tree_4_3_u09_r19_network.node[18].content_store 	decision_ratio[18] 	0.080884855360182
scalar tree_4_3_u09_r19_network.node[19].core_layer 	interests[19] 	12842
scalar tree_4_3_u09_r19_network.node[19].core_layer 	data[19] 	9033
scalar tree_4_3_u09_r19_network.node[19].content_store 	p_hit[19] 	0.29660489020402
scalar tree_4_3_u09_r19_network.node[19].content_store 	hits[19] 	3809
scalar tree_4_3_u09_r19_network.node[19].content_store 	misses[19] 	9033
scalar tree_4_3_u09_r19_network.node[19].content_store 	decision_yes[19] 	819
scalar tree_4_3_u09_r19_network.node[19].content_store 	decision_no[19] 	8214
scalar tree_4_3_u09_r19_network.node[19].content_store 	decision_ratio[19] 	0.090667552308203
scalar tree_4_3_u09_r19_network.node[20].core_layer 	interests[20] 	12455
scalar tree_4_3_u09_r19_network.node[20].core_layer 	data[20] 	8906
scalar tree_4_3_u09_r19_network.node[20].content_store 	p_hit[20] 	0.28494580489763
scalar tree_4_3_u09_r19_network.node[20].content_store 	hits[20] 	3549
scalar tree_4_3_u09_r19_network.node[20].content_store 	misses[20] 	8906
scalar tree_4_3_u09_r19_network.node[20].content_store 	decision_yes[20] 	395
scalar tree_4_3_u09_r19_network.node[20].content_store 	decision_no[20] 	8511
scalar tree_4_3_u09_r19_network.node[20].content_store 	decision_ratio[20] 	0.044352122164833
scalar tree_4_3_u09_r19_network.node[21].core_layer 	interests[21] 	12317
scalar tree_4_3_u09_r19_network.node[21].core_layer 	data[21] 	8736
scalar tree_4_3_u09_r19_network.node[21].content_store 	p_hit[21] 	0.29065519201104
scalar tree_4_3_u09_r19_network.node[21].content_store 	hits[21] 	3580
scalar tree_4_3_u09_r19_network.node[21].content_store 	misses[21] 	8737
scalar tree_4_3_u09_r19_network.node[21].content_store 	decision_yes[21] 	449
scalar tree_4_3_u09_r19_network.node[21].content_store 	decision_no[21] 	8287
scalar tree_4_3_u09_r19_network.node[21].content_store 	decision_ratio[21] 	0.05139652014652
scalar tree_4_3_u09_r19_network.node[22].core_layer 	interests[22] 	12335
scalar tree_4_3_u09_r19_network.node[22].core_layer 	data[22] 	8865
scalar tree_4_3_u09_r19_network.node[22].content_store 	p_hit[22] 	0.28131333603567
scalar tree_4_3_u09_r19_network.node[22].content_store 	hits[22] 	3470
scalar tree_4_3_u09_r19_network.node[22].content_store 	misses[22] 	8865
scalar tree_4_3_u09_r19_network.node[22].content_store 	decision_yes[22] 	406
scalar tree_4_3_u09_r19_network.node[22].content_store 	decision_no[22] 	8459
scalar tree_4_3_u09_r19_network.node[22].content_store 	decision_ratio[22] 	0.045798082346306
scalar tree_4_3_u09_r19_network.node[23].core_layer 	interests[23] 	12701
scalar tree_4_3_u09_r19_network.node[23].core_layer 	data[23] 	8948
scalar tree_4_3_u09_r19_network.node[23].content_store 	p_hit[23] 	0.29548854420912
scalar tree_4_3_u09_r19_network.node[23].content_store 	hits[23] 	3753
scalar tree_4_3_u09_r19_network.node[23].content_store 	misses[23] 	8948
scalar tree_4_3_u09_r19_network.node[23].content_store 	decision_yes[23] 	731
scalar tree_4_3_u09_r19_network.node[23].content_store 	decision_no[23] 	8217
scalar tree_4_3_u09_r19_network.node[23].content_store 	decision_ratio[23] 	0.081694233348234
scalar tree_4_3_u09_r19_network.node[24].core_layer 	interests[24] 	12592
scalar tree_4_3_u09_r19_network.node[24].core_layer 	data[24] 	8916
scalar tree_4_3_u09_r19_network.node[24].content_store 	p_hit[24] 	0.29193138500635
scalar tree_4_3_u09_r19_network.node[24].content_store 	hits[24] 	3676
scalar tree_4_3_u09_r19_network.node[24].content_store 	misses[24] 	8916
scalar tree_4_3_u09_r19_network.node[24].content_store 	decision_yes[24] 	755
scalar tree_4_3_u09_r19_network.node[24].content_store 	decision_no[24] 	8161
scalar tree_4_3_u09_r19_network.node[24].content_store 	decision_ratio[24] 	0.084679228353522
scalar tree_4_3_u09_r19_network.node[25].core_layer 	interests[25] 	12819
scalar tree_4_3_u09_r19_network.node[25].core_layer 	data[25] 	9037
scalar tree_4_3_u09_r19_network.node[25].content_store 	p_hit[25] 	0.29495280443092
scalar tree_4_3_u09_r19_network.node[25].content_store 	hits[25] 	3781
scalar tree_4_3_u09_r19_network.node[25].content_store 	misses[25] 	9038
scalar tree_4_3_u09_r19_network.node[25].content_store 	decision_yes[25] 	732
scalar tree_4_3_u09_r19_network.node[25].content_store 	decision_no[25] 	8305
scalar tree_4_3_u09_r19_network.node[25].content_store 	decision_ratio[25] 	0.081000331968574
scalar tree_4_3_u09_r19_network.node[26].core_layer 	interests[26] 	12310
scalar tree_4_3_u09_r19_network.node[26].core_layer 	data[26] 	8774
scalar tree_4_3_u09_r19_network.node[26].content_store 	p_hit[26] 	0.2872461413485
scalar tree_4_3_u09_r19_network.node[26].content_store 	hits[26] 	3536
scalar tree_4_3_u09_r19_network.node[26].content_store 	misses[26] 	8774
scalar tree_4_3_u09_r19_network.node[26].content_store 	decision_yes[26] 	396
scalar tree_4_3_u09_r19_network.node[26].content_store 	decision_no[26] 	8378
scalar tree_4_3_u09_r19_network.node[26].content_store 	decision_ratio[26] 	0.045133348529747
scalar tree_4_3_u09_r19_network.node[27].core_layer 	interests[27] 	12540
scalar tree_4_3_u09_r19_network.node[27].core_layer 	data[27] 	8900
scalar tree_4_3_u09_r19_network.node[27].content_store 	p_hit[27] 	0.29035087719298
scalar tree_4_3_u09_r19_network.node[27].content_store 	hits[27] 	3641
scalar tree_4_3_u09_r19_network.node[27].content_store 	misses[27] 	8899
scalar tree_4_3_u09_r19_network.node[27].content_store 	decision_yes[27] 	726
scalar tree_4_3_u09_r19_network.node[27].content_store 	decision_no[27] 	8174
scalar tree_4_3_u09_r19_network.node[27].content_store 	decision_ratio[27] 	0.081573033707865
scalar tree_4_3_u09_r19_network.node[28].core_layer 	interests[28] 	12732
scalar tree_4_3_u09_r19_network.node[28].core_layer 	data[28] 	8956
scalar tree_4_3_u09_r19_network.node[28].content_store 	p_hit[28] 	0.29657555765002
scalar tree_4_3_u09_r19_network.node[28].content_store 	hits[28] 	3776
scalar tree_4_3_u09_r19_network.node[28].content_store 	misses[28] 	8956
scalar tree_4_3_u09_r19_network.node[28].content_store 	decision_yes[28] 	782
scalar tree_4_3_u09_r19_network.node[28].content_store 	decision_no[28] 	8174
scalar tree_4_3_u09_r19_network.node[28].content_store 	decision_ratio[28] 	0.08731576596695
scalar tree_4_3_u09_r19_network.node[29].core_layer 	interests[29] 	12655
scalar tree_4_3_u09_r19_network.node[29].core_layer 	data[29] 	8990
scalar tree_4_3_u09_r19_network.node[29].content_store 	p_hit[29] 	0.28960885025682
scalar tree_4_3_u09_r19_network.node[29].content_store 	hits[29] 	3665
scalar tree_4_3_u09_r19_network.node[29].content_store 	misses[29] 	8990
scalar tree_4_3_u09_r19_network.node[29].content_store 	decision_yes[29] 	725
scalar tree_4_3_u09_r19_network.node[29].content_store 	decision_no[29] 	8265
scalar tree_4_3_u09_r19_network.node[29].content_store 	decision_ratio[29] 	0.080645161290323
scalar tree_4_3_u09_r19_network.node[30].core_layer 	interests[30] 	12192
scalar tree_4_3_u09_r19_network.node[30].core_layer 	data[30] 	8729
scalar tree_4_3_u09_r19_network.node[30].content_store 	p_hit[30] 	0.28403871391076
scalar tree_4_3_u09_r19_network.node[30].content_store 	hits[30] 	3463
scalar tree_4_3_u09_r19_network.node[30].content_store 	misses[30] 	8729
scalar tree_4_3_u09_r19_network.node[30].content_store 	decision_yes[30] 	390
scalar tree_4_3_u09_r19_network.node[30].content_store 	decision_no[30] 	8339
scalar tree_4_3_u09_r19_network.node[30].content_store 	decision_ratio[30] 	0.044678657349066
scalar tree_4_3_u09_r19_network.node[31].core_layer 	interests[31] 	12395
scalar tree_4_3_u09_r19_network.node[31].core_layer 	data[31] 	8924
scalar tree_4_3_u09_r19_network.node[31].content_store 	p_hit[31] 	0.28003227107705
scalar tree_4_3_u09_r19_network.node[31].content_store 	hits[31] 	3471
scalar tree_4_3_u09_r19_network.node[31].content_store 	misses[31] 	8924
scalar tree_4_3_u09_r19_network.node[31].content_store 	decision_yes[31] 	451
scalar tree_4_3_u09_r19_network.node[31].content_store 	decision_no[31] 	8473
scalar tree_4_3_u09_r19_network.node[31].content_store 	decision_ratio[31] 	0.050537875392201
scalar tree_4_3_u09_r19_network.node[32].core_layer 	interests[32] 	12488
scalar tree_4_3_u09_r19_network.node[32].core_layer 	data[32] 	8755
scalar tree_4_3_u09_r19_network.node[32].content_store 	p_hit[32] 	0.2989269698911
scalar tree_4_3_u09_r19_network.node[32].content_store 	hits[32] 	3733
scalar tree_4_3_u09_r19_network.node[32].content_store 	misses[32] 	8755
scalar tree_4_3_u09_r19_network.node[32].content_store 	decision_yes[32] 	700
scalar tree_4_3_u09_r19_network.node[32].content_store 	decision_no[32] 	8055
scalar tree_4_3_u09_r19_network.node[32].content_store 	decision_ratio[32] 	0.079954311821816
scalar tree_4_3_u09_r19_network.node[33].core_layer 	interests[33] 	12266
scalar tree_4_3_u09_r19_network.node[33].core_layer 	data[33] 	8657
scalar tree_4_3_u09_r19_network.node[33].content_store 	p_hit[33] 	0.29406489483124
scalar tree_4_3_u09_r19_network.node[33].content_store 	hits[33] 	3607
scalar tree_4_3_u09_r19_network.node[33].content_store 	misses[33] 	8659
scalar tree_4_3_u09_r19_network.node[33].content_store 	decision_yes[33] 	393
scalar tree_4_3_u09_r19_network.node[33].content_store 	decision_no[33] 	8264
scalar tree_4_3_u09_r19_network.node[33].content_store 	decision_ratio[33] 	0.045396788725887
scalar tree_4_3_u09_r19_network.node[34].core_layer 	interests[34] 	12603
scalar tree_4_3_u09_r19_network.node[34].core_layer 	data[34] 	8781
scalar tree_4_3_u09_r19_network.node[34].content_store 	p_hit[34] 	0.30326112830279
scalar tree_4_3_u09_r19_network.node[34].content_store 	hits[34] 	3822
scalar tree_4_3_u09_r19_network.node[34].content_store 	misses[34] 	8781
scalar tree_4_3_u09_r19_network.node[34].content_store 	decision_yes[34] 	751
scalar tree_4_3_u09_r19_network.node[34].content_store 	decision_no[34] 	8030
scalar tree_4_3_u09_r19_network.node[34].content_store 	decision_ratio[34] 	0.085525566564173
scalar tree_4_3_u09_r19_network.node[35].core_layer 	interests[35] 	12282
scalar tree_4_3_u09_r19_network.node[35].core_layer 	data[35] 	8811
scalar tree_4_3_u09_r19_network.node[35].content_store 	p_hit[35] 	0.28260869565217
scalar tree_4_3_u09_r19_network.node[35].content_store 	hits[35] 	3471
scalar tree_4_3_u09_r19_network.node[35].content_store 	misses[35] 	8811
scalar tree_4_3_u09_r19_network.node[35].content_store 	decision_yes[35] 	413
scalar tree_4_3_u09_r19_network.node[35].content_store 	decision_no[35] 	8398
scalar tree_4_3_u09_r19_network.node[35].content_store 	decision_ratio[35] 	0.046873226648508
scalar tree_4_3_u09_r19_network.node[36].core_layer 	interests[36] 	12597
scalar tree_4_3_u09_r19_network.node[36].core_layer 	data[36] 	8891
scalar tree_4_3_u09_r19_network.node[36].content_store 	p_hit[36] 	0.29427641501945
scalar tree_4_3_u09_r19_network.node[36].content_store 	hits[36] 	3707
scalar tree_4_3_u09_r19_network.node[36].content_store 	misses[36] 	8890
scalar tree_4_3_u09_r19_network.node[36].content_store 	decision_yes[36] 	722
scalar tree_4_3_u09_r19_network.node[36].content_store 	decision_no[36] 	8169
scalar tree_4_3_u09_r19_network.node[36].content_store 	decision_ratio[36] 	0.08120571364301
scalar tree_4_3_u09_r19_network.node[37].core_layer 	interests[37] 	12565
scalar tree_4_3_u09_r19_network.node[37].core_layer 	data[37] 	8865
scalar tree_4_3_u09_r19_network.node[37].content_store 	p_hit[37] 	0.29446876243534
scalar tree_4_3_u09_r19_network.node[37].content_store 	hits[37] 	3700
scalar tree_4_3_u09_r19_network.node[37].content_store 	misses[37] 	8865
scalar tree_4_3_u09_r19_network.node[37].content_store 	decision_yes[37] 	739
scalar tree_4_3_u09_r19_network.node[37].content_store 	decision_no[37] 	8126
scalar tree_4_3_u09_r19_network.node[37].content_store 	decision_ratio[37] 	0.083361534122955
scalar tree_4_3_u09_r19_network.node[38].core_layer 	interests[38] 	12656
scalar tree_4_3_u09_r19_network.node[38].core_layer 	data[38] 	8971
scalar tree_4_3_u09_r19_network.node[38].content_store 	p_hit[38] 	0.29108723135272
scalar tree_4_3_u09_r19_network.node[38].content_store 	hits[38] 	3684
scalar tree_4_3_u09_r19_network.node[38].content_store 	misses[38] 	8972
scalar tree_4_3_u09_r19_network.node[38].content_store 	decision_yes[38] 	727
scalar tree_4_3_u09_r19_network.node[38].content_store 	decision_no[38] 	8244
scalar tree_4_3_u09_r19_network.node[38].content_store 	decision_ratio[38] 	0.081038903132315
scalar tree_4_3_u09_r19_network.node[39].core_layer 	interests[39] 	12153
scalar tree_4_3_u09_r19_network.node[39].core_layer 	data[39] 	8712
scalar tree_4_3_u09_r19_network.node[39].content_store 	p_hit[39] 	0.28313996544063
scalar tree_4_3_u09_r19_network.node[39].content_store 	hits[39] 	3441
scalar tree_4_3_u09_r19_network.node[39].content_store 	misses[39] 	8712
scalar tree_4_3_u09_r19_network.node[39].content_store 	decision_yes[39] 	359
scalar tree_4_3_u09_r19_network.node[39].content_store 	decision_no[39] 	8353
scalar tree_4_3_u09_r19_network.node[39].content_store 	decision_ratio[39] 	0.041207529843893
scalar tree_4_3_u09_r19_network.client[13] 	hdistance[13] 	2.7230949197861
scalar tree_4_3_u09_r19_network.client[13] 	downloads[13] 	11968
scalar tree_4_3_u09_r19_network.client[13] 	avg_time[13] 	0.004201701547
scalar tree_4_3_u09_r19_network.client[14] 	hdistance[14] 	2.660477015763
scalar tree_4_3_u09_r19_network.client[14] 	downloads[14] 	12117
scalar tree_4_3_u09_r19_network.client[14] 	avg_time[14] 	0.004110962223
scalar tree_4_3_u09_r19_network.client[15] 	hdistance[15] 	2.6699539776463
scalar tree_4_3_u09_r19_network.client[15] 	downloads[15] 	12168
scalar tree_4_3_u09_r19_network.client[15] 	avg_time[15] 	0.004119326352
scalar tree_4_3_u09_r19_network.client[16] 	hdistance[16] 	2.6823539176627
scalar tree_4_3_u09_r19_network.client[16] 	downloads[16] 	12048
scalar tree_4_3_u09_r19_network.client[16] 	avg_time[16] 	0.004143423281
scalar tree_4_3_u09_r19_network.client[17] 	hdistance[17] 	2.7152725128464
scalar tree_4_3_u09_r19_network.client[17] 	downloads[17] 	11871
scalar tree_4_3_u09_r19_network.client[17] 	avg_time[17] 	0.004205220838
scalar tree_4_3_u09_r19_network.client[18] 	hdistance[18] 	2.658077640278
scalar tree_4_3_u09_r19_network.client[18] 	downloads[18] 	11798
scalar tree_4_3_u09_r19_network.client[18] 	avg_time[18] 	0.004107877102
scalar tree_4_3_u09_r19_network.client[19] 	hdistance[19] 	2.6403458213256
scalar tree_4_3_u09_r19_network.client[19] 	downloads[19] 	12145
scalar tree_4_3_u09_r19_network.client[19] 	avg_time[19] 	0.004081676691
scalar tree_4_3_u09_r19_network.client[20] 	hdistance[20] 	2.6897662509292
scalar tree_4_3_u09_r19_network.client[20] 	downloads[20] 	12107
scalar tree_4_3_u09_r19_network.client[20] 	avg_time[20] 	0.004155774615
scalar tree_4_3_u09_r19_network.client[21] 	hdistance[21] 	2.6509567978608
scalar tree_4_3_u09_r19_network.client[21] 	downloads[21] 	11967
scalar tree_4_3_u09_r19_network.client[21] 	avg_time[21] 	0.004102445429
scalar tree_4_3_u09_r19_network.client[22] 	hdistance[22] 	2.6843112775697
scalar tree_4_3_u09_r19_network.client[22] 	downloads[22] 	12015
scalar tree_4_3_u09_r19_network.client[22] 	avg_time[22] 	0.004157300362
scalar tree_4_3_u09_r19_network.client[23] 	hdistance[23] 	2.6497343957503
scalar tree_4_3_u09_r19_network.client[23] 	downloads[23] 	12048
scalar tree_4_3_u09_r19_network.client[23] 	avg_time[23] 	0.004096776534
scalar tree_4_3_u09_r19_network.client[24] 	hdistance[24] 	2.6489618944384
scalar tree_4_3_u09_r19_network.client[24] 	downloads[24] 	11993
scalar tree_4_3_u09_r19_network.client[24] 	avg_time[24] 	0.004087214576
scalar tree_4_3_u09_r19_network.client[25] 	hdistance[25] 	2.6503308012742
scalar tree_4_3_u09_r19_network.client[25] 	downloads[25] 	12243
scalar tree_4_3_u09_r19_network.client[25] 	avg_time[25] 	0.004088552111
scalar tree_4_3_u09_r19_network.client[26] 	hdistance[26] 	2.6788054749067
scalar tree_4_3_u09_r19_network.client[26] 	downloads[26] 	12055
scalar tree_4_3_u09_r19_network.client[26] 	avg_time[26] 	0.004139855966
scalar tree_4_3_u09_r19_network.client[27] 	hdistance[27] 	2.6663048923026
scalar tree_4_3_u09_r19_network.client[27] 	downloads[27] 	11978
scalar tree_4_3_u09_r19_network.client[27] 	avg_time[27] 	0.004111701793
scalar tree_4_3_u09_r19_network.client[28] 	hdistance[28] 	2.6311217736598
scalar tree_4_3_u09_r19_network.client[28] 	downloads[28] 	12088
scalar tree_4_3_u09_r19_network.client[28] 	avg_time[28] 	0.004061380148
scalar tree_4_3_u09_r19_network.client[29] 	hdistance[29] 	2.6709981791094
scalar tree_4_3_u09_r19_network.client[29] 	downloads[29] 	12082
scalar tree_4_3_u09_r19_network.client[29] 	avg_time[29] 	0.004122162194
scalar tree_4_3_u09_r19_network.client[30] 	hdistance[30] 	2.6800537724752
scalar tree_4_3_u09_r19_network.client[30] 	downloads[30] 	11902
scalar tree_4_3_u09_r19_network.client[30] 	avg_time[30] 	0.004145350748
scalar tree_4_3_u09_r19_network.client[31] 	hdistance[31] 	2.6946082911024
scalar tree_4_3_u09_r19_network.client[31] 	downloads[31] 	12037
scalar tree_4_3_u09_r19_network.client[31] 	avg_time[31] 	0.004167148256
scalar tree_4_3_u09_r19_network.client[32] 	hdistance[32] 	2.6505840528187
scalar tree_4_3_u09_r19_network.client[32] 	downloads[32] 	11814
scalar tree_4_3_u09_r19_network.client[32] 	avg_time[32] 	0.004090906107
scalar tree_4_3_u09_r19_network.client[33] 	hdistance[33] 	2.658934274668
scalar tree_4_3_u09_r19_network.client[33] 	downloads[33] 	11898
scalar tree_4_3_u09_r19_network.client[33] 	avg_time[33] 	0.004110682456
scalar tree_4_3_u09_r19_network.client[34] 	hdistance[34] 	2.628422644045
scalar tree_4_3_u09_r19_network.client[34] 	downloads[34] 	11906
scalar tree_4_3_u09_r19_network.client[34] 	avg_time[34] 	0.004055935209
scalar tree_4_3_u09_r19_network.client[35] 	hdistance[35] 	2.6758965804837
scalar tree_4_3_u09_r19_network.client[35] 	downloads[35] 	11990
scalar tree_4_3_u09_r19_network.client[35] 	avg_time[35] 	0.004140614229
scalar tree_4_3_u09_r19_network.client[36] 	hdistance[36] 	2.6369789517127
scalar tree_4_3_u09_r19_network.client[36] 	downloads[36] 	12115
scalar tree_4_3_u09_r19_network.client[36] 	avg_time[36] 	0.004070323038
scalar tree_4_3_u09_r19_network.client[37] 	hdistance[37] 	2.6537656027478
scalar tree_4_3_u09_r19_network.client[37] 	downloads[37] 	11937
scalar tree_4_3_u09_r19_network.client[37] 	avg_time[37] 	0.004100859889
scalar tree_4_3_u09_r19_network.client[38] 	hdistance[38] 	2.6517959652288
scalar tree_4_3_u09_r19_network.client[38] 	downloads[38] 	12194
scalar tree_4_3_u09_r19_network.client[38] 	avg_time[38] 	0.004089385157
scalar tree_4_3_u09_r19_network.client[39] 	hdistance[39] 	2.6929612661391
scalar tree_4_3_u09_r19_network.client[39] 	downloads[39] 	12005
scalar tree_4_3_u09_r19_network.client[39] 	avg_time[39] 	0.004160096974
