version 2
run General-194-20160819-14:12:06-2054
attr a 0.9
attr cd lcd
attr configname General
attr cr lru
attr datetime 20160819-14:12:06
attr experiment General
attr fsize 1
attr inifile hw5115/scenario_A/NRR-LCD.ini
attr iterationvars "$name=tree_4_3, $un=09, $rep=15, $cd=lcd, $cr=lru, $fsize=1, $a=0.9, $sl=nrr, $ttl=1000, $variance=0.05"
attr iterationvars2 "$name=tree_4_3, $un=09, $rep=15, $cd=lcd, $cr=lru, $fsize=1, $a=0.9, $sl=nrr, $ttl=1000, $variance=0.05, $repetition=0"
attr measurement "$name=tree_4_3, $un=09, $rep=15, $cd=lcd, $cr=lru, $fsize=1, $a=0.9, $sl=nrr, $ttl=1000, $variance=0.05"
attr name tree_4_3
attr network networks.${name}_u${un}_r${rep}_network
attr processid 2054
attr rep 15
attr repetition 0
attr replication #0
attr resultdir results
attr runnumber 194
attr seedset 15
attr sl nrr
attr ttl 1000
attr un 09
attr variance 0.05

scalar . 	a 	0.9
scalar . 	fsize 	1
scalar . 	rep 	15
scalar . 	ttl 	1000
scalar . 	un 	09
scalar . 	variance 	0.05
scalar tree_4_3_u09_r15_network.content_distribution 	repo-0 	0
scalar tree_4_3_u09_r15_network.content_distribution 	client-0 	13
scalar tree_4_3_u09_r15_network.content_distribution 	client-1 	14
scalar tree_4_3_u09_r15_network.content_distribution 	client-2 	15
scalar tree_4_3_u09_r15_network.content_distribution 	client-3 	16
scalar tree_4_3_u09_r15_network.content_distribution 	client-4 	17
scalar tree_4_3_u09_r15_network.content_distribution 	client-5 	18
scalar tree_4_3_u09_r15_network.content_distribution 	client-6 	19
scalar tree_4_3_u09_r15_network.content_distribution 	client-7 	20
scalar tree_4_3_u09_r15_network.content_distribution 	client-8 	21
scalar tree_4_3_u09_r15_network.content_distribution 	client-9 	22
scalar tree_4_3_u09_r15_network.content_distribution 	client-10 	23
scalar tree_4_3_u09_r15_network.content_distribution 	client-11 	24
scalar tree_4_3_u09_r15_network.content_distribution 	client-12 	25
scalar tree_4_3_u09_r15_network.content_distribution 	client-13 	26
scalar tree_4_3_u09_r15_network.content_distribution 	client-14 	27
scalar tree_4_3_u09_r15_network.content_distribution 	client-15 	28
scalar tree_4_3_u09_r15_network.content_distribution 	client-16 	29
scalar tree_4_3_u09_r15_network.content_distribution 	client-17 	30
scalar tree_4_3_u09_r15_network.content_distribution 	client-18 	31
scalar tree_4_3_u09_r15_network.content_distribution 	client-19 	32
scalar tree_4_3_u09_r15_network.content_distribution 	client-20 	33
scalar tree_4_3_u09_r15_network.content_distribution 	client-21 	34
scalar tree_4_3_u09_r15_network.content_distribution 	client-22 	35
scalar tree_4_3_u09_r15_network.content_distribution 	client-23 	36
scalar tree_4_3_u09_r15_network.content_distribution 	client-24 	37
scalar tree_4_3_u09_r15_network.content_distribution 	client-25 	38
scalar tree_4_3_u09_r15_network.content_distribution 	client-26 	39
scalar tree_4_3_u09_r15_network.content_distribution 	repo-0_card 	100000
scalar tree_4_3_u09_r15_network.content_distribution 	repo-0_price 	0
scalar tree_4_3_u09_r15_network.statistics 	stabilization_time 	814.2
scalar tree_4_3_u09_r15_network.statistics 	p_hit 	0.22713261109085
scalar tree_4_3_u09_r15_network.statistics 	interests 	24753.175
scalar tree_4_3_u09_r15_network.statistics 	data 	16668.875
scalar tree_4_3_u09_r15_network.statistics 	hdistance 	2.6699756949786
scalar tree_4_3_u09_r15_network.statistics 	avg_time 	0.004123698749
scalar tree_4_3_u09_r15_network.statistics 	downloads 	323370
scalar tree_4_3_u09_r15_network.statistics 	total_cost 	0
scalar tree_4_3_u09_r15_network.statistics 	total_replicas 	100000
scalar tree_4_3_u09_r15_network.statistics 	inner_hit 	0.39189782601973
scalar tree_4_3_u09_r15_network.node[0].core_layer 	interests[0] 	197912
scalar tree_4_3_u09_r15_network.node[0].core_layer 	repo_load[0] 	196642
scalar tree_4_3_u09_r15_network.node[0].core_layer 	data[0] 	0
scalar tree_4_3_u09_r15_network.node[0].core_layer 	repo_int[0] 	196642
scalar tree_4_3_u09_r15_network.node[0].content_store 	p_hit[0] 	0.0064169934112131
scalar tree_4_3_u09_r15_network.node[0].content_store 	hits[0] 	1270
scalar tree_4_3_u09_r15_network.node[0].content_store 	misses[0] 	196642
scalar tree_4_3_u09_r15_network.node[0].content_store 	decision_yes[0] 	196642
scalar tree_4_3_u09_r15_network.node[0].content_store 	decision_no[0] 	0
scalar tree_4_3_u09_r15_network.node[0].content_store 	decision_ratio[0] 	1
scalar tree_4_3_u09_r15_network.node[1].core_layer 	interests[1] 	144750
scalar tree_4_3_u09_r15_network.node[1].core_layer 	data[1] 	142133
scalar tree_4_3_u09_r15_network.node[1].content_store 	p_hit[1] 	0.018051813471503
scalar tree_4_3_u09_r15_network.node[1].content_store 	hits[1] 	2613
scalar tree_4_3_u09_r15_network.node[1].content_store 	misses[1] 	142137
scalar tree_4_3_u09_r15_network.node[1].content_store 	decision_yes[1] 	3101
scalar tree_4_3_u09_r15_network.node[1].content_store 	decision_no[1] 	139031
scalar tree_4_3_u09_r15_network.node[1].content_store 	decision_ratio[1] 	0.021817746883179
scalar tree_4_3_u09_r15_network.node[2].core_layer 	interests[2] 	55386
scalar tree_4_3_u09_r15_network.node[2].core_layer 	data[2] 	52999
scalar tree_4_3_u09_r15_network.node[2].content_store 	p_hit[2] 	0.043079478568591
scalar tree_4_3_u09_r15_network.node[2].content_store 	hits[2] 	2386
scalar tree_4_3_u09_r15_network.node[2].content_store 	misses[2] 	53000
scalar tree_4_3_u09_r15_network.node[2].content_store 	decision_yes[2] 	1706
scalar tree_4_3_u09_r15_network.node[2].content_store 	decision_no[2] 	51293
scalar tree_4_3_u09_r15_network.node[2].content_store 	decision_ratio[2] 	0.032189286590313
scalar tree_4_3_u09_r15_network.node[3].core_layer 	interests[3] 	11247
scalar tree_4_3_u09_r15_network.node[3].core_layer 	data[3] 	8725
scalar tree_4_3_u09_r15_network.node[3].content_store 	p_hit[3] 	0.2242375744643
scalar tree_4_3_u09_r15_network.node[3].content_store 	hits[3] 	2522
scalar tree_4_3_u09_r15_network.node[3].content_store 	misses[3] 	8725
scalar tree_4_3_u09_r15_network.node[3].content_store 	decision_yes[3] 	1162
scalar tree_4_3_u09_r15_network.node[3].content_store 	decision_no[3] 	7563
scalar tree_4_3_u09_r15_network.node[3].content_store 	decision_ratio[3] 	0.13318051575931
scalar tree_4_3_u09_r15_network.node[4].core_layer 	interests[4] 	34270
scalar tree_4_3_u09_r15_network.node[4].core_layer 	data[4] 	32435
scalar tree_4_3_u09_r15_network.node[4].content_store 	p_hit[4] 	0.053545374963525
scalar tree_4_3_u09_r15_network.node[4].content_store 	hits[4] 	1835
scalar tree_4_3_u09_r15_network.node[4].content_store 	misses[4] 	32435
scalar tree_4_3_u09_r15_network.node[4].content_store 	decision_yes[4] 	1734
scalar tree_4_3_u09_r15_network.node[4].content_store 	decision_no[4] 	30701
scalar tree_4_3_u09_r15_network.node[4].content_store 	decision_ratio[4] 	0.053460767689225
scalar tree_4_3_u09_r15_network.node[5].core_layer 	interests[5] 	34594
scalar tree_4_3_u09_r15_network.node[5].core_layer 	data[5] 	32353
scalar tree_4_3_u09_r15_network.node[5].content_store 	p_hit[5] 	0.064780019656588
scalar tree_4_3_u09_r15_network.node[5].content_store 	hits[5] 	2241
scalar tree_4_3_u09_r15_network.node[5].content_store 	misses[5] 	32353
scalar tree_4_3_u09_r15_network.node[5].content_store 	decision_yes[5] 	2548
scalar tree_4_3_u09_r15_network.node[5].content_store 	decision_no[5] 	29805
scalar tree_4_3_u09_r15_network.node[5].content_store 	decision_ratio[5] 	0.078756220443236
scalar tree_4_3_u09_r15_network.node[6].core_layer 	interests[6] 	12711
scalar tree_4_3_u09_r15_network.node[6].core_layer 	data[6] 	10142
scalar tree_4_3_u09_r15_network.node[6].content_store 	p_hit[6] 	0.20210841003855
scalar tree_4_3_u09_r15_network.node[6].content_store 	hits[6] 	2569
scalar tree_4_3_u09_r15_network.node[6].content_store 	misses[6] 	10142
scalar tree_4_3_u09_r15_network.node[6].content_store 	decision_yes[6] 	2271
scalar tree_4_3_u09_r15_network.node[6].content_store 	decision_no[6] 	7870
scalar tree_4_3_u09_r15_network.node[6].content_store 	decision_ratio[6] 	0.22394241199093
scalar tree_4_3_u09_r15_network.node[7].core_layer 	interests[7] 	43093
scalar tree_4_3_u09_r15_network.node[7].core_layer 	data[7] 	40483
scalar tree_4_3_u09_r15_network.node[7].content_store 	p_hit[7] 	0.060543475738519
scalar tree_4_3_u09_r15_network.node[7].content_store 	hits[7] 	2609
scalar tree_4_3_u09_r15_network.node[7].content_store 	misses[7] 	40484
scalar tree_4_3_u09_r15_network.node[7].content_store 	decision_yes[7] 	2994
scalar tree_4_3_u09_r15_network.node[7].content_store 	decision_no[7] 	37489
scalar tree_4_3_u09_r15_network.node[7].content_store 	decision_ratio[7] 	0.073956969592174
scalar tree_4_3_u09_r15_network.node[8].core_layer 	interests[8] 	26284
scalar tree_4_3_u09_r15_network.node[8].core_layer 	data[8] 	24249
scalar tree_4_3_u09_r15_network.node[8].content_store 	p_hit[8] 	0.077423527621367
scalar tree_4_3_u09_r15_network.node[8].content_store 	hits[8] 	2035
scalar tree_4_3_u09_r15_network.node[8].content_store 	misses[8] 	24249
scalar tree_4_3_u09_r15_network.node[8].content_store 	decision_yes[8] 	1609
scalar tree_4_3_u09_r15_network.node[8].content_store 	decision_no[8] 	22640
scalar tree_4_3_u09_r15_network.node[8].content_store 	decision_ratio[8] 	0.066353251680482
scalar tree_4_3_u09_r15_network.node[9].core_layer 	interests[9] 	12487
scalar tree_4_3_u09_r15_network.node[9].core_layer 	data[9] 	9906
scalar tree_4_3_u09_r15_network.node[9].content_store 	p_hit[9] 	0.20669496276127
scalar tree_4_3_u09_r15_network.node[9].content_store 	hits[9] 	2581
scalar tree_4_3_u09_r15_network.node[9].content_store 	misses[9] 	9906
scalar tree_4_3_u09_r15_network.node[9].content_store 	decision_yes[9] 	2157
scalar tree_4_3_u09_r15_network.node[9].content_store 	decision_no[9] 	7749
scalar tree_4_3_u09_r15_network.node[9].content_store 	decision_ratio[9] 	0.21774682010902
scalar tree_4_3_u09_r15_network.node[10].core_layer 	interests[10] 	43000
scalar tree_4_3_u09_r15_network.node[10].core_layer 	data[10] 	40422
scalar tree_4_3_u09_r15_network.node[10].content_store 	p_hit[10] 	0.059953488372093
scalar tree_4_3_u09_r15_network.node[10].content_store 	hits[10] 	2578
scalar tree_4_3_u09_r15_network.node[10].content_store 	misses[10] 	40422
scalar tree_4_3_u09_r15_network.node[10].content_store 	decision_yes[10] 	3022
scalar tree_4_3_u09_r15_network.node[10].content_store 	decision_no[10] 	37400
scalar tree_4_3_u09_r15_network.node[10].content_store 	decision_ratio[10] 	0.0747612686161
scalar tree_4_3_u09_r15_network.node[11].core_layer 	interests[11] 	27437
scalar tree_4_3_u09_r15_network.node[11].core_layer 	data[11] 	24976
scalar tree_4_3_u09_r15_network.node[11].content_store 	p_hit[11] 	0.089696395378503
scalar tree_4_3_u09_r15_network.node[11].content_store 	hits[11] 	2461
scalar tree_4_3_u09_r15_network.node[11].content_store 	misses[11] 	24976
scalar tree_4_3_u09_r15_network.node[11].content_store 	decision_yes[11] 	2462
scalar tree_4_3_u09_r15_network.node[11].content_store 	decision_no[11] 	22514
scalar tree_4_3_u09_r15_network.node[11].content_store 	decision_ratio[11] 	0.098574631646381
scalar tree_4_3_u09_r15_network.node[12].core_layer 	interests[12] 	11016
scalar tree_4_3_u09_r15_network.node[12].core_layer 	data[12] 	8986
scalar tree_4_3_u09_r15_network.node[12].content_store 	p_hit[12] 	0.18427741466957
scalar tree_4_3_u09_r15_network.node[12].content_store 	hits[12] 	2030
scalar tree_4_3_u09_r15_network.node[12].content_store 	misses[12] 	8986
scalar tree_4_3_u09_r15_network.node[12].content_store 	decision_yes[12] 	1291
scalar tree_4_3_u09_r15_network.node[12].content_store 	decision_no[12] 	7695
scalar tree_4_3_u09_r15_network.node[12].content_store 	decision_ratio[12] 	0.14366792788783
scalar tree_4_3_u09_r15_network.node[13].core_layer 	interests[13] 	12132
scalar tree_4_3_u09_r15_network.node[13].core_layer 	data[13] 	8703
scalar tree_4_3_u09_r15_network.node[13].content_store 	p_hit[13] 	0.28255852291461
scalar tree_4_3_u09_r15_network.node[13].content_store 	hits[13] 	3428
scalar tree_4_3_u09_r15_network.node[13].content_store 	misses[13] 	8704
scalar tree_4_3_u09_r15_network.node[13].content_store 	decision_yes[13] 	382
scalar tree_4_3_u09_r15_network.node[13].content_store 	decision_no[13] 	8321
scalar tree_4_3_u09_r15_network.node[13].content_store 	decision_ratio[13] 	0.043892910490635
scalar tree_4_3_u09_r15_network.node[14].core_layer 	interests[14] 	12432
scalar tree_4_3_u09_r15_network.node[14].core_layer 	data[14] 	8953
scalar tree_4_3_u09_r15_network.node[14].content_store 	p_hit[14] 	0.27984234234234
scalar tree_4_3_u09_r15_network.node[14].content_store 	hits[14] 	3479
scalar tree_4_3_u09_r15_network.node[14].content_store 	misses[14] 	8953
scalar tree_4_3_u09_r15_network.node[14].content_store 	decision_yes[14] 	387
scalar tree_4_3_u09_r15_network.node[14].content_store 	decision_no[14] 	8566
scalar tree_4_3_u09_r15_network.node[14].content_store 	decision_ratio[14] 	0.043225734390707
scalar tree_4_3_u09_r15_network.node[15].core_layer 	interests[15] 	12528
scalar tree_4_3_u09_r15_network.node[15].core_layer 	data[15] 	8913
scalar tree_4_3_u09_r15_network.node[15].content_store 	p_hit[15] 	0.28855363984674
scalar tree_4_3_u09_r15_network.node[15].content_store 	hits[15] 	3615
scalar tree_4_3_u09_r15_network.node[15].content_store 	misses[15] 	8913
scalar tree_4_3_u09_r15_network.node[15].content_store 	decision_yes[15] 	756
scalar tree_4_3_u09_r15_network.node[15].content_store 	decision_no[15] 	8157
scalar tree_4_3_u09_r15_network.node[15].content_store 	decision_ratio[15] 	0.084819925950858
scalar tree_4_3_u09_r15_network.node[16].core_layer 	interests[16] 	12405
scalar tree_4_3_u09_r15_network.node[16].core_layer 	data[16] 	8986
scalar tree_4_3_u09_r15_network.node[16].content_store 	p_hit[16] 	0.27561467150343
scalar tree_4_3_u09_r15_network.node[16].content_store 	hits[16] 	3419
scalar tree_4_3_u09_r15_network.node[16].content_store 	misses[16] 	8986
scalar tree_4_3_u09_r15_network.node[16].content_store 	decision_yes[16] 	426
scalar tree_4_3_u09_r15_network.node[16].content_store 	decision_no[16] 	8560
scalar tree_4_3_u09_r15_network.node[16].content_store 	decision_ratio[16] 	0.047407077676385
scalar tree_4_3_u09_r15_network.node[17].core_layer 	interests[17] 	12212
scalar tree_4_3_u09_r15_network.node[17].core_layer 	data[17] 	8653
scalar tree_4_3_u09_r15_network.node[17].content_store 	p_hit[17] 	0.29143465443826
scalar tree_4_3_u09_r15_network.node[17].content_store 	hits[17] 	3559
scalar tree_4_3_u09_r15_network.node[17].content_store 	misses[17] 	8653
scalar tree_4_3_u09_r15_network.node[17].content_store 	decision_yes[17] 	388
scalar tree_4_3_u09_r15_network.node[17].content_store 	decision_no[17] 	8265
scalar tree_4_3_u09_r15_network.node[17].content_store 	decision_ratio[17] 	0.044839939905235
scalar tree_4_3_u09_r15_network.node[18].core_layer 	interests[18] 	12520
scalar tree_4_3_u09_r15_network.node[18].core_layer 	data[18] 	8825
scalar tree_4_3_u09_r15_network.node[18].content_store 	p_hit[18] 	0.29512779552716
scalar tree_4_3_u09_r15_network.node[18].content_store 	hits[18] 	3695
scalar tree_4_3_u09_r15_network.node[18].content_store 	misses[18] 	8825
scalar tree_4_3_u09_r15_network.node[18].content_store 	decision_yes[18] 	771
scalar tree_4_3_u09_r15_network.node[18].content_store 	decision_no[18] 	8054
scalar tree_4_3_u09_r15_network.node[18].content_store 	decision_ratio[18] 	0.087365439093484
scalar tree_4_3_u09_r15_network.node[19].core_layer 	interests[19] 	12492
scalar tree_4_3_u09_r15_network.node[19].core_layer 	data[19] 	8882
scalar tree_4_3_u09_r15_network.node[19].content_store 	p_hit[19] 	0.28898495036824
scalar tree_4_3_u09_r15_network.node[19].content_store 	hits[19] 	3610
scalar tree_4_3_u09_r15_network.node[19].content_store 	misses[19] 	8882
scalar tree_4_3_u09_r15_network.node[19].content_store 	decision_yes[19] 	690
scalar tree_4_3_u09_r15_network.node[19].content_store 	decision_no[19] 	8192
scalar tree_4_3_u09_r15_network.node[19].content_store 	decision_ratio[19] 	0.077685206034677
scalar tree_4_3_u09_r15_network.node[20].core_layer 	interests[20] 	12370
scalar tree_4_3_u09_r15_network.node[20].core_layer 	data[20] 	8633
scalar tree_4_3_u09_r15_network.node[20].content_store 	p_hit[20] 	0.30210185933711
scalar tree_4_3_u09_r15_network.node[20].content_store 	hits[20] 	3737
scalar tree_4_3_u09_r15_network.node[20].content_store 	misses[20] 	8633
scalar tree_4_3_u09_r15_network.node[20].content_store 	decision_yes[20] 	728
scalar tree_4_3_u09_r15_network.node[20].content_store 	decision_no[20] 	7905
scalar tree_4_3_u09_r15_network.node[20].content_store 	decision_ratio[20] 	0.084327580215452
scalar tree_4_3_u09_r15_network.node[21].core_layer 	interests[21] 	12358
scalar tree_4_3_u09_r15_network.node[21].core_layer 	data[21] 	8863
scalar tree_4_3_u09_r15_network.node[21].content_store 	p_hit[21] 	0.28281275287263
scalar tree_4_3_u09_r15_network.node[21].content_store 	hits[21] 	3495
scalar tree_4_3_u09_r15_network.node[21].content_store 	misses[21] 	8863
scalar tree_4_3_u09_r15_network.node[21].content_store 	decision_yes[21] 	382
scalar tree_4_3_u09_r15_network.node[21].content_store 	decision_no[21] 	8481
scalar tree_4_3_u09_r15_network.node[21].content_store 	decision_ratio[21] 	0.043100530294483
scalar tree_4_3_u09_r15_network.node[22].core_layer 	interests[22] 	12327
scalar tree_4_3_u09_r15_network.node[22].core_layer 	data[22] 	8805
scalar tree_4_3_u09_r15_network.node[22].content_store 	p_hit[22] 	0.28571428571429
scalar tree_4_3_u09_r15_network.node[22].content_store 	hits[22] 	3522
scalar tree_4_3_u09_r15_network.node[22].content_store 	misses[22] 	8805
scalar tree_4_3_u09_r15_network.node[22].content_store 	decision_yes[22] 	416
scalar tree_4_3_u09_r15_network.node[22].content_store 	decision_no[22] 	8389
scalar tree_4_3_u09_r15_network.node[22].content_store 	decision_ratio[22] 	0.047245883021011
scalar tree_4_3_u09_r15_network.node[23].core_layer 	interests[23] 	12550
scalar tree_4_3_u09_r15_network.node[23].core_layer 	data[23] 	8812
scalar tree_4_3_u09_r15_network.node[23].content_store 	p_hit[23] 	0.29784860557769
scalar tree_4_3_u09_r15_network.node[23].content_store 	hits[23] 	3738
scalar tree_4_3_u09_r15_network.node[23].content_store 	misses[23] 	8812
scalar tree_4_3_u09_r15_network.node[23].content_store 	decision_yes[23] 	742
scalar tree_4_3_u09_r15_network.node[23].content_store 	decision_no[23] 	8070
scalar tree_4_3_u09_r15_network.node[23].content_store 	decision_ratio[23] 	0.084203359055833
scalar tree_4_3_u09_r15_network.node[24].core_layer 	interests[24] 	12789
scalar tree_4_3_u09_r15_network.node[24].core_layer 	data[24] 	9125
scalar tree_4_3_u09_r15_network.node[24].content_store 	p_hit[24] 	0.28649620767847
scalar tree_4_3_u09_r15_network.node[24].content_store 	hits[24] 	3664
scalar tree_4_3_u09_r15_network.node[24].content_store 	misses[24] 	9125
scalar tree_4_3_u09_r15_network.node[24].content_store 	decision_yes[24] 	797
scalar tree_4_3_u09_r15_network.node[24].content_store 	decision_no[24] 	8328
scalar tree_4_3_u09_r15_network.node[24].content_store 	decision_ratio[24] 	0.087342465753425
scalar tree_4_3_u09_r15_network.node[25].core_layer 	interests[25] 	12712
scalar tree_4_3_u09_r15_network.node[25].core_layer 	data[25] 	8987
scalar tree_4_3_u09_r15_network.node[25].content_store 	p_hit[25] 	0.29295154185022
scalar tree_4_3_u09_r15_network.node[25].content_store 	hits[25] 	3724
scalar tree_4_3_u09_r15_network.node[25].content_store 	misses[25] 	8988
scalar tree_4_3_u09_r15_network.node[25].content_store 	decision_yes[25] 	744
scalar tree_4_3_u09_r15_network.node[25].content_store 	decision_no[25] 	8243
scalar tree_4_3_u09_r15_network.node[25].content_store 	decision_ratio[25] 	0.082786246800935
scalar tree_4_3_u09_r15_network.node[26].core_layer 	interests[26] 	12238
scalar tree_4_3_u09_r15_network.node[26].core_layer 	data[26] 	8809
scalar tree_4_3_u09_r15_network.node[26].content_store 	p_hit[26] 	0.2802745546658
scalar tree_4_3_u09_r15_network.node[26].content_store 	hits[26] 	3430
scalar tree_4_3_u09_r15_network.node[26].content_store 	misses[26] 	8808
scalar tree_4_3_u09_r15_network.node[26].content_store 	decision_yes[26] 	375
scalar tree_4_3_u09_r15_network.node[26].content_store 	decision_no[26] 	8434
scalar tree_4_3_u09_r15_network.node[26].content_store 	decision_ratio[26] 	0.042570098762629
scalar tree_4_3_u09_r15_network.node[27].core_layer 	interests[27] 	12614
scalar tree_4_3_u09_r15_network.node[27].core_layer 	data[27] 	8902
scalar tree_4_3_u09_r15_network.node[27].content_store 	p_hit[27] 	0.29419692405264
scalar tree_4_3_u09_r15_network.node[27].content_store 	hits[27] 	3711
scalar tree_4_3_u09_r15_network.node[27].content_store 	misses[27] 	8903
scalar tree_4_3_u09_r15_network.node[27].content_store 	decision_yes[27] 	725
scalar tree_4_3_u09_r15_network.node[27].content_store 	decision_no[27] 	8177
scalar tree_4_3_u09_r15_network.node[27].content_store 	decision_ratio[27] 	0.081442372500562
scalar tree_4_3_u09_r15_network.node[28].core_layer 	interests[28] 	12696
scalar tree_4_3_u09_r15_network.node[28].core_layer 	data[28] 	8992
scalar tree_4_3_u09_r15_network.node[28].content_store 	p_hit[28] 	0.29174543163201
scalar tree_4_3_u09_r15_network.node[28].content_store 	hits[28] 	3704
scalar tree_4_3_u09_r15_network.node[28].content_store 	misses[28] 	8992
scalar tree_4_3_u09_r15_network.node[28].content_store 	decision_yes[28] 	779
scalar tree_4_3_u09_r15_network.node[28].content_store 	decision_no[28] 	8213
scalar tree_4_3_u09_r15_network.node[28].content_store 	decision_ratio[28] 	0.08663256227758
scalar tree_4_3_u09_r15_network.node[29].core_layer 	interests[29] 	12309
scalar tree_4_3_u09_r15_network.node[29].core_layer 	data[29] 	8744
scalar tree_4_3_u09_r15_network.node[29].content_store 	p_hit[29] 	0.28962547729304
scalar tree_4_3_u09_r15_network.node[29].content_store 	hits[29] 	3565
scalar tree_4_3_u09_r15_network.node[29].content_store 	misses[29] 	8744
scalar tree_4_3_u09_r15_network.node[29].content_store 	decision_yes[29] 	711
scalar tree_4_3_u09_r15_network.node[29].content_store 	decision_no[29] 	8033
scalar tree_4_3_u09_r15_network.node[29].content_store 	decision_ratio[29] 	0.081312900274474
scalar tree_4_3_u09_r15_network.node[30].core_layer 	interests[30] 	12331
scalar tree_4_3_u09_r15_network.node[30].core_layer 	data[30] 	8755
scalar tree_4_3_u09_r15_network.node[30].content_store 	p_hit[30] 	0.29000081096424
scalar tree_4_3_u09_r15_network.node[30].content_store 	hits[30] 	3576
scalar tree_4_3_u09_r15_network.node[30].content_store 	misses[30] 	8755
scalar tree_4_3_u09_r15_network.node[30].content_store 	decision_yes[30] 	428
scalar tree_4_3_u09_r15_network.node[30].content_store 	decision_no[30] 	8327
scalar tree_4_3_u09_r15_network.node[30].content_store 	decision_ratio[30] 	0.048886350656768
scalar tree_4_3_u09_r15_network.node[31].core_layer 	interests[31] 	12445
scalar tree_4_3_u09_r15_network.node[31].core_layer 	data[31] 	8938
scalar tree_4_3_u09_r15_network.node[31].content_store 	p_hit[31] 	0.28188027320209
scalar tree_4_3_u09_r15_network.node[31].content_store 	hits[31] 	3508
scalar tree_4_3_u09_r15_network.node[31].content_store 	misses[31] 	8937
scalar tree_4_3_u09_r15_network.node[31].content_store 	decision_yes[31] 	457
scalar tree_4_3_u09_r15_network.node[31].content_store 	decision_no[31] 	8481
scalar tree_4_3_u09_r15_network.node[31].content_store 	decision_ratio[31] 	0.051130006712911
scalar tree_4_3_u09_r15_network.node[32].core_layer 	interests[32] 	12539
scalar tree_4_3_u09_r15_network.node[32].core_layer 	data[32] 	8886
scalar tree_4_3_u09_r15_network.node[32].content_store 	p_hit[32] 	0.29133104713295
scalar tree_4_3_u09_r15_network.node[32].content_store 	hits[32] 	3653
scalar tree_4_3_u09_r15_network.node[32].content_store 	misses[32] 	8886
scalar tree_4_3_u09_r15_network.node[32].content_store 	decision_yes[32] 	698
scalar tree_4_3_u09_r15_network.node[32].content_store 	decision_no[32] 	8188
scalar tree_4_3_u09_r15_network.node[32].content_store 	decision_ratio[32] 	0.0785505289219
scalar tree_4_3_u09_r15_network.node[33].core_layer 	interests[33] 	12634
scalar tree_4_3_u09_r15_network.node[33].core_layer 	data[33] 	8905
scalar tree_4_3_u09_r15_network.node[33].content_store 	p_hit[33] 	0.29515592844705
scalar tree_4_3_u09_r15_network.node[33].content_store 	hits[33] 	3729
scalar tree_4_3_u09_r15_network.node[33].content_store 	misses[33] 	8905
scalar tree_4_3_u09_r15_network.node[33].content_store 	decision_yes[33] 	752
scalar tree_4_3_u09_r15_network.node[33].content_store 	decision_no[33] 	8153
scalar tree_4_3_u09_r15_network.node[33].content_store 	decision_ratio[33] 	0.084446939921392
scalar tree_4_3_u09_r15_network.node[34].core_layer 	interests[34] 	12659
scalar tree_4_3_u09_r15_network.node[34].core_layer 	data[34] 	8996
scalar tree_4_3_u09_r15_network.node[34].content_store 	p_hit[34] 	0.28935934907971
scalar tree_4_3_u09_r15_network.node[34].content_store 	hits[34] 	3663
scalar tree_4_3_u09_r15_network.node[34].content_store 	misses[34] 	8996
scalar tree_4_3_u09_r15_network.node[34].content_store 	decision_yes[34] 	729
scalar tree_4_3_u09_r15_network.node[34].content_store 	decision_no[34] 	8267
scalar tree_4_3_u09_r15_network.node[34].content_store 	decision_ratio[34] 	0.081036016007114
scalar tree_4_3_u09_r15_network.node[35].core_layer 	interests[35] 	12135
scalar tree_4_3_u09_r15_network.node[35].core_layer 	data[35] 	8739
scalar tree_4_3_u09_r15_network.node[35].content_store 	p_hit[35] 	0.27985166872682
scalar tree_4_3_u09_r15_network.node[35].content_store 	hits[35] 	3396
scalar tree_4_3_u09_r15_network.node[35].content_store 	misses[35] 	8739
scalar tree_4_3_u09_r15_network.node[35].content_store 	decision_yes[35] 	420
scalar tree_4_3_u09_r15_network.node[35].content_store 	decision_no[35] 	8319
scalar tree_4_3_u09_r15_network.node[35].content_store 	decision_ratio[35] 	0.048060418812221
scalar tree_4_3_u09_r15_network.node[36].core_layer 	interests[36] 	12459
scalar tree_4_3_u09_r15_network.node[36].core_layer 	data[36] 	8850
scalar tree_4_3_u09_r15_network.node[36].content_store 	p_hit[36] 	0.289670117987
scalar tree_4_3_u09_r15_network.node[36].content_store 	hits[36] 	3609
scalar tree_4_3_u09_r15_network.node[36].content_store 	misses[36] 	8850
scalar tree_4_3_u09_r15_network.node[36].content_store 	decision_yes[36] 	729
scalar tree_4_3_u09_r15_network.node[36].content_store 	decision_no[36] 	8121
scalar tree_4_3_u09_r15_network.node[36].content_store 	decision_ratio[36] 	0.082372881355932
scalar tree_4_3_u09_r15_network.node[37].core_layer 	interests[37] 	12481
scalar tree_4_3_u09_r15_network.node[37].core_layer 	data[37] 	8813
scalar tree_4_3_u09_r15_network.node[37].content_store 	p_hit[37] 	0.29388670779585
scalar tree_4_3_u09_r15_network.node[37].content_store 	hits[37] 	3668
scalar tree_4_3_u09_r15_network.node[37].content_store 	misses[37] 	8813
scalar tree_4_3_u09_r15_network.node[37].content_store 	decision_yes[37] 	738
scalar tree_4_3_u09_r15_network.node[37].content_store 	decision_no[37] 	8075
scalar tree_4_3_u09_r15_network.node[37].content_store 	decision_ratio[37] 	0.083739929649382
scalar tree_4_3_u09_r15_network.node[38].core_layer 	interests[38] 	12449
scalar tree_4_3_u09_r15_network.node[38].core_layer 	data[38] 	8822
scalar tree_4_3_u09_r15_network.node[38].content_store 	p_hit[38] 	0.29134870270704
scalar tree_4_3_u09_r15_network.node[38].content_store 	hits[38] 	3627
scalar tree_4_3_u09_r15_network.node[38].content_store 	misses[38] 	8822
scalar tree_4_3_u09_r15_network.node[38].content_store 	decision_yes[38] 	735
scalar tree_4_3_u09_r15_network.node[38].content_store 	decision_no[38] 	8087
scalar tree_4_3_u09_r15_network.node[38].content_store 	decision_ratio[38] 	0.083314441169803
scalar tree_4_3_u09_r15_network.node[39].core_layer 	interests[39] 	12124
scalar tree_4_3_u09_r15_network.node[39].core_layer 	data[39] 	8655
scalar tree_4_3_u09_r15_network.node[39].content_store 	p_hit[39] 	0.2861266908611
scalar tree_4_3_u09_r15_network.node[39].content_store 	hits[39] 	3469
scalar tree_4_3_u09_r15_network.node[39].content_store 	misses[39] 	8655
scalar tree_4_3_u09_r15_network.node[39].content_store 	decision_yes[39] 	355
scalar tree_4_3_u09_r15_network.node[39].content_store 	decision_no[39] 	8300
scalar tree_4_3_u09_r15_network.node[39].content_store 	decision_ratio[39] 	0.041016753321779
scalar tree_4_3_u09_r15_network.client[13] 	hdistance[13] 	2.7101388304586
scalar tree_4_3_u09_r15_network.client[13] 	downloads[13] 	11885
scalar tree_4_3_u09_r15_network.client[13] 	avg_time[13] 	0.004191867461
scalar tree_4_3_u09_r15_network.client[14] 	hdistance[14] 	2.7210543603219
scalar tree_4_3_u09_r15_network.client[14] 	downloads[14] 	12178
scalar tree_4_3_u09_r15_network.client[14] 	avg_time[14] 	0.004213122409
scalar tree_4_3_u09_r15_network.client[15] 	hdistance[15] 	2.6709358781182
scalar tree_4_3_u09_r15_network.client[15] 	downloads[15] 	11946
scalar tree_4_3_u09_r15_network.client[15] 	avg_time[15] 	0.004122213643
scalar tree_4_3_u09_r15_network.client[16] 	hdistance[16] 	2.7194435243458
scalar tree_4_3_u09_r15_network.client[16] 	downloads[16] 	12076
scalar tree_4_3_u09_r15_network.client[16] 	avg_time[16] 	0.004210000311
scalar tree_4_3_u09_r15_network.client[17] 	hdistance[17] 	2.6718091384252
scalar tree_4_3_u09_r15_network.client[17] 	downloads[17] 	11862
scalar tree_4_3_u09_r15_network.client[17] 	avg_time[17] 	0.004135140664
scalar tree_4_3_u09_r15_network.client[18] 	hdistance[18] 	2.6425381309514
scalar tree_4_3_u09_r15_network.client[18] 	downloads[18] 	11867
scalar tree_4_3_u09_r15_network.client[18] 	avg_time[18] 	0.004079573501
scalar tree_4_3_u09_r15_network.client[19] 	hdistance[19] 	2.6927280369903
scalar tree_4_3_u09_r15_network.client[19] 	downloads[19] 	11895
scalar tree_4_3_u09_r15_network.client[19] 	avg_time[19] 	0.004150984835
scalar tree_4_3_u09_r15_network.client[20] 	hdistance[20] 	2.6175893542609
scalar tree_4_3_u09_r15_network.client[20] 	downloads[20] 	11723
scalar tree_4_3_u09_r15_network.client[20] 	avg_time[20] 	0.004043501289
scalar tree_4_3_u09_r15_network.client[21] 	hdistance[21] 	2.6994344644045
scalar tree_4_3_u09_r15_network.client[21] 	downloads[21] 	12024
scalar tree_4_3_u09_r15_network.client[21] 	avg_time[21] 	0.004168493329
scalar tree_4_3_u09_r15_network.client[22] 	hdistance[22] 	2.6662495829163
scalar tree_4_3_u09_r15_network.client[22] 	downloads[22] 	11988
scalar tree_4_3_u09_r15_network.client[22] 	avg_time[22] 	0.004130961284
scalar tree_4_3_u09_r15_network.client[23] 	hdistance[23] 	2.6294657762938
scalar tree_4_3_u09_r15_network.client[23] 	downloads[23] 	11980
scalar tree_4_3_u09_r15_network.client[23] 	avg_time[23] 	0.004059878462
scalar tree_4_3_u09_r15_network.client[24] 	hdistance[24] 	2.6649954795759
scalar tree_4_3_u09_r15_network.client[24] 	downloads[24] 	12167
scalar tree_4_3_u09_r15_network.client[24] 	avg_time[24] 	0.004114240391
scalar tree_4_3_u09_r15_network.client[25] 	hdistance[25] 	2.6502467105263
scalar tree_4_3_u09_r15_network.client[25] 	downloads[25] 	12160
scalar tree_4_3_u09_r15_network.client[25] 	avg_time[25] 	0.004087003557
scalar tree_4_3_u09_r15_network.client[26] 	hdistance[26] 	2.7184142583493
scalar tree_4_3_u09_r15_network.client[26] 	downloads[26] 	12007
scalar tree_4_3_u09_r15_network.client[26] 	avg_time[26] 	0.004194716766
scalar tree_4_3_u09_r15_network.client[27] 	hdistance[27] 	2.6544745790827
scalar tree_4_3_u09_r15_network.client[27] 	downloads[27] 	12057
scalar tree_4_3_u09_r15_network.client[27] 	avg_time[27] 	0.004088742157
scalar tree_4_3_u09_r15_network.client[28] 	hdistance[28] 	2.6491431409885
scalar tree_4_3_u09_r15_network.client[28] 	downloads[28] 	12079
scalar tree_4_3_u09_r15_network.client[28] 	avg_time[28] 	0.004087752585
scalar tree_4_3_u09_r15_network.client[29] 	hdistance[29] 	2.6756871755595
scalar tree_4_3_u09_r15_network.client[29] 	downloads[29] 	11751
scalar tree_4_3_u09_r15_network.client[29] 	avg_time[29] 	0.004126113963
scalar tree_4_3_u09_r15_network.client[30] 	hdistance[30] 	2.6517731085458
scalar tree_4_3_u09_r15_network.client[30] 	downloads[30] 	12041
scalar tree_4_3_u09_r15_network.client[30] 	avg_time[30] 	0.004096168418
scalar tree_4_3_u09_r15_network.client[31] 	hdistance[31] 	2.6726116753365
scalar tree_4_3_u09_r15_network.client[31] 	downloads[31] 	12111
scalar tree_4_3_u09_r15_network.client[31] 	avg_time[31] 	0.004139869804
scalar tree_4_3_u09_r15_network.client[32] 	hdistance[32] 	2.6698572628044
scalar tree_4_3_u09_r15_network.client[32] 	downloads[32] 	11910
scalar tree_4_3_u09_r15_network.client[32] 	avg_time[32] 	0.004117328254
scalar tree_4_3_u09_r15_network.client[33] 	hdistance[33] 	2.6400430392319
scalar tree_4_3_u09_r15_network.client[33] 	downloads[33] 	12082
scalar tree_4_3_u09_r15_network.client[33] 	avg_time[33] 	0.004074322411
scalar tree_4_3_u09_r15_network.client[34] 	hdistance[34] 	2.6673862504151
scalar tree_4_3_u09_r15_network.client[34] 	downloads[34] 	12044
scalar tree_4_3_u09_r15_network.client[34] 	avg_time[34] 	0.004113933315
scalar tree_4_3_u09_r15_network.client[35] 	hdistance[35] 	2.6802933243426
scalar tree_4_3_u09_r15_network.client[35] 	downloads[35] 	11864
scalar tree_4_3_u09_r15_network.client[35] 	avg_time[35] 	0.004148176407
scalar tree_4_3_u09_r15_network.client[36] 	hdistance[36] 	2.6670307511343
scalar tree_4_3_u09_r15_network.client[36] 	downloads[36] 	11902
scalar tree_4_3_u09_r15_network.client[36] 	avg_time[36] 	0.004116616098
scalar tree_4_3_u09_r15_network.client[37] 	hdistance[37] 	2.640060367234
scalar tree_4_3_u09_r15_network.client[37] 	downloads[37] 	11927
scalar tree_4_3_u09_r15_network.client[37] 	avg_time[37] 	0.004081325098
scalar tree_4_3_u09_r15_network.client[38] 	hdistance[38] 	2.6567764646719
scalar tree_4_3_u09_r15_network.client[38] 	downloads[38] 	11931
scalar tree_4_3_u09_r15_network.client[38] 	avg_time[38] 	0.004093201824
scalar tree_4_3_u09_r15_network.client[39] 	hdistance[39] 	2.6891630991354
scalar tree_4_3_u09_r15_network.client[39] 	downloads[39] 	11913
scalar tree_4_3_u09_r15_network.client[39] 	avg_time[39] 	0.004154617993
