version 2
run General-203-20160819-06:12:20-14109
attr a 0.9
attr cd fix0.01
attr configname General
attr cr lru
attr datetime 20160819-06:12:20
attr experiment General
attr fsize 1
attr inifile hw5115/scenario_A/NRR-FIX0.01.ini
attr iterationvars "$name=tree_4_3, $un=10, $rep=4, $cd=fix0.01, $cr=lru, $fsize=1, $a=0.9, $sl=nrr, $ttl=1000, $variance=0.05"
attr iterationvars2 "$name=tree_4_3, $un=10, $rep=4, $cd=fix0.01, $cr=lru, $fsize=1, $a=0.9, $sl=nrr, $ttl=1000, $variance=0.05, $repetition=0"
attr measurement "$name=tree_4_3, $un=10, $rep=4, $cd=fix0.01, $cr=lru, $fsize=1, $a=0.9, $sl=nrr, $ttl=1000, $variance=0.05"
attr name tree_4_3
attr network networks.${name}_u${un}_r${rep}_network
attr processid 14109
attr rep 4
attr repetition 0
attr replication #0
attr resultdir results
attr runnumber 203
attr seedset 4
attr sl nrr
attr ttl 1000
attr un 10
attr variance 0.05

scalar . 	a 	0.9
scalar . 	fsize 	1
scalar . 	rep 	4
scalar . 	ttl 	1000
scalar . 	un 	10
scalar . 	variance 	0.05
scalar tree_4_3_u10_r4_network.content_distribution 	repo-0 	0
scalar tree_4_3_u10_r4_network.content_distribution 	client-0 	13
scalar tree_4_3_u10_r4_network.content_distribution 	client-1 	14
scalar tree_4_3_u10_r4_network.content_distribution 	client-2 	15
scalar tree_4_3_u10_r4_network.content_distribution 	client-3 	16
scalar tree_4_3_u10_r4_network.content_distribution 	client-4 	17
scalar tree_4_3_u10_r4_network.content_distribution 	client-5 	18
scalar tree_4_3_u10_r4_network.content_distribution 	client-6 	19
scalar tree_4_3_u10_r4_network.content_distribution 	client-7 	20
scalar tree_4_3_u10_r4_network.content_distribution 	client-8 	21
scalar tree_4_3_u10_r4_network.content_distribution 	client-9 	22
scalar tree_4_3_u10_r4_network.content_distribution 	client-10 	23
scalar tree_4_3_u10_r4_network.content_distribution 	client-11 	24
scalar tree_4_3_u10_r4_network.content_distribution 	client-12 	25
scalar tree_4_3_u10_r4_network.content_distribution 	client-13 	26
scalar tree_4_3_u10_r4_network.content_distribution 	client-14 	27
scalar tree_4_3_u10_r4_network.content_distribution 	client-15 	28
scalar tree_4_3_u10_r4_network.content_distribution 	client-16 	29
scalar tree_4_3_u10_r4_network.content_distribution 	client-17 	30
scalar tree_4_3_u10_r4_network.content_distribution 	client-18 	31
scalar tree_4_3_u10_r4_network.content_distribution 	client-19 	32
scalar tree_4_3_u10_r4_network.content_distribution 	client-20 	33
scalar tree_4_3_u10_r4_network.content_distribution 	client-21 	34
scalar tree_4_3_u10_r4_network.content_distribution 	client-22 	35
scalar tree_4_3_u10_r4_network.content_distribution 	client-23 	36
scalar tree_4_3_u10_r4_network.content_distribution 	client-24 	37
scalar tree_4_3_u10_r4_network.content_distribution 	client-25 	38
scalar tree_4_3_u10_r4_network.content_distribution 	client-26 	39
scalar tree_4_3_u10_r4_network.content_distribution 	repo-0_card 	100000
scalar tree_4_3_u10_r4_network.content_distribution 	repo-0_price 	0
scalar tree_4_3_u10_r4_network.statistics 	stabilization_time 	1751.6
scalar tree_4_3_u10_r4_network.statistics 	p_hit 	0.24643567464325
scalar tree_4_3_u10_r4_network.statistics 	interests 	25367.85
scalar tree_4_3_u10_r4_network.statistics 	data 	17281.725
scalar tree_4_3_u10_r4_network.statistics 	hdistance 	2.6619857551273
scalar tree_4_3_u10_r4_network.statistics 	avg_time 	0.004274535319
scalar tree_4_3_u10_r4_network.statistics 	downloads 	323442
scalar tree_4_3_u10_r4_network.statistics 	total_cost 	0
scalar tree_4_3_u10_r4_network.statistics 	total_replicas 	100000
scalar tree_4_3_u10_r4_network.statistics 	inner_hit 	0.4753186042629
scalar tree_4_3_u10_r4_network.node[0].core_layer 	interests[0] 	170707
scalar tree_4_3_u10_r4_network.node[0].core_layer 	repo_load[0] 	169704
scalar tree_4_3_u10_r4_network.node[0].core_layer 	data[0] 	0
scalar tree_4_3_u10_r4_network.node[0].core_layer 	repo_int[0] 	169704
scalar tree_4_3_u10_r4_network.node[0].content_store 	p_hit[0] 	0.0058755645638433
scalar tree_4_3_u10_r4_network.node[0].content_store 	hits[0] 	1003
scalar tree_4_3_u10_r4_network.node[0].content_store 	misses[0] 	169704
scalar tree_4_3_u10_r4_network.node[0].content_store 	decision_yes[0] 	1716
scalar tree_4_3_u10_r4_network.node[0].content_store 	decision_no[0] 	167988
scalar tree_4_3_u10_r4_network.node[0].content_store 	decision_ratio[0] 	0.010111723942865
scalar tree_4_3_u10_r4_network.node[1].core_layer 	interests[1] 	132942
scalar tree_4_3_u10_r4_network.node[1].core_layer 	data[1] 	131622
scalar tree_4_3_u10_r4_network.node[1].content_store 	p_hit[1] 	0.0099291420318635
scalar tree_4_3_u10_r4_network.node[1].content_store 	hits[1] 	1320
scalar tree_4_3_u10_r4_network.node[1].content_store 	misses[1] 	131622
scalar tree_4_3_u10_r4_network.node[1].content_store 	decision_yes[1] 	1312
scalar tree_4_3_u10_r4_network.node[1].content_store 	decision_no[1] 	130310
scalar tree_4_3_u10_r4_network.node[1].content_store 	decision_ratio[1] 	0.0099679384905259
scalar tree_4_3_u10_r4_network.node[2].core_layer 	interests[2] 	56019
scalar tree_4_3_u10_r4_network.node[2].core_layer 	data[2] 	52812
scalar tree_4_3_u10_r4_network.node[2].content_store 	p_hit[2] 	0.057212731394705
scalar tree_4_3_u10_r4_network.node[2].content_store 	hits[2] 	3205
scalar tree_4_3_u10_r4_network.node[2].content_store 	misses[2] 	52814
scalar tree_4_3_u10_r4_network.node[2].content_store 	decision_yes[2] 	549
scalar tree_4_3_u10_r4_network.node[2].content_store 	decision_no[2] 	52263
scalar tree_4_3_u10_r4_network.node[2].content_store 	decision_ratio[2] 	0.010395364689843
scalar tree_4_3_u10_r4_network.node[3].core_layer 	interests[3] 	16365
scalar tree_4_3_u10_r4_network.node[3].core_layer 	data[3] 	12211
scalar tree_4_3_u10_r4_network.node[3].content_store 	p_hit[3] 	0.25377329666972
scalar tree_4_3_u10_r4_network.node[3].content_store 	hits[3] 	4153
scalar tree_4_3_u10_r4_network.node[3].content_store 	misses[3] 	12212
scalar tree_4_3_u10_r4_network.node[3].content_store 	decision_yes[3] 	118
scalar tree_4_3_u10_r4_network.node[3].content_store 	decision_no[3] 	12093
scalar tree_4_3_u10_r4_network.node[3].content_store 	decision_ratio[3] 	0.0096634182294652
scalar tree_4_3_u10_r4_network.node[4].core_layer 	interests[4] 	43384
scalar tree_4_3_u10_r4_network.node[4].core_layer 	data[4] 	40131
scalar tree_4_3_u10_r4_network.node[4].content_store 	p_hit[4] 	0.074981560022128
scalar tree_4_3_u10_r4_network.node[4].content_store 	hits[4] 	3253
scalar tree_4_3_u10_r4_network.node[4].content_store 	misses[4] 	40131
scalar tree_4_3_u10_r4_network.node[4].content_store 	decision_yes[4] 	407
scalar tree_4_3_u10_r4_network.node[4].content_store 	decision_no[4] 	39724
scalar tree_4_3_u10_r4_network.node[4].content_store 	decision_ratio[4] 	0.01014178565199
scalar tree_4_3_u10_r4_network.node[5].core_layer 	interests[5] 	32160
scalar tree_4_3_u10_r4_network.node[5].core_layer 	data[5] 	28064
scalar tree_4_3_u10_r4_network.node[5].content_store 	p_hit[5] 	0.1273631840796
scalar tree_4_3_u10_r4_network.node[5].content_store 	hits[5] 	4096
scalar tree_4_3_u10_r4_network.node[5].content_store 	misses[5] 	28064
scalar tree_4_3_u10_r4_network.node[5].content_store 	decision_yes[5] 	290
scalar tree_4_3_u10_r4_network.node[5].content_store 	decision_no[5] 	27774
scalar tree_4_3_u10_r4_network.node[5].content_store 	decision_ratio[5] 	0.010333523375143
scalar tree_4_3_u10_r4_network.node[6].core_layer 	interests[6] 	17280
scalar tree_4_3_u10_r4_network.node[6].core_layer 	data[6] 	12908
scalar tree_4_3_u10_r4_network.node[6].content_store 	p_hit[6] 	0.25300925925926
scalar tree_4_3_u10_r4_network.node[6].content_store 	hits[6] 	4372
scalar tree_4_3_u10_r4_network.node[6].content_store 	misses[6] 	12908
scalar tree_4_3_u10_r4_network.node[6].content_store 	decision_yes[6] 	136
scalar tree_4_3_u10_r4_network.node[6].content_store 	decision_no[6] 	12772
scalar tree_4_3_u10_r4_network.node[6].content_store 	decision_ratio[6] 	0.010536101642392
scalar tree_4_3_u10_r4_network.node[7].core_layer 	interests[7] 	46715
scalar tree_4_3_u10_r4_network.node[7].core_layer 	data[7] 	42938
scalar tree_4_3_u10_r4_network.node[7].content_store 	p_hit[7] 	0.080830568339934
scalar tree_4_3_u10_r4_network.node[7].content_store 	hits[7] 	3776
scalar tree_4_3_u10_r4_network.node[7].content_store 	misses[7] 	42939
scalar tree_4_3_u10_r4_network.node[7].content_store 	decision_yes[7] 	450
scalar tree_4_3_u10_r4_network.node[7].content_store 	decision_no[7] 	42488
scalar tree_4_3_u10_r4_network.node[7].content_store 	decision_ratio[7] 	0.010480227304486
scalar tree_4_3_u10_r4_network.node[8].core_layer 	interests[8] 	29238
scalar tree_4_3_u10_r4_network.node[8].core_layer 	data[8] 	25399
scalar tree_4_3_u10_r4_network.node[8].content_store 	p_hit[8] 	0.13133593269033
scalar tree_4_3_u10_r4_network.node[8].content_store 	hits[8] 	3840
scalar tree_4_3_u10_r4_network.node[8].content_store 	misses[8] 	25398
scalar tree_4_3_u10_r4_network.node[8].content_store 	decision_yes[8] 	242
scalar tree_4_3_u10_r4_network.node[8].content_store 	decision_no[8] 	25157
scalar tree_4_3_u10_r4_network.node[8].content_store 	decision_ratio[8] 	0.0095279341706366
scalar tree_4_3_u10_r4_network.node[9].core_layer 	interests[9] 	17269
scalar tree_4_3_u10_r4_network.node[9].core_layer 	data[9] 	12807
scalar tree_4_3_u10_r4_network.node[9].content_store 	p_hit[9] 	0.25832416468817
scalar tree_4_3_u10_r4_network.node[9].content_store 	hits[9] 	4461
scalar tree_4_3_u10_r4_network.node[9].content_store 	misses[9] 	12808
scalar tree_4_3_u10_r4_network.node[9].content_store 	decision_yes[9] 	141
scalar tree_4_3_u10_r4_network.node[9].content_store 	decision_no[9] 	12666
scalar tree_4_3_u10_r4_network.node[9].content_store 	decision_ratio[9] 	0.011009604122745
scalar tree_4_3_u10_r4_network.node[10].core_layer 	interests[10] 	46255
scalar tree_4_3_u10_r4_network.node[10].core_layer 	data[10] 	42724
scalar tree_4_3_u10_r4_network.node[10].content_store 	p_hit[10] 	0.076294454653551
scalar tree_4_3_u10_r4_network.node[10].content_store 	hits[10] 	3529
scalar tree_4_3_u10_r4_network.node[10].content_store 	misses[10] 	42726
scalar tree_4_3_u10_r4_network.node[10].content_store 	decision_yes[10] 	427
scalar tree_4_3_u10_r4_network.node[10].content_store 	decision_no[10] 	42297
scalar tree_4_3_u10_r4_network.node[10].content_store 	decision_ratio[10] 	0.0099943825484505
scalar tree_4_3_u10_r4_network.node[11].core_layer 	interests[11] 	31737
scalar tree_4_3_u10_r4_network.node[11].core_layer 	data[11] 	27464
scalar tree_4_3_u10_r4_network.node[11].content_store 	p_hit[11] 	0.13463780445537
scalar tree_4_3_u10_r4_network.node[11].content_store 	hits[11] 	4273
scalar tree_4_3_u10_r4_network.node[11].content_store 	misses[11] 	27464
scalar tree_4_3_u10_r4_network.node[11].content_store 	decision_yes[11] 	255
scalar tree_4_3_u10_r4_network.node[11].content_store 	decision_no[11] 	27209
scalar tree_4_3_u10_r4_network.node[11].content_store 	decision_ratio[11] 	0.0092848820273813
scalar tree_4_3_u10_r4_network.node[12].core_layer 	interests[12] 	13876
scalar tree_4_3_u10_r4_network.node[12].core_layer 	data[12] 	10213
scalar tree_4_3_u10_r4_network.node[12].content_store 	p_hit[12] 	0.26390890746613
scalar tree_4_3_u10_r4_network.node[12].content_store 	hits[12] 	3662
scalar tree_4_3_u10_r4_network.node[12].content_store 	misses[12] 	10214
scalar tree_4_3_u10_r4_network.node[12].content_store 	decision_yes[12] 	102
scalar tree_4_3_u10_r4_network.node[12].content_store 	decision_no[12] 	10111
scalar tree_4_3_u10_r4_network.node[12].content_store 	decision_ratio[12] 	0.0099872711250367
scalar tree_4_3_u10_r4_network.node[13].core_layer 	interests[13] 	12845
scalar tree_4_3_u10_r4_network.node[13].core_layer 	data[13] 	9363
scalar tree_4_3_u10_r4_network.node[13].content_store 	p_hit[13] 	0.27107824056053
scalar tree_4_3_u10_r4_network.node[13].content_store 	hits[13] 	3482
scalar tree_4_3_u10_r4_network.node[13].content_store 	misses[13] 	9363
scalar tree_4_3_u10_r4_network.node[13].content_store 	decision_yes[13] 	111
scalar tree_4_3_u10_r4_network.node[13].content_store 	decision_no[13] 	9252
scalar tree_4_3_u10_r4_network.node[13].content_store 	decision_ratio[13] 	0.011855174623518
scalar tree_4_3_u10_r4_network.node[14].core_layer 	interests[14] 	13670
scalar tree_4_3_u10_r4_network.node[14].core_layer 	data[14] 	9395
scalar tree_4_3_u10_r4_network.node[14].content_store 	p_hit[14] 	0.31272860277981
scalar tree_4_3_u10_r4_network.node[14].content_store 	hits[14] 	4275
scalar tree_4_3_u10_r4_network.node[14].content_store 	misses[14] 	9395
scalar tree_4_3_u10_r4_network.node[14].content_store 	decision_yes[14] 	86
scalar tree_4_3_u10_r4_network.node[14].content_store 	decision_no[14] 	9309
scalar tree_4_3_u10_r4_network.node[14].content_store 	decision_ratio[14] 	0.0091538052155402
scalar tree_4_3_u10_r4_network.node[15].core_layer 	interests[15] 	13471
scalar tree_4_3_u10_r4_network.node[15].core_layer 	data[15] 	9488
scalar tree_4_3_u10_r4_network.node[15].content_store 	p_hit[15] 	0.29567218469304
scalar tree_4_3_u10_r4_network.node[15].content_store 	hits[15] 	3983
scalar tree_4_3_u10_r4_network.node[15].content_store 	misses[15] 	9488
scalar tree_4_3_u10_r4_network.node[15].content_store 	decision_yes[15] 	104
scalar tree_4_3_u10_r4_network.node[15].content_store 	decision_no[15] 	9384
scalar tree_4_3_u10_r4_network.node[15].content_store 	decision_ratio[15] 	0.010961214165261
scalar tree_4_3_u10_r4_network.node[16].core_layer 	interests[16] 	13631
scalar tree_4_3_u10_r4_network.node[16].core_layer 	data[16] 	9237
scalar tree_4_3_u10_r4_network.node[16].content_store 	p_hit[16] 	0.32220673464896
scalar tree_4_3_u10_r4_network.node[16].content_store 	hits[16] 	4392
scalar tree_4_3_u10_r4_network.node[16].content_store 	misses[16] 	9239
scalar tree_4_3_u10_r4_network.node[16].content_store 	decision_yes[16] 	100
scalar tree_4_3_u10_r4_network.node[16].content_store 	decision_no[16] 	9137
scalar tree_4_3_u10_r4_network.node[16].content_store 	decision_ratio[16] 	0.010826025765941
scalar tree_4_3_u10_r4_network.node[17].core_layer 	interests[17] 	12938
scalar tree_4_3_u10_r4_network.node[17].core_layer 	data[17] 	9179
scalar tree_4_3_u10_r4_network.node[17].content_store 	p_hit[17] 	0.29053949605812
scalar tree_4_3_u10_r4_network.node[17].content_store 	hits[17] 	3759
scalar tree_4_3_u10_r4_network.node[17].content_store 	misses[17] 	9179
scalar tree_4_3_u10_r4_network.node[17].content_store 	decision_yes[17] 	95
scalar tree_4_3_u10_r4_network.node[17].content_store 	decision_no[17] 	9084
scalar tree_4_3_u10_r4_network.node[17].content_store 	decision_ratio[17] 	0.010349711297527
scalar tree_4_3_u10_r4_network.node[18].core_layer 	interests[18] 	13778
scalar tree_4_3_u10_r4_network.node[18].core_layer 	data[18] 	9346
scalar tree_4_3_u10_r4_network.node[18].content_store 	p_hit[18] 	0.32167223109305
scalar tree_4_3_u10_r4_network.node[18].content_store 	hits[18] 	4432
scalar tree_4_3_u10_r4_network.node[18].content_store 	misses[18] 	9346
scalar tree_4_3_u10_r4_network.node[18].content_store 	decision_yes[18] 	77
scalar tree_4_3_u10_r4_network.node[18].content_store 	decision_no[18] 	9269
scalar tree_4_3_u10_r4_network.node[18].content_store 	decision_ratio[18] 	0.0082388187459876
scalar tree_4_3_u10_r4_network.node[19].core_layer 	interests[19] 	13636
scalar tree_4_3_u10_r4_network.node[19].core_layer 	data[19] 	9367
scalar tree_4_3_u10_r4_network.node[19].content_store 	p_hit[19] 	0.31306834848929
scalar tree_4_3_u10_r4_network.node[19].content_store 	hits[19] 	4269
scalar tree_4_3_u10_r4_network.node[19].content_store 	misses[19] 	9367
scalar tree_4_3_u10_r4_network.node[19].content_store 	decision_yes[19] 	75
scalar tree_4_3_u10_r4_network.node[19].content_store 	decision_no[19] 	9292
scalar tree_4_3_u10_r4_network.node[19].content_store 	decision_ratio[19] 	0.0080068324970642
scalar tree_4_3_u10_r4_network.node[20].core_layer 	interests[20] 	13502
scalar tree_4_3_u10_r4_network.node[20].core_layer 	data[20] 	9220
scalar tree_4_3_u10_r4_network.node[20].content_store 	p_hit[20] 	0.31713820174789
scalar tree_4_3_u10_r4_network.node[20].content_store 	hits[20] 	4282
scalar tree_4_3_u10_r4_network.node[20].content_store 	misses[20] 	9220
scalar tree_4_3_u10_r4_network.node[20].content_store 	decision_yes[20] 	101
scalar tree_4_3_u10_r4_network.node[20].content_store 	decision_no[20] 	9119
scalar tree_4_3_u10_r4_network.node[20].content_store 	decision_ratio[20] 	0.010954446854664
scalar tree_4_3_u10_r4_network.node[21].core_layer 	interests[21] 	13025
scalar tree_4_3_u10_r4_network.node[21].core_layer 	data[21] 	9395
scalar tree_4_3_u10_r4_network.node[21].content_store 	p_hit[21] 	0.27877159309021
scalar tree_4_3_u10_r4_network.node[21].content_store 	hits[21] 	3631
scalar tree_4_3_u10_r4_network.node[21].content_store 	misses[21] 	9394
scalar tree_4_3_u10_r4_network.node[21].content_store 	decision_yes[21] 	89
scalar tree_4_3_u10_r4_network.node[21].content_store 	decision_no[21] 	9306
scalar tree_4_3_u10_r4_network.node[21].content_store 	decision_ratio[21] 	0.0094731240021288
scalar tree_4_3_u10_r4_network.node[22].core_layer 	interests[22] 	12968
scalar tree_4_3_u10_r4_network.node[22].core_layer 	data[22] 	9351
scalar tree_4_3_u10_r4_network.node[22].content_store 	p_hit[22] 	0.27891733497841
scalar tree_4_3_u10_r4_network.node[22].content_store 	hits[22] 	3617
scalar tree_4_3_u10_r4_network.node[22].content_store 	misses[22] 	9351
scalar tree_4_3_u10_r4_network.node[22].content_store 	decision_yes[22] 	106
scalar tree_4_3_u10_r4_network.node[22].content_store 	decision_no[22] 	9245
scalar tree_4_3_u10_r4_network.node[22].content_store 	decision_ratio[22] 	0.011335686022885
scalar tree_4_3_u10_r4_network.node[23].core_layer 	interests[23] 	13592
scalar tree_4_3_u10_r4_network.node[23].core_layer 	data[23] 	9565
scalar tree_4_3_u10_r4_network.node[23].content_store 	p_hit[23] 	0.29627722189523
scalar tree_4_3_u10_r4_network.node[23].content_store 	hits[23] 	4027
scalar tree_4_3_u10_r4_network.node[23].content_store 	misses[23] 	9565
scalar tree_4_3_u10_r4_network.node[23].content_store 	decision_yes[23] 	101
scalar tree_4_3_u10_r4_network.node[23].content_store 	decision_no[23] 	9464
scalar tree_4_3_u10_r4_network.node[23].content_store 	decision_ratio[23] 	0.010559330893884
scalar tree_4_3_u10_r4_network.node[24].core_layer 	interests[24] 	13673
scalar tree_4_3_u10_r4_network.node[24].core_layer 	data[24] 	9398
scalar tree_4_3_u10_r4_network.node[24].content_store 	p_hit[24] 	0.31265998683537
scalar tree_4_3_u10_r4_network.node[24].content_store 	hits[24] 	4275
scalar tree_4_3_u10_r4_network.node[24].content_store 	misses[24] 	9398
scalar tree_4_3_u10_r4_network.node[24].content_store 	decision_yes[24] 	109
scalar tree_4_3_u10_r4_network.node[24].content_store 	decision_no[24] 	9289
scalar tree_4_3_u10_r4_network.node[24].content_store 	decision_ratio[24] 	0.011598212385614
scalar tree_4_3_u10_r4_network.node[25].core_layer 	interests[25] 	13499
scalar tree_4_3_u10_r4_network.node[25].core_layer 	data[25] 	9313
scalar tree_4_3_u10_r4_network.node[25].content_store 	p_hit[25] 	0.31002296466405
scalar tree_4_3_u10_r4_network.node[25].content_store 	hits[25] 	4185
scalar tree_4_3_u10_r4_network.node[25].content_store 	misses[25] 	9314
scalar tree_4_3_u10_r4_network.node[25].content_store 	decision_yes[25] 	84
scalar tree_4_3_u10_r4_network.node[25].content_store 	decision_no[25] 	9229
scalar tree_4_3_u10_r4_network.node[25].content_store 	decision_ratio[25] 	0.0090196499516804
scalar tree_4_3_u10_r4_network.node[26].core_layer 	interests[26] 	13036
scalar tree_4_3_u10_r4_network.node[26].core_layer 	data[26] 	9509
scalar tree_4_3_u10_r4_network.node[26].content_store 	p_hit[26] 	0.27055845351335
scalar tree_4_3_u10_r4_network.node[26].content_store 	hits[26] 	3527
scalar tree_4_3_u10_r4_network.node[26].content_store 	misses[26] 	9509
scalar tree_4_3_u10_r4_network.node[26].content_store 	decision_yes[26] 	105
scalar tree_4_3_u10_r4_network.node[26].content_store 	decision_no[26] 	9404
scalar tree_4_3_u10_r4_network.node[26].content_store 	decision_ratio[26] 	0.011042170575245
scalar tree_4_3_u10_r4_network.node[27].core_layer 	interests[27] 	13476
scalar tree_4_3_u10_r4_network.node[27].core_layer 	data[27] 	9442
scalar tree_4_3_u10_r4_network.node[27].content_store 	p_hit[27] 	0.29934698723657
scalar tree_4_3_u10_r4_network.node[27].content_store 	hits[27] 	4034
scalar tree_4_3_u10_r4_network.node[27].content_store 	misses[27] 	9442
scalar tree_4_3_u10_r4_network.node[27].content_store 	decision_yes[27] 	101
scalar tree_4_3_u10_r4_network.node[27].content_store 	decision_no[27] 	9341
scalar tree_4_3_u10_r4_network.node[27].content_store 	decision_ratio[27] 	0.010696886252913
scalar tree_4_3_u10_r4_network.node[28].core_layer 	interests[28] 	13669
scalar tree_4_3_u10_r4_network.node[28].core_layer 	data[28] 	9235
scalar tree_4_3_u10_r4_network.node[28].content_store 	p_hit[28] 	0.32438364181725
scalar tree_4_3_u10_r4_network.node[28].content_store 	hits[28] 	4434
scalar tree_4_3_u10_r4_network.node[28].content_store 	misses[28] 	9235
scalar tree_4_3_u10_r4_network.node[28].content_store 	decision_yes[28] 	98
scalar tree_4_3_u10_r4_network.node[28].content_store 	decision_no[28] 	9137
scalar tree_4_3_u10_r4_network.node[28].content_store 	decision_ratio[28] 	0.01061180292366
scalar tree_4_3_u10_r4_network.node[29].core_layer 	interests[29] 	13632
scalar tree_4_3_u10_r4_network.node[29].core_layer 	data[29] 	9434
scalar tree_4_3_u10_r4_network.node[29].content_store 	p_hit[29] 	0.30802523474178
scalar tree_4_3_u10_r4_network.node[29].content_store 	hits[29] 	4199
scalar tree_4_3_u10_r4_network.node[29].content_store 	misses[29] 	9433
scalar tree_4_3_u10_r4_network.node[29].content_store 	decision_yes[29] 	85
scalar tree_4_3_u10_r4_network.node[29].content_store 	decision_no[29] 	9349
scalar tree_4_3_u10_r4_network.node[29].content_store 	decision_ratio[29] 	0.0090099639601442
scalar tree_4_3_u10_r4_network.node[30].core_layer 	interests[30] 	12798
scalar tree_4_3_u10_r4_network.node[30].core_layer 	data[30] 	9220
scalar tree_4_3_u10_r4_network.node[30].content_store 	p_hit[30] 	0.27957493358337
scalar tree_4_3_u10_r4_network.node[30].content_store 	hits[30] 	3578
scalar tree_4_3_u10_r4_network.node[30].content_store 	misses[30] 	9220
scalar tree_4_3_u10_r4_network.node[30].content_store 	decision_yes[30] 	92
scalar tree_4_3_u10_r4_network.node[30].content_store 	decision_no[30] 	9128
scalar tree_4_3_u10_r4_network.node[30].content_store 	decision_ratio[30] 	0.0099783080260304
scalar tree_4_3_u10_r4_network.node[31].core_layer 	interests[31] 	13046
scalar tree_4_3_u10_r4_network.node[31].core_layer 	data[31] 	9329
scalar tree_4_3_u10_r4_network.node[31].content_store 	p_hit[31] 	0.28491491644949
scalar tree_4_3_u10_r4_network.node[31].content_store 	hits[31] 	3717
scalar tree_4_3_u10_r4_network.node[31].content_store 	misses[31] 	9329
scalar tree_4_3_u10_r4_network.node[31].content_store 	decision_yes[31] 	84
scalar tree_4_3_u10_r4_network.node[31].content_store 	decision_no[31] 	9245
scalar tree_4_3_u10_r4_network.node[31].content_store 	decision_ratio[31] 	0.0090041805123807
scalar tree_4_3_u10_r4_network.node[32].core_layer 	interests[32] 	13633
scalar tree_4_3_u10_r4_network.node[32].core_layer 	data[32] 	9363
scalar tree_4_3_u10_r4_network.node[32].content_store 	p_hit[32] 	0.31321059194601
scalar tree_4_3_u10_r4_network.node[32].content_store 	hits[32] 	4270
scalar tree_4_3_u10_r4_network.node[32].content_store 	misses[32] 	9363
scalar tree_4_3_u10_r4_network.node[32].content_store 	decision_yes[32] 	98
scalar tree_4_3_u10_r4_network.node[32].content_store 	decision_no[32] 	9265
scalar tree_4_3_u10_r4_network.node[32].content_store 	decision_ratio[32] 	0.010466730748692
scalar tree_4_3_u10_r4_network.node[33].core_layer 	interests[33] 	13554
scalar tree_4_3_u10_r4_network.node[33].core_layer 	data[33] 	9228
scalar tree_4_3_u10_r4_network.node[33].content_store 	p_hit[33] 	0.3190939943928
scalar tree_4_3_u10_r4_network.node[33].content_store 	hits[33] 	4325
scalar tree_4_3_u10_r4_network.node[33].content_store 	misses[33] 	9229
scalar tree_4_3_u10_r4_network.node[33].content_store 	decision_yes[33] 	96
scalar tree_4_3_u10_r4_network.node[33].content_store 	decision_no[33] 	9132
scalar tree_4_3_u10_r4_network.node[33].content_store 	decision_ratio[33] 	0.010403120936281
scalar tree_4_3_u10_r4_network.node[34].core_layer 	interests[34] 	13775
scalar tree_4_3_u10_r4_network.node[34].core_layer 	data[34] 	9412
scalar tree_4_3_u10_r4_network.node[34].content_store 	p_hit[34] 	0.3167332123412
scalar tree_4_3_u10_r4_network.node[34].content_store 	hits[34] 	4363
scalar tree_4_3_u10_r4_network.node[34].content_store 	misses[34] 	9412
scalar tree_4_3_u10_r4_network.node[34].content_store 	decision_yes[34] 	84
scalar tree_4_3_u10_r4_network.node[34].content_store 	decision_no[34] 	9328
scalar tree_4_3_u10_r4_network.node[34].content_store 	decision_ratio[34] 	0.008924776880578
scalar tree_4_3_u10_r4_network.node[35].core_layer 	interests[35] 	12902
scalar tree_4_3_u10_r4_network.node[35].core_layer 	data[35] 	9345
scalar tree_4_3_u10_r4_network.node[35].content_store 	p_hit[35] 	0.27569369090064
scalar tree_4_3_u10_r4_network.node[35].content_store 	hits[35] 	3557
scalar tree_4_3_u10_r4_network.node[35].content_store 	misses[35] 	9345
scalar tree_4_3_u10_r4_network.node[35].content_store 	decision_yes[35] 	98
scalar tree_4_3_u10_r4_network.node[35].content_store 	decision_no[35] 	9247
scalar tree_4_3_u10_r4_network.node[35].content_store 	decision_ratio[35] 	0.010486891385768
scalar tree_4_3_u10_r4_network.node[36].core_layer 	interests[36] 	13911
scalar tree_4_3_u10_r4_network.node[36].core_layer 	data[36] 	9382
scalar tree_4_3_u10_r4_network.node[36].content_store 	p_hit[36] 	0.32556969304867
scalar tree_4_3_u10_r4_network.node[36].content_store 	hits[36] 	4529
scalar tree_4_3_u10_r4_network.node[36].content_store 	misses[36] 	9382
scalar tree_4_3_u10_r4_network.node[36].content_store 	decision_yes[36] 	84
scalar tree_4_3_u10_r4_network.node[36].content_store 	decision_no[36] 	9298
scalar tree_4_3_u10_r4_network.node[36].content_store 	decision_ratio[36] 	0.0089533148582392
scalar tree_4_3_u10_r4_network.node[37].core_layer 	interests[37] 	13303
scalar tree_4_3_u10_r4_network.node[37].core_layer 	data[37] 	9283
scalar tree_4_3_u10_r4_network.node[37].content_store 	p_hit[37] 	0.30218747650906
scalar tree_4_3_u10_r4_network.node[37].content_store 	hits[37] 	4020
scalar tree_4_3_u10_r4_network.node[37].content_store 	misses[37] 	9283
scalar tree_4_3_u10_r4_network.node[37].content_store 	decision_yes[37] 	78
scalar tree_4_3_u10_r4_network.node[37].content_store 	decision_no[37] 	9205
scalar tree_4_3_u10_r4_network.node[37].content_store 	decision_ratio[37] 	0.0084024561025531
scalar tree_4_3_u10_r4_network.node[38].core_layer 	interests[38] 	13233
scalar tree_4_3_u10_r4_network.node[38].core_layer 	data[38] 	9029
scalar tree_4_3_u10_r4_network.node[38].content_store 	p_hit[38] 	0.31769062193002
scalar tree_4_3_u10_r4_network.node[38].content_store 	hits[38] 	4204
scalar tree_4_3_u10_r4_network.node[38].content_store 	misses[38] 	9029
scalar tree_4_3_u10_r4_network.node[38].content_store 	decision_yes[38] 	81
scalar tree_4_3_u10_r4_network.node[38].content_store 	decision_no[38] 	8948
scalar tree_4_3_u10_r4_network.node[38].content_store 	decision_ratio[38] 	0.0089710931443128
scalar tree_4_3_u10_r4_network.node[39].core_layer 	interests[39] 	12571
scalar tree_4_3_u10_r4_network.node[39].core_layer 	data[39] 	9148
scalar tree_4_3_u10_r4_network.node[39].content_store 	p_hit[39] 	0.27221382547132
scalar tree_4_3_u10_r4_network.node[39].content_store 	hits[39] 	3422
scalar tree_4_3_u10_r4_network.node[39].content_store 	misses[39] 	9149
scalar tree_4_3_u10_r4_network.node[39].content_store 	decision_yes[39] 	89
scalar tree_4_3_u10_r4_network.node[39].content_store 	decision_no[39] 	9059
scalar tree_4_3_u10_r4_network.node[39].content_store 	decision_ratio[39] 	0.0097289024923481
scalar tree_4_3_u10_r4_network.client[13] 	hdistance[13] 	2.7768128161889
scalar tree_4_3_u10_r4_network.client[13] 	downloads[13] 	11860
scalar tree_4_3_u10_r4_network.client[13] 	avg_time[13] 	0.004445022337
scalar tree_4_3_u10_r4_network.client[14] 	hdistance[14] 	2.6658018078339
scalar tree_4_3_u10_r4_network.client[14] 	downloads[14] 	11948
scalar tree_4_3_u10_r4_network.client[14] 	avg_time[14] 	0.004284563484
scalar tree_4_3_u10_r4_network.client[15] 	hdistance[15] 	2.648585883719
scalar tree_4_3_u10_r4_network.client[15] 	downloads[15] 	12057
scalar tree_4_3_u10_r4_network.client[15] 	avg_time[15] 	0.004248980999
scalar tree_4_3_u10_r4_network.client[16] 	hdistance[16] 	2.6381303400905
scalar tree_4_3_u10_r4_network.client[16] 	downloads[16] 	11938
scalar tree_4_3_u10_r4_network.client[16] 	avg_time[16] 	0.004223395029
scalar tree_4_3_u10_r4_network.client[17] 	hdistance[17] 	2.7139485882849
scalar tree_4_3_u10_r4_network.client[17] 	downloads[17] 	11865
scalar tree_4_3_u10_r4_network.client[17] 	avg_time[17] 	0.004376735334
scalar tree_4_3_u10_r4_network.client[18] 	hdistance[18] 	2.6224668501376
scalar tree_4_3_u10_r4_network.client[18] 	downloads[18] 	11991
scalar tree_4_3_u10_r4_network.client[18] 	avg_time[18] 	0.004213657263
scalar tree_4_3_u10_r4_network.client[19] 	hdistance[19] 	2.6318608867645
scalar tree_4_3_u10_r4_network.client[19] 	downloads[19] 	12134
scalar tree_4_3_u10_r4_network.client[19] 	avg_time[19] 	0.00422778667
scalar tree_4_3_u10_r4_network.client[20] 	hdistance[20] 	2.6182954641439
scalar tree_4_3_u10_r4_network.client[20] 	downloads[20] 	11839
scalar tree_4_3_u10_r4_network.client[20] 	avg_time[20] 	0.004203223687
scalar tree_4_3_u10_r4_network.client[21] 	hdistance[21] 	2.7205160216396
scalar tree_4_3_u10_r4_network.client[21] 	downloads[21] 	12015
scalar tree_4_3_u10_r4_network.client[21] 	avg_time[21] 	0.004382865085
scalar tree_4_3_u10_r4_network.client[22] 	hdistance[22] 	2.7440247367541
scalar tree_4_3_u10_r4_network.client[22] 	downloads[22] 	11966
scalar tree_4_3_u10_r4_network.client[22] 	avg_time[22] 	0.004431720228
scalar tree_4_3_u10_r4_network.client[23] 	hdistance[23] 	2.6791274664891
scalar tree_4_3_u10_r4_network.client[23] 	downloads[23] 	12011
scalar tree_4_3_u10_r4_network.client[23] 	avg_time[23] 	0.004309713098
scalar tree_4_3_u10_r4_network.client[24] 	hdistance[24] 	2.5950905033474
scalar tree_4_3_u10_r4_network.client[24] 	downloads[24] 	12099
scalar tree_4_3_u10_r4_network.client[24] 	avg_time[24] 	0.004169432486
scalar tree_4_3_u10_r4_network.client[25] 	hdistance[25] 	2.6656475583864
scalar tree_4_3_u10_r4_network.client[25] 	downloads[25] 	11775
scalar tree_4_3_u10_r4_network.client[25] 	avg_time[25] 	0.004282215769
scalar tree_4_3_u10_r4_network.client[26] 	hdistance[26] 	2.7449752883031
scalar tree_4_3_u10_r4_network.client[26] 	downloads[26] 	12140
scalar tree_4_3_u10_r4_network.client[26] 	avg_time[26] 	0.004391430271
scalar tree_4_3_u10_r4_network.client[27] 	hdistance[27] 	2.6406055061133
scalar tree_4_3_u10_r4_network.client[27] 	downloads[27] 	12023
scalar tree_4_3_u10_r4_network.client[27] 	avg_time[27] 	0.004234713756
scalar tree_4_3_u10_r4_network.client[28] 	hdistance[28] 	2.6000503397936
scalar tree_4_3_u10_r4_network.client[28] 	downloads[28] 	11919
scalar tree_4_3_u10_r4_network.client[28] 	avg_time[28] 	0.004177637065
scalar tree_4_3_u10_r4_network.client[29] 	hdistance[29] 	2.6196364843555
scalar tree_4_3_u10_r4_network.client[29] 	downloads[29] 	12049
scalar tree_4_3_u10_r4_network.client[29] 	avg_time[29] 	0.004203831333
scalar tree_4_3_u10_r4_network.client[30] 	hdistance[30] 	2.7004956733597
scalar tree_4_3_u10_r4_network.client[30] 	downloads[30] 	11903
scalar tree_4_3_u10_r4_network.client[30] 	avg_time[30] 	0.004352204933
scalar tree_4_3_u10_r4_network.client[31] 	hdistance[31] 	2.7193113772455
scalar tree_4_3_u10_r4_network.client[31] 	downloads[31] 	12024
scalar tree_4_3_u10_r4_network.client[31] 	avg_time[31] 	0.004383230538
scalar tree_4_3_u10_r4_network.client[32] 	hdistance[32] 	2.6188623002401
scalar tree_4_3_u10_r4_network.client[32] 	downloads[32] 	12077
scalar tree_4_3_u10_r4_network.client[32] 	avg_time[32] 	0.004202752677
scalar tree_4_3_u10_r4_network.client[33] 	hdistance[33] 	2.6143192882323
scalar tree_4_3_u10_r4_network.client[33] 	downloads[33] 	11914
scalar tree_4_3_u10_r4_network.client[33] 	avg_time[33] 	0.004198251175
scalar tree_4_3_u10_r4_network.client[34] 	hdistance[34] 	2.6565664951021
scalar tree_4_3_u10_r4_network.client[34] 	downloads[34] 	12046
scalar tree_4_3_u10_r4_network.client[34] 	avg_time[34] 	0.004261660637
scalar tree_4_3_u10_r4_network.client[35] 	hdistance[35] 	2.6983903086625
scalar tree_4_3_u10_r4_network.client[35] 	downloads[35] 	12052
scalar tree_4_3_u10_r4_network.client[35] 	avg_time[35] 	0.004350312287
scalar tree_4_3_u10_r4_network.client[36] 	hdistance[36] 	2.6275112070397
scalar tree_4_3_u10_r4_network.client[36] 	downloads[36] 	12046
scalar tree_4_3_u10_r4_network.client[36] 	avg_time[36] 	0.004203900207
scalar tree_4_3_u10_r4_network.client[37] 	hdistance[37] 	2.6227253668763
scalar tree_4_3_u10_r4_network.client[37] 	downloads[37] 	11925
scalar tree_4_3_u10_r4_network.client[37] 	avg_time[37] 	0.004208298917
scalar tree_4_3_u10_r4_network.client[38] 	hdistance[38] 	2.5752827817344
scalar tree_4_3_u10_r4_network.client[38] 	downloads[38] 	11935
scalar tree_4_3_u10_r4_network.client[38] 	avg_time[38] 	0.004122829017
scalar tree_4_3_u10_r4_network.client[39] 	hdistance[39] 	2.714574047599
scalar tree_4_3_u10_r4_network.client[39] 	downloads[39] 	11891
scalar tree_4_3_u10_r4_network.client[39] 	avg_time[39] 	0.004322089352
