version 2
run General-215-20160819-06:32:43-14109
attr a 0.9
attr cd fix0.01
attr configname General
attr cr lru
attr datetime 20160819-06:32:43
attr experiment General
attr fsize 1
attr inifile hw5115/scenario_A/NRR-FIX0.01.ini
attr iterationvars "$name=tree_4_3, $un=10, $rep=16, $cd=fix0.01, $cr=lru, $fsize=1, $a=0.9, $sl=nrr, $ttl=1000, $variance=0.05"
attr iterationvars2 "$name=tree_4_3, $un=10, $rep=16, $cd=fix0.01, $cr=lru, $fsize=1, $a=0.9, $sl=nrr, $ttl=1000, $variance=0.05, $repetition=0"
attr measurement "$name=tree_4_3, $un=10, $rep=16, $cd=fix0.01, $cr=lru, $fsize=1, $a=0.9, $sl=nrr, $ttl=1000, $variance=0.05"
attr name tree_4_3
attr network networks.${name}_u${un}_r${rep}_network
attr processid 14109
attr rep 16
attr repetition 0
attr replication #0
attr resultdir results
attr runnumber 215
attr seedset 16
attr sl nrr
attr ttl 1000
attr un 10
attr variance 0.05

scalar . 	a 	0.9
scalar . 	fsize 	1
scalar . 	rep 	16
scalar . 	ttl 	1000
scalar . 	un 	10
scalar . 	variance 	0.05
scalar tree_4_3_u10_r16_network.content_distribution 	repo-0 	0
scalar tree_4_3_u10_r16_network.content_distribution 	client-0 	13
scalar tree_4_3_u10_r16_network.content_distribution 	client-1 	14
scalar tree_4_3_u10_r16_network.content_distribution 	client-2 	15
scalar tree_4_3_u10_r16_network.content_distribution 	client-3 	16
scalar tree_4_3_u10_r16_network.content_distribution 	client-4 	17
scalar tree_4_3_u10_r16_network.content_distribution 	client-5 	18
scalar tree_4_3_u10_r16_network.content_distribution 	client-6 	19
scalar tree_4_3_u10_r16_network.content_distribution 	client-7 	20
scalar tree_4_3_u10_r16_network.content_distribution 	client-8 	21
scalar tree_4_3_u10_r16_network.content_distribution 	client-9 	22
scalar tree_4_3_u10_r16_network.content_distribution 	client-10 	23
scalar tree_4_3_u10_r16_network.content_distribution 	client-11 	24
scalar tree_4_3_u10_r16_network.content_distribution 	client-12 	25
scalar tree_4_3_u10_r16_network.content_distribution 	client-13 	26
scalar tree_4_3_u10_r16_network.content_distribution 	client-14 	27
scalar tree_4_3_u10_r16_network.content_distribution 	client-15 	28
scalar tree_4_3_u10_r16_network.content_distribution 	client-16 	29
scalar tree_4_3_u10_r16_network.content_distribution 	client-17 	30
scalar tree_4_3_u10_r16_network.content_distribution 	client-18 	31
scalar tree_4_3_u10_r16_network.content_distribution 	client-19 	32
scalar tree_4_3_u10_r16_network.content_distribution 	client-20 	33
scalar tree_4_3_u10_r16_network.content_distribution 	client-21 	34
scalar tree_4_3_u10_r16_network.content_distribution 	client-22 	35
scalar tree_4_3_u10_r16_network.content_distribution 	client-23 	36
scalar tree_4_3_u10_r16_network.content_distribution 	client-24 	37
scalar tree_4_3_u10_r16_network.content_distribution 	client-25 	38
scalar tree_4_3_u10_r16_network.content_distribution 	client-26 	39
scalar tree_4_3_u10_r16_network.content_distribution 	repo-0_card 	100000
scalar tree_4_3_u10_r16_network.content_distribution 	repo-0_price 	0
scalar tree_4_3_u10_r16_network.statistics 	stabilization_time 	1669.1
scalar tree_4_3_u10_r16_network.statistics 	p_hit 	0.24647349567496
scalar tree_4_3_u10_r16_network.statistics 	interests 	25366.625
scalar tree_4_3_u10_r16_network.statistics 	data 	17293.8
scalar tree_4_3_u10_r16_network.statistics 	hdistance 	2.6655802137706
scalar tree_4_3_u10_r16_network.statistics 	avg_time 	0.004284391941
scalar tree_4_3_u10_r16_network.statistics 	downloads 	322914
scalar tree_4_3_u10_r16_network.statistics 	total_cost 	0
scalar tree_4_3_u10_r16_network.statistics 	total_replicas 	100000
scalar tree_4_3_u10_r16_network.statistics 	inner_hit 	0.47662535535777
scalar tree_4_3_u10_r16_network.node[0].core_layer 	interests[0] 	170003
scalar tree_4_3_u10_r16_network.node[0].core_layer 	repo_load[0] 	169005
scalar tree_4_3_u10_r16_network.node[0].core_layer 	data[0] 	0
scalar tree_4_3_u10_r16_network.node[0].core_layer 	repo_int[0] 	169005
scalar tree_4_3_u10_r16_network.node[0].content_store 	p_hit[0] 	0.0058704846385064
scalar tree_4_3_u10_r16_network.node[0].content_store 	hits[0] 	998
scalar tree_4_3_u10_r16_network.node[0].content_store 	misses[0] 	169005
scalar tree_4_3_u10_r16_network.node[0].content_store 	decision_yes[0] 	1701
scalar tree_4_3_u10_r16_network.node[0].content_store 	decision_no[0] 	167304
scalar tree_4_3_u10_r16_network.node[0].content_store 	decision_ratio[0] 	0.010064790982515
scalar tree_4_3_u10_r16_network.node[1].core_layer 	interests[1] 	133187
scalar tree_4_3_u10_r16_network.node[1].core_layer 	data[1] 	131741
scalar tree_4_3_u10_r16_network.node[1].content_store 	p_hit[1] 	0.010834390743841
scalar tree_4_3_u10_r16_network.node[1].content_store 	hits[1] 	1443
scalar tree_4_3_u10_r16_network.node[1].content_store 	misses[1] 	131744
scalar tree_4_3_u10_r16_network.node[1].content_store 	decision_yes[1] 	1357
scalar tree_4_3_u10_r16_network.node[1].content_store 	decision_no[1] 	130384
scalar tree_4_3_u10_r16_network.node[1].content_store 	decision_ratio[1] 	0.010300513887097
scalar tree_4_3_u10_r16_network.node[2].core_layer 	interests[2] 	56135
scalar tree_4_3_u10_r16_network.node[2].core_layer 	data[2] 	52798
scalar tree_4_3_u10_r16_network.node[2].content_store 	p_hit[2] 	0.059428164246905
scalar tree_4_3_u10_r16_network.node[2].content_store 	hits[2] 	3336
scalar tree_4_3_u10_r16_network.node[2].content_store 	misses[2] 	52799
scalar tree_4_3_u10_r16_network.node[2].content_store 	decision_yes[2] 	486
scalar tree_4_3_u10_r16_network.node[2].content_store 	decision_no[2] 	52312
scalar tree_4_3_u10_r16_network.node[2].content_store 	decision_ratio[2] 	0.0092048941247775
scalar tree_4_3_u10_r16_network.node[3].core_layer 	interests[3] 	16682
scalar tree_4_3_u10_r16_network.node[3].core_layer 	data[3] 	12656
scalar tree_4_3_u10_r16_network.node[3].content_store 	p_hit[3] 	0.24133796906846
scalar tree_4_3_u10_r16_network.node[3].content_store 	hits[3] 	4026
scalar tree_4_3_u10_r16_network.node[3].content_store 	misses[3] 	12656
scalar tree_4_3_u10_r16_network.node[3].content_store 	decision_yes[3] 	118
scalar tree_4_3_u10_r16_network.node[3].content_store 	decision_no[3] 	12538
scalar tree_4_3_u10_r16_network.node[3].content_store 	decision_ratio[3] 	0.0093236409608091
scalar tree_4_3_u10_r16_network.node[4].core_layer 	interests[4] 	43339
scalar tree_4_3_u10_r16_network.node[4].core_layer 	data[4] 	40057
scalar tree_4_3_u10_r16_network.node[4].content_store 	p_hit[4] 	0.07572855857311
scalar tree_4_3_u10_r16_network.node[4].content_store 	hits[4] 	3282
scalar tree_4_3_u10_r16_network.node[4].content_store 	misses[4] 	40057
scalar tree_4_3_u10_r16_network.node[4].content_store 	decision_yes[4] 	400
scalar tree_4_3_u10_r16_network.node[4].content_store 	decision_no[4] 	39657
scalar tree_4_3_u10_r16_network.node[4].content_store 	decision_ratio[4] 	0.0099857702773548
scalar tree_4_3_u10_r16_network.node[5].core_layer 	interests[5] 	32540
scalar tree_4_3_u10_r16_network.node[5].core_layer 	data[5] 	28390
scalar tree_4_3_u10_r16_network.node[5].content_store 	p_hit[5] 	0.12753534111862
scalar tree_4_3_u10_r16_network.node[5].content_store 	hits[5] 	4150
scalar tree_4_3_u10_r16_network.node[5].content_store 	misses[5] 	28390
scalar tree_4_3_u10_r16_network.node[5].content_store 	decision_yes[5] 	265
scalar tree_4_3_u10_r16_network.node[5].content_store 	decision_no[5] 	28125
scalar tree_4_3_u10_r16_network.node[5].content_store 	decision_ratio[5] 	0.0093342726312082
scalar tree_4_3_u10_r16_network.node[6].core_layer 	interests[6] 	17480
scalar tree_4_3_u10_r16_network.node[6].core_layer 	data[6] 	12754
scalar tree_4_3_u10_r16_network.node[6].content_store 	p_hit[6] 	0.27036613272311
scalar tree_4_3_u10_r16_network.node[6].content_store 	hits[6] 	4726
scalar tree_4_3_u10_r16_network.node[6].content_store 	misses[6] 	12754
scalar tree_4_3_u10_r16_network.node[6].content_store 	decision_yes[6] 	141
scalar tree_4_3_u10_r16_network.node[6].content_store 	decision_no[6] 	12613
scalar tree_4_3_u10_r16_network.node[6].content_store 	decision_ratio[6] 	0.011055355182688
scalar tree_4_3_u10_r16_network.node[7].core_layer 	interests[7] 	46484
scalar tree_4_3_u10_r16_network.node[7].core_layer 	data[7] 	42991
scalar tree_4_3_u10_r16_network.node[7].content_store 	p_hit[7] 	0.075165648395147
scalar tree_4_3_u10_r16_network.node[7].content_store 	hits[7] 	3494
scalar tree_4_3_u10_r16_network.node[7].content_store 	misses[7] 	42990
scalar tree_4_3_u10_r16_network.node[7].content_store 	decision_yes[7] 	430
scalar tree_4_3_u10_r16_network.node[7].content_store 	decision_no[7] 	42561
scalar tree_4_3_u10_r16_network.node[7].content_store 	decision_ratio[7] 	0.010002093461422
scalar tree_4_3_u10_r16_network.node[8].core_layer 	interests[8] 	28338
scalar tree_4_3_u10_r16_network.node[8].core_layer 	data[8] 	24902
scalar tree_4_3_u10_r16_network.node[8].content_store 	p_hit[8] 	0.1212859058508
scalar tree_4_3_u10_r16_network.node[8].content_store 	hits[8] 	3437
scalar tree_4_3_u10_r16_network.node[8].content_store 	misses[8] 	24901
scalar tree_4_3_u10_r16_network.node[8].content_store 	decision_yes[8] 	274
scalar tree_4_3_u10_r16_network.node[8].content_store 	decision_no[8] 	24628
scalar tree_4_3_u10_r16_network.node[8].content_store 	decision_ratio[8] 	0.011003132278532
scalar tree_4_3_u10_r16_network.node[9].core_layer 	interests[9] 	17775
scalar tree_4_3_u10_r16_network.node[9].core_layer 	data[9] 	12761
scalar tree_4_3_u10_r16_network.node[9].content_store 	p_hit[9] 	0.2820253164557
scalar tree_4_3_u10_r16_network.node[9].content_store 	hits[9] 	5013
scalar tree_4_3_u10_r16_network.node[9].content_store 	misses[9] 	12762
scalar tree_4_3_u10_r16_network.node[9].content_store 	decision_yes[9] 	113
scalar tree_4_3_u10_r16_network.node[9].content_store 	decision_no[9] 	12648
scalar tree_4_3_u10_r16_network.node[9].content_store 	decision_ratio[9] 	0.0088551053992634
scalar tree_4_3_u10_r16_network.node[10].core_layer 	interests[10] 	46785
scalar tree_4_3_u10_r16_network.node[10].core_layer 	data[10] 	42859
scalar tree_4_3_u10_r16_network.node[10].content_store 	p_hit[10] 	0.083937159345944
scalar tree_4_3_u10_r16_network.node[10].content_store 	hits[10] 	3927
scalar tree_4_3_u10_r16_network.node[10].content_store 	misses[10] 	42858
scalar tree_4_3_u10_r16_network.node[10].content_store 	decision_yes[10] 	406
scalar tree_4_3_u10_r16_network.node[10].content_store 	decision_no[10] 	42453
scalar tree_4_3_u10_r16_network.node[10].content_store 	decision_ratio[10] 	0.0094729228400103
scalar tree_4_3_u10_r16_network.node[11].core_layer 	interests[11] 	32089
scalar tree_4_3_u10_r16_network.node[11].core_layer 	data[11] 	28003
scalar tree_4_3_u10_r16_network.node[11].content_store 	p_hit[11] 	0.12730219078189
scalar tree_4_3_u10_r16_network.node[11].content_store 	hits[11] 	4085
scalar tree_4_3_u10_r16_network.node[11].content_store 	misses[11] 	28004
scalar tree_4_3_u10_r16_network.node[11].content_store 	decision_yes[11] 	300
scalar tree_4_3_u10_r16_network.node[11].content_store 	decision_no[11] 	27703
scalar tree_4_3_u10_r16_network.node[11].content_store 	decision_ratio[11] 	0.010713137878084
scalar tree_4_3_u10_r16_network.node[12].core_layer 	interests[12] 	13918
scalar tree_4_3_u10_r16_network.node[12].core_layer 	data[12] 	10282
scalar tree_4_3_u10_r16_network.node[12].content_store 	p_hit[12] 	0.26117258226757
scalar tree_4_3_u10_r16_network.node[12].content_store 	hits[12] 	3635
scalar tree_4_3_u10_r16_network.node[12].content_store 	misses[12] 	10283
scalar tree_4_3_u10_r16_network.node[12].content_store 	decision_yes[12] 	112
scalar tree_4_3_u10_r16_network.node[12].content_store 	decision_no[12] 	10170
scalar tree_4_3_u10_r16_network.node[12].content_store 	decision_ratio[12] 	0.010892822408092
scalar tree_4_3_u10_r16_network.node[13].core_layer 	interests[13] 	12910
scalar tree_4_3_u10_r16_network.node[13].core_layer 	data[13] 	9373
scalar tree_4_3_u10_r16_network.node[13].content_store 	p_hit[13] 	0.27397366382649
scalar tree_4_3_u10_r16_network.node[13].content_store 	hits[13] 	3537
scalar tree_4_3_u10_r16_network.node[13].content_store 	misses[13] 	9373
scalar tree_4_3_u10_r16_network.node[13].content_store 	decision_yes[13] 	85
scalar tree_4_3_u10_r16_network.node[13].content_store 	decision_no[13] 	9288
scalar tree_4_3_u10_r16_network.node[13].content_store 	decision_ratio[13] 	0.009068601301611
scalar tree_4_3_u10_r16_network.node[14].core_layer 	interests[14] 	13634
scalar tree_4_3_u10_r16_network.node[14].core_layer 	data[14] 	9160
scalar tree_4_3_u10_r16_network.node[14].content_store 	p_hit[14] 	0.32815021270354
scalar tree_4_3_u10_r16_network.node[14].content_store 	hits[14] 	4474
scalar tree_4_3_u10_r16_network.node[14].content_store 	misses[14] 	9160
scalar tree_4_3_u10_r16_network.node[14].content_store 	decision_yes[14] 	79
scalar tree_4_3_u10_r16_network.node[14].content_store 	decision_no[14] 	9081
scalar tree_4_3_u10_r16_network.node[14].content_store 	decision_ratio[14] 	0.0086244541484716
scalar tree_4_3_u10_r16_network.node[15].core_layer 	interests[15] 	13534
scalar tree_4_3_u10_r16_network.node[15].core_layer 	data[15] 	9352
scalar tree_4_3_u10_r16_network.node[15].content_store 	p_hit[15] 	0.30899955667209
scalar tree_4_3_u10_r16_network.node[15].content_store 	hits[15] 	4182
scalar tree_4_3_u10_r16_network.node[15].content_store 	misses[15] 	9352
scalar tree_4_3_u10_r16_network.node[15].content_store 	decision_yes[15] 	89
scalar tree_4_3_u10_r16_network.node[15].content_store 	decision_no[15] 	9263
scalar tree_4_3_u10_r16_network.node[15].content_store 	decision_ratio[15] 	0.0095166809238666
scalar tree_4_3_u10_r16_network.node[16].core_layer 	interests[16] 	13644
scalar tree_4_3_u10_r16_network.node[16].core_layer 	data[16] 	9467
scalar tree_4_3_u10_r16_network.node[16].content_store 	p_hit[16] 	0.30614189387276
scalar tree_4_3_u10_r16_network.node[16].content_store 	hits[16] 	4177
scalar tree_4_3_u10_r16_network.node[16].content_store 	misses[16] 	9467
scalar tree_4_3_u10_r16_network.node[16].content_store 	decision_yes[16] 	79
scalar tree_4_3_u10_r16_network.node[16].content_store 	decision_no[16] 	9388
scalar tree_4_3_u10_r16_network.node[16].content_store 	decision_ratio[16] 	0.0083447765923735
scalar tree_4_3_u10_r16_network.node[17].core_layer 	interests[17] 	13062
scalar tree_4_3_u10_r16_network.node[17].core_layer 	data[17] 	9358
scalar tree_4_3_u10_r16_network.node[17].content_store 	p_hit[17] 	0.28357066299188
scalar tree_4_3_u10_r16_network.node[17].content_store 	hits[17] 	3704
scalar tree_4_3_u10_r16_network.node[17].content_store 	misses[17] 	9358
scalar tree_4_3_u10_r16_network.node[17].content_store 	decision_yes[17] 	77
scalar tree_4_3_u10_r16_network.node[17].content_store 	decision_no[17] 	9281
scalar tree_4_3_u10_r16_network.node[17].content_store 	decision_ratio[17] 	0.0082282539004061
scalar tree_4_3_u10_r16_network.node[18].core_layer 	interests[18] 	13722
scalar tree_4_3_u10_r16_network.node[18].core_layer 	data[18] 	9500
scalar tree_4_3_u10_r16_network.node[18].content_store 	p_hit[18] 	0.30768109605014
scalar tree_4_3_u10_r16_network.node[18].content_store 	hits[18] 	4222
scalar tree_4_3_u10_r16_network.node[18].content_store 	misses[18] 	9500
scalar tree_4_3_u10_r16_network.node[18].content_store 	decision_yes[18] 	97
scalar tree_4_3_u10_r16_network.node[18].content_store 	decision_no[18] 	9403
scalar tree_4_3_u10_r16_network.node[18].content_store 	decision_ratio[18] 	0.010210526315789
scalar tree_4_3_u10_r16_network.node[19].core_layer 	interests[19] 	13395
scalar tree_4_3_u10_r16_network.node[19].core_layer 	data[19] 	9368
scalar tree_4_3_u10_r16_network.node[19].content_store 	p_hit[19] 	0.30063456513624
scalar tree_4_3_u10_r16_network.node[19].content_store 	hits[19] 	4027
scalar tree_4_3_u10_r16_network.node[19].content_store 	misses[19] 	9368
scalar tree_4_3_u10_r16_network.node[19].content_store 	decision_yes[19] 	106
scalar tree_4_3_u10_r16_network.node[19].content_store 	decision_no[19] 	9262
scalar tree_4_3_u10_r16_network.node[19].content_store 	decision_ratio[19] 	0.01131511528608
scalar tree_4_3_u10_r16_network.node[20].core_layer 	interests[20] 	13437
scalar tree_4_3_u10_r16_network.node[20].core_layer 	data[20] 	9376
scalar tree_4_3_u10_r16_network.node[20].content_store 	p_hit[20] 	0.30222519907717
scalar tree_4_3_u10_r16_network.node[20].content_store 	hits[20] 	4061
scalar tree_4_3_u10_r16_network.node[20].content_store 	misses[20] 	9376
scalar tree_4_3_u10_r16_network.node[20].content_store 	decision_yes[20] 	100
scalar tree_4_3_u10_r16_network.node[20].content_store 	decision_no[20] 	9276
scalar tree_4_3_u10_r16_network.node[20].content_store 	decision_ratio[20] 	0.010665529010239
scalar tree_4_3_u10_r16_network.node[21].core_layer 	interests[21] 	12967
scalar tree_4_3_u10_r16_network.node[21].core_layer 	data[21] 	9395
scalar tree_4_3_u10_r16_network.node[21].content_store 	p_hit[21] 	0.27546849695381
scalar tree_4_3_u10_r16_network.node[21].content_store 	hits[21] 	3572
scalar tree_4_3_u10_r16_network.node[21].content_store 	misses[21] 	9395
scalar tree_4_3_u10_r16_network.node[21].content_store 	decision_yes[21] 	91
scalar tree_4_3_u10_r16_network.node[21].content_store 	decision_no[21] 	9304
scalar tree_4_3_u10_r16_network.node[21].content_store 	decision_ratio[21] 	0.0096860031931879
scalar tree_4_3_u10_r16_network.node[22].core_layer 	interests[22] 	13022
scalar tree_4_3_u10_r16_network.node[22].core_layer 	data[22] 	9266
scalar tree_4_3_u10_r16_network.node[22].content_store 	p_hit[22] 	0.28835816310859
scalar tree_4_3_u10_r16_network.node[22].content_store 	hits[22] 	3755
scalar tree_4_3_u10_r16_network.node[22].content_store 	misses[22] 	9267
scalar tree_4_3_u10_r16_network.node[22].content_store 	decision_yes[22] 	87
scalar tree_4_3_u10_r16_network.node[22].content_store 	decision_no[22] 	9179
scalar tree_4_3_u10_r16_network.node[22].content_store 	decision_ratio[22] 	0.0093891646881071
scalar tree_4_3_u10_r16_network.node[23].core_layer 	interests[23] 	13444
scalar tree_4_3_u10_r16_network.node[23].core_layer 	data[23] 	9037
scalar tree_4_3_u10_r16_network.node[23].content_store 	p_hit[23] 	0.32780422493306
scalar tree_4_3_u10_r16_network.node[23].content_store 	hits[23] 	4407
scalar tree_4_3_u10_r16_network.node[23].content_store 	misses[23] 	9037
scalar tree_4_3_u10_r16_network.node[23].content_store 	decision_yes[23] 	78
scalar tree_4_3_u10_r16_network.node[23].content_store 	decision_no[23] 	8959
scalar tree_4_3_u10_r16_network.node[23].content_store 	decision_ratio[23] 	0.0086311829146841
scalar tree_4_3_u10_r16_network.node[24].core_layer 	interests[24] 	13413
scalar tree_4_3_u10_r16_network.node[24].core_layer 	data[24] 	9134
scalar tree_4_3_u10_r16_network.node[24].content_store 	p_hit[24] 	0.31901886229777
scalar tree_4_3_u10_r16_network.node[24].content_store 	hits[24] 	4279
scalar tree_4_3_u10_r16_network.node[24].content_store 	misses[24] 	9134
scalar tree_4_3_u10_r16_network.node[24].content_store 	decision_yes[24] 	91
scalar tree_4_3_u10_r16_network.node[24].content_store 	decision_no[24] 	9043
scalar tree_4_3_u10_r16_network.node[24].content_store 	decision_ratio[24] 	0.0099627764396759
scalar tree_4_3_u10_r16_network.node[25].core_layer 	interests[25] 	13585
scalar tree_4_3_u10_r16_network.node[25].core_layer 	data[25] 	9402
scalar tree_4_3_u10_r16_network.node[25].content_store 	p_hit[25] 	0.30798675009201
scalar tree_4_3_u10_r16_network.node[25].content_store 	hits[25] 	4184
scalar tree_4_3_u10_r16_network.node[25].content_store 	misses[25] 	9401
scalar tree_4_3_u10_r16_network.node[25].content_store 	decision_yes[25] 	105
scalar tree_4_3_u10_r16_network.node[25].content_store 	decision_no[25] 	9297
scalar tree_4_3_u10_r16_network.node[25].content_store 	decision_ratio[25] 	0.011167836630504
scalar tree_4_3_u10_r16_network.node[26].core_layer 	interests[26] 	12628
scalar tree_4_3_u10_r16_network.node[26].core_layer 	data[26] 	9317
scalar tree_4_3_u10_r16_network.node[26].content_store 	p_hit[26] 	0.26219512195122
scalar tree_4_3_u10_r16_network.node[26].content_store 	hits[26] 	3311
scalar tree_4_3_u10_r16_network.node[26].content_store 	misses[26] 	9317
scalar tree_4_3_u10_r16_network.node[26].content_store 	decision_yes[26] 	97
scalar tree_4_3_u10_r16_network.node[26].content_store 	decision_no[26] 	9220
scalar tree_4_3_u10_r16_network.node[26].content_store 	decision_ratio[26] 	0.010411076526779
scalar tree_4_3_u10_r16_network.node[27].core_layer 	interests[27] 	13487
scalar tree_4_3_u10_r16_network.node[27].core_layer 	data[27] 	9154
scalar tree_4_3_u10_r16_network.node[27].content_store 	p_hit[27] 	0.32127233632387
scalar tree_4_3_u10_r16_network.node[27].content_store 	hits[27] 	4333
scalar tree_4_3_u10_r16_network.node[27].content_store 	misses[27] 	9154
scalar tree_4_3_u10_r16_network.node[27].content_store 	decision_yes[27] 	97
scalar tree_4_3_u10_r16_network.node[27].content_store 	decision_no[27] 	9057
scalar tree_4_3_u10_r16_network.node[27].content_store 	decision_ratio[27] 	0.010596460563688
scalar tree_4_3_u10_r16_network.node[28].core_layer 	interests[28] 	13767
scalar tree_4_3_u10_r16_network.node[28].core_layer 	data[28] 	9377
scalar tree_4_3_u10_r16_network.node[28].content_store 	p_hit[28] 	0.3188784775187
scalar tree_4_3_u10_r16_network.node[28].content_store 	hits[28] 	4390
scalar tree_4_3_u10_r16_network.node[28].content_store 	misses[28] 	9377
scalar tree_4_3_u10_r16_network.node[28].content_store 	decision_yes[28] 	104
scalar tree_4_3_u10_r16_network.node[28].content_store 	decision_no[28] 	9273
scalar tree_4_3_u10_r16_network.node[28].content_store 	decision_ratio[28] 	0.011090967260318
scalar tree_4_3_u10_r16_network.node[29].core_layer 	interests[29] 	13442
scalar tree_4_3_u10_r16_network.node[29].core_layer 	data[29] 	9339
scalar tree_4_3_u10_r16_network.node[29].content_store 	p_hit[29] 	0.30523731587561
scalar tree_4_3_u10_r16_network.node[29].content_store 	hits[29] 	4103
scalar tree_4_3_u10_r16_network.node[29].content_store 	misses[29] 	9339
scalar tree_4_3_u10_r16_network.node[29].content_store 	decision_yes[29] 	88
scalar tree_4_3_u10_r16_network.node[29].content_store 	decision_no[29] 	9251
scalar tree_4_3_u10_r16_network.node[29].content_store 	decision_ratio[29] 	0.0094228504122497
scalar tree_4_3_u10_r16_network.node[30].core_layer 	interests[30] 	12899
scalar tree_4_3_u10_r16_network.node[30].core_layer 	data[30] 	9436
scalar tree_4_3_u10_r16_network.node[30].content_store 	p_hit[30] 	0.26847042406388
scalar tree_4_3_u10_r16_network.node[30].content_store 	hits[30] 	3463
scalar tree_4_3_u10_r16_network.node[30].content_store 	misses[30] 	9436
scalar tree_4_3_u10_r16_network.node[30].content_store 	decision_yes[30] 	93
scalar tree_4_3_u10_r16_network.node[30].content_store 	decision_no[30] 	9343
scalar tree_4_3_u10_r16_network.node[30].content_store 	decision_ratio[30] 	0.0098558711318355
scalar tree_4_3_u10_r16_network.node[31].core_layer 	interests[31] 	12946
scalar tree_4_3_u10_r16_network.node[31].core_layer 	data[31] 	9291
scalar tree_4_3_u10_r16_network.node[31].content_store 	p_hit[31] 	0.28232658736289
scalar tree_4_3_u10_r16_network.node[31].content_store 	hits[31] 	3655
scalar tree_4_3_u10_r16_network.node[31].content_store 	misses[31] 	9291
scalar tree_4_3_u10_r16_network.node[31].content_store 	decision_yes[31] 	112
scalar tree_4_3_u10_r16_network.node[31].content_store 	decision_no[31] 	9179
scalar tree_4_3_u10_r16_network.node[31].content_store 	decision_ratio[31] 	0.012054676568722
scalar tree_4_3_u10_r16_network.node[32].core_layer 	interests[32] 	13517
scalar tree_4_3_u10_r16_network.node[32].core_layer 	data[32] 	9368
scalar tree_4_3_u10_r16_network.node[32].content_store 	p_hit[32] 	0.30694680772361
scalar tree_4_3_u10_r16_network.node[32].content_store 	hits[32] 	4149
scalar tree_4_3_u10_r16_network.node[32].content_store 	misses[32] 	9368
scalar tree_4_3_u10_r16_network.node[32].content_store 	decision_yes[32] 	93
scalar tree_4_3_u10_r16_network.node[32].content_store 	decision_no[32] 	9275
scalar tree_4_3_u10_r16_network.node[32].content_store 	decision_ratio[32] 	0.0099274124679761
scalar tree_4_3_u10_r16_network.node[33].core_layer 	interests[33] 	13345
scalar tree_4_3_u10_r16_network.node[33].core_layer 	data[33] 	9195
scalar tree_4_3_u10_r16_network.node[33].content_store 	p_hit[33] 	0.31097789434245
scalar tree_4_3_u10_r16_network.node[33].content_store 	hits[33] 	4150
scalar tree_4_3_u10_r16_network.node[33].content_store 	misses[33] 	9195
scalar tree_4_3_u10_r16_network.node[33].content_store 	decision_yes[33] 	92
scalar tree_4_3_u10_r16_network.node[33].content_store 	decision_no[33] 	9103
scalar tree_4_3_u10_r16_network.node[33].content_store 	decision_ratio[33] 	0.010005437737901
scalar tree_4_3_u10_r16_network.node[34].core_layer 	interests[34] 	13827
scalar tree_4_3_u10_r16_network.node[34].core_layer 	data[34] 	9277
scalar tree_4_3_u10_r16_network.node[34].content_store 	p_hit[34] 	0.32906631951978
scalar tree_4_3_u10_r16_network.node[34].content_store 	hits[34] 	4550
scalar tree_4_3_u10_r16_network.node[34].content_store 	misses[34] 	9277
scalar tree_4_3_u10_r16_network.node[34].content_store 	decision_yes[34] 	106
scalar tree_4_3_u10_r16_network.node[34].content_store 	decision_no[34] 	9171
scalar tree_4_3_u10_r16_network.node[34].content_store 	decision_ratio[34] 	0.011426107577881
scalar tree_4_3_u10_r16_network.node[35].core_layer 	interests[35] 	13104
scalar tree_4_3_u10_r16_network.node[35].core_layer 	data[35] 	9452
scalar tree_4_3_u10_r16_network.node[35].content_store 	p_hit[35] 	0.27869352869353
scalar tree_4_3_u10_r16_network.node[35].content_store 	hits[35] 	3652
scalar tree_4_3_u10_r16_network.node[35].content_store 	misses[35] 	9452
scalar tree_4_3_u10_r16_network.node[35].content_store 	decision_yes[35] 	98
scalar tree_4_3_u10_r16_network.node[35].content_store 	decision_no[35] 	9354
scalar tree_4_3_u10_r16_network.node[35].content_store 	decision_ratio[35] 	0.010368176047397
scalar tree_4_3_u10_r16_network.node[36].core_layer 	interests[36] 	13588
scalar tree_4_3_u10_r16_network.node[36].core_layer 	data[36] 	9251
scalar tree_4_3_u10_r16_network.node[36].content_store 	p_hit[36] 	0.31910509272888
scalar tree_4_3_u10_r16_network.node[36].content_store 	hits[36] 	4336
scalar tree_4_3_u10_r16_network.node[36].content_store 	misses[36] 	9252
scalar tree_4_3_u10_r16_network.node[36].content_store 	decision_yes[36] 	101
scalar tree_4_3_u10_r16_network.node[36].content_store 	decision_no[36] 	9150
scalar tree_4_3_u10_r16_network.node[36].content_store 	decision_ratio[36] 	0.010917738622852
scalar tree_4_3_u10_r16_network.node[37].core_layer 	interests[37] 	13536
scalar tree_4_3_u10_r16_network.node[37].core_layer 	data[37] 	9425
scalar tree_4_3_u10_r16_network.node[37].content_store 	p_hit[37] 	0.30370862884161
scalar tree_4_3_u10_r16_network.node[37].content_store 	hits[37] 	4111
scalar tree_4_3_u10_r16_network.node[37].content_store 	misses[37] 	9425
scalar tree_4_3_u10_r16_network.node[37].content_store 	decision_yes[37] 	97
scalar tree_4_3_u10_r16_network.node[37].content_store 	decision_no[37] 	9328
scalar tree_4_3_u10_r16_network.node[37].content_store 	decision_ratio[37] 	0.010291777188329
scalar tree_4_3_u10_r16_network.node[38].core_layer 	interests[38] 	13332
scalar tree_4_3_u10_r16_network.node[38].core_layer 	data[38] 	9240
scalar tree_4_3_u10_r16_network.node[38].content_store 	p_hit[38] 	0.30693069306931
scalar tree_4_3_u10_r16_network.node[38].content_store 	hits[38] 	4092
scalar tree_4_3_u10_r16_network.node[38].content_store 	misses[38] 	9240
scalar tree_4_3_u10_r16_network.node[38].content_store 	decision_yes[38] 	73
scalar tree_4_3_u10_r16_network.node[38].content_store 	decision_no[38] 	9167
scalar tree_4_3_u10_r16_network.node[38].content_store 	decision_ratio[38] 	0.0079004329004329
scalar tree_4_3_u10_r16_network.node[39].core_layer 	interests[39] 	12723
scalar tree_4_3_u10_r16_network.node[39].core_layer 	data[39] 	9248
scalar tree_4_3_u10_r16_network.node[39].content_store 	p_hit[39] 	0.27312740705808
scalar tree_4_3_u10_r16_network.node[39].content_store 	hits[39] 	3475
scalar tree_4_3_u10_r16_network.node[39].content_store 	misses[39] 	9248
scalar tree_4_3_u10_r16_network.node[39].content_store 	decision_yes[39] 	105
scalar tree_4_3_u10_r16_network.node[39].content_store 	decision_no[39] 	9143
scalar tree_4_3_u10_r16_network.node[39].content_store 	decision_ratio[39] 	0.011353806228374
scalar tree_4_3_u10_r16_network.client[13] 	hdistance[13] 	2.7741058183616
scalar tree_4_3_u10_r16_network.client[13] 	downloads[13] 	12134
scalar tree_4_3_u10_r16_network.client[13] 	avg_time[13] 	0.0044344786
scalar tree_4_3_u10_r16_network.client[14] 	hdistance[14] 	2.6022613065327
scalar tree_4_3_u10_r16_network.client[14] 	downloads[14] 	11940
scalar tree_4_3_u10_r16_network.client[14] 	avg_time[14] 	0.004184251617
scalar tree_4_3_u10_r16_network.client[15] 	hdistance[15] 	2.6350462230366
scalar tree_4_3_u10_r16_network.client[15] 	downloads[15] 	12007
scalar tree_4_3_u10_r16_network.client[15] 	avg_time[15] 	0.004225698667
scalar tree_4_3_u10_r16_network.client[16] 	hdistance[16] 	2.6729549248748
scalar tree_4_3_u10_r16_network.client[16] 	downloads[16] 	11980
scalar tree_4_3_u10_r16_network.client[16] 	avg_time[16] 	0.004292150612
scalar tree_4_3_u10_r16_network.client[17] 	hdistance[17] 	2.7358867610325
scalar tree_4_3_u10_r16_network.client[17] 	downloads[17] 	12010
scalar tree_4_3_u10_r16_network.client[17] 	avg_time[17] 	0.004419641814
scalar tree_4_3_u10_r16_network.client[18] 	hdistance[18] 	2.6220719234576
scalar tree_4_3_u10_r16_network.client[18] 	downloads[18] 	12124
scalar tree_4_3_u10_r16_network.client[18] 	avg_time[18] 	0.004221870922
scalar tree_4_3_u10_r16_network.client[19] 	hdistance[19] 	2.6529421570262
scalar tree_4_3_u10_r16_network.client[19] 	downloads[19] 	11998
scalar tree_4_3_u10_r16_network.client[19] 	avg_time[19] 	0.004249038521
scalar tree_4_3_u10_r16_network.client[20] 	hdistance[20] 	2.6251884106515
scalar tree_4_3_u10_r16_network.client[20] 	downloads[20] 	11942
scalar tree_4_3_u10_r16_network.client[20] 	avg_time[20] 	0.004232118949
scalar tree_4_3_u10_r16_network.client[21] 	hdistance[21] 	2.7281675921252
scalar tree_4_3_u10_r16_network.client[21] 	downloads[21] 	11886
scalar tree_4_3_u10_r16_network.client[21] 	avg_time[21] 	0.004416713711
scalar tree_4_3_u10_r16_network.client[22] 	hdistance[22] 	2.7258968141149
scalar tree_4_3_u10_r16_network.client[22] 	downloads[22] 	11959
scalar tree_4_3_u10_r16_network.client[22] 	avg_time[22] 	0.004409268028
scalar tree_4_3_u10_r16_network.client[23] 	hdistance[23] 	2.6444255319149
scalar tree_4_3_u10_r16_network.client[23] 	downloads[23] 	11750
scalar tree_4_3_u10_r16_network.client[23] 	avg_time[23] 	0.004241188529
scalar tree_4_3_u10_r16_network.client[24] 	hdistance[24] 	2.6058080808081
scalar tree_4_3_u10_r16_network.client[24] 	downloads[24] 	11880
scalar tree_4_3_u10_r16_network.client[24] 	avg_time[24] 	0.004190123959
scalar tree_4_3_u10_r16_network.client[25] 	hdistance[25] 	2.6378302740966
scalar tree_4_3_u10_r16_network.client[25] 	downloads[25] 	12149
scalar tree_4_3_u10_r16_network.client[25] 	avg_time[25] 	0.004237876615
scalar tree_4_3_u10_r16_network.client[26] 	hdistance[26] 	2.7520134228188
scalar tree_4_3_u10_r16_network.client[26] 	downloads[26] 	11920
scalar tree_4_3_u10_r16_network.client[26] 	avg_time[26] 	0.004401209298
scalar tree_4_3_u10_r16_network.client[27] 	hdistance[27] 	2.5833263720658
scalar tree_4_3_u10_r16_network.client[27] 	downloads[27] 	11971
scalar tree_4_3_u10_r16_network.client[27] 	avg_time[27] 	0.004137161798
scalar tree_4_3_u10_r16_network.client[28] 	hdistance[28] 	2.6330030805095
scalar tree_4_3_u10_r16_network.client[28] 	downloads[28] 	12011
scalar tree_4_3_u10_r16_network.client[28] 	avg_time[28] 	0.004227288634
scalar tree_4_3_u10_r16_network.client[29] 	hdistance[29] 	2.6300734115265
scalar tree_4_3_u10_r16_network.client[29] 	downloads[29] 	11851
scalar tree_4_3_u10_r16_network.client[29] 	avg_time[29] 	0.00421685638
scalar tree_4_3_u10_r16_network.client[30] 	hdistance[30] 	2.7205141129032
scalar tree_4_3_u10_r16_network.client[30] 	downloads[30] 	11904
scalar tree_4_3_u10_r16_network.client[30] 	avg_time[30] 	0.004393478183
scalar tree_4_3_u10_r16_network.client[31] 	hdistance[31] 	2.7151973131822
scalar tree_4_3_u10_r16_network.client[31] 	downloads[31] 	11910
scalar tree_4_3_u10_r16_network.client[31] 	avg_time[31] 	0.004405874425
scalar tree_4_3_u10_r16_network.client[32] 	hdistance[32] 	2.6425723254433
scalar tree_4_3_u10_r16_network.client[32] 	downloads[32] 	11787
scalar tree_4_3_u10_r16_network.client[32] 	avg_time[32] 	0.004258756701
scalar tree_4_3_u10_r16_network.client[33] 	hdistance[33] 	2.6352752718995
scalar tree_4_3_u10_r16_network.client[33] 	downloads[33] 	11861
scalar tree_4_3_u10_r16_network.client[33] 	avg_time[33] 	0.004233872746
scalar tree_4_3_u10_r16_network.client[34] 	hdistance[34] 	2.6050323743955
scalar tree_4_3_u10_r16_network.client[34] 	downloads[34] 	12201
scalar tree_4_3_u10_r16_network.client[34] 	avg_time[34] 	0.004178179096
scalar tree_4_3_u10_r16_network.client[35] 	hdistance[35] 	2.7203936486933
scalar tree_4_3_u10_r16_network.client[35] 	downloads[35] 	12092
scalar tree_4_3_u10_r16_network.client[35] 	avg_time[35] 	0.00439017231
scalar tree_4_3_u10_r16_network.client[36] 	hdistance[36] 	2.6356530509329
scalar tree_4_3_u10_r16_network.client[36] 	downloads[36] 	11898
scalar tree_4_3_u10_r16_network.client[36] 	avg_time[36] 	0.004214823055
scalar tree_4_3_u10_r16_network.client[37] 	hdistance[37] 	2.6733986817644
scalar tree_4_3_u10_r16_network.client[37] 	downloads[37] 	11834
scalar tree_4_3_u10_r16_network.client[37] 	avg_time[37] 	0.004295504094
scalar tree_4_3_u10_r16_network.client[38] 	hdistance[38] 	2.6436994609164
scalar tree_4_3_u10_r16_network.client[38] 	downloads[38] 	11872
scalar tree_4_3_u10_r16_network.client[38] 	avg_time[38] 	0.00423768252
scalar tree_4_3_u10_r16_network.client[39] 	hdistance[39] 	2.7179274267209
scalar tree_4_3_u10_r16_network.client[39] 	downloads[39] 	12043
scalar tree_4_3_u10_r16_network.client[39] 	avg_time[39] 	0.004333302635
