version 2
run General-209-20160819-06:22:47-14109
attr a 0.9
attr cd fix0.01
attr configname General
attr cr lru
attr datetime 20160819-06:22:47
attr experiment General
attr fsize 1
attr inifile hw5115/scenario_A/NRR-FIX0.01.ini
attr iterationvars "$name=tree_4_3, $un=10, $rep=10, $cd=fix0.01, $cr=lru, $fsize=1, $a=0.9, $sl=nrr, $ttl=1000, $variance=0.05"
attr iterationvars2 "$name=tree_4_3, $un=10, $rep=10, $cd=fix0.01, $cr=lru, $fsize=1, $a=0.9, $sl=nrr, $ttl=1000, $variance=0.05, $repetition=0"
attr measurement "$name=tree_4_3, $un=10, $rep=10, $cd=fix0.01, $cr=lru, $fsize=1, $a=0.9, $sl=nrr, $ttl=1000, $variance=0.05"
attr name tree_4_3
attr network networks.${name}_u${un}_r${rep}_network
attr processid 14109
attr rep 10
attr repetition 0
attr replication #0
attr resultdir results
attr runnumber 209
attr seedset 10
attr sl nrr
attr ttl 1000
attr un 10
attr variance 0.05

scalar . 	a 	0.9
scalar . 	fsize 	1
scalar . 	rep 	10
scalar . 	ttl 	1000
scalar . 	un 	10
scalar . 	variance 	0.05
scalar tree_4_3_u10_r10_network.content_distribution 	repo-0 	0
scalar tree_4_3_u10_r10_network.content_distribution 	client-0 	13
scalar tree_4_3_u10_r10_network.content_distribution 	client-1 	14
scalar tree_4_3_u10_r10_network.content_distribution 	client-2 	15
scalar tree_4_3_u10_r10_network.content_distribution 	client-3 	16
scalar tree_4_3_u10_r10_network.content_distribution 	client-4 	17
scalar tree_4_3_u10_r10_network.content_distribution 	client-5 	18
scalar tree_4_3_u10_r10_network.content_distribution 	client-6 	19
scalar tree_4_3_u10_r10_network.content_distribution 	client-7 	20
scalar tree_4_3_u10_r10_network.content_distribution 	client-8 	21
scalar tree_4_3_u10_r10_network.content_distribution 	client-9 	22
scalar tree_4_3_u10_r10_network.content_distribution 	client-10 	23
scalar tree_4_3_u10_r10_network.content_distribution 	client-11 	24
scalar tree_4_3_u10_r10_network.content_distribution 	client-12 	25
scalar tree_4_3_u10_r10_network.content_distribution 	client-13 	26
scalar tree_4_3_u10_r10_network.content_distribution 	client-14 	27
scalar tree_4_3_u10_r10_network.content_distribution 	client-15 	28
scalar tree_4_3_u10_r10_network.content_distribution 	client-16 	29
scalar tree_4_3_u10_r10_network.content_distribution 	client-17 	30
scalar tree_4_3_u10_r10_network.content_distribution 	client-18 	31
scalar tree_4_3_u10_r10_network.content_distribution 	client-19 	32
scalar tree_4_3_u10_r10_network.content_distribution 	client-20 	33
scalar tree_4_3_u10_r10_network.content_distribution 	client-21 	34
scalar tree_4_3_u10_r10_network.content_distribution 	client-22 	35
scalar tree_4_3_u10_r10_network.content_distribution 	client-23 	36
scalar tree_4_3_u10_r10_network.content_distribution 	client-24 	37
scalar tree_4_3_u10_r10_network.content_distribution 	client-25 	38
scalar tree_4_3_u10_r10_network.content_distribution 	client-26 	39
scalar tree_4_3_u10_r10_network.content_distribution 	repo-0_card 	100000
scalar tree_4_3_u10_r10_network.content_distribution 	repo-0_price 	0
scalar tree_4_3_u10_r10_network.statistics 	stabilization_time 	1633.3
scalar tree_4_3_u10_r10_network.statistics 	p_hit 	0.24730537520506
scalar tree_4_3_u10_r10_network.statistics 	interests 	25488.375
scalar tree_4_3_u10_r10_network.statistics 	data 	17373.15
scalar tree_4_3_u10_r10_network.statistics 	hdistance 	2.6635583708986
scalar tree_4_3_u10_r10_network.statistics 	avg_time 	0.004281903924
scalar tree_4_3_u10_r10_network.statistics 	downloads 	324607
scalar tree_4_3_u10_r10_network.statistics 	total_cost 	0
scalar tree_4_3_u10_r10_network.statistics 	total_replicas 	100000
scalar tree_4_3_u10_r10_network.statistics 	inner_hit 	0.47744811418115
scalar tree_4_3_u10_r10_network.node[0].core_layer 	interests[0] 	170713
scalar tree_4_3_u10_r10_network.node[0].core_layer 	repo_load[0] 	169624
scalar tree_4_3_u10_r10_network.node[0].core_layer 	data[0] 	0
scalar tree_4_3_u10_r10_network.node[0].core_layer 	repo_int[0] 	169624
scalar tree_4_3_u10_r10_network.node[0].content_store 	p_hit[0] 	0.0063791275415463
scalar tree_4_3_u10_r10_network.node[0].content_store 	hits[0] 	1089
scalar tree_4_3_u10_r10_network.node[0].content_store 	misses[0] 	169624
scalar tree_4_3_u10_r10_network.node[0].content_store 	decision_yes[0] 	1640
scalar tree_4_3_u10_r10_network.node[0].content_store 	decision_no[0] 	167984
scalar tree_4_3_u10_r10_network.node[0].content_store 	decision_ratio[0] 	0.009668443144838
scalar tree_4_3_u10_r10_network.node[1].core_layer 	interests[1] 	133630
scalar tree_4_3_u10_r10_network.node[1].core_layer 	data[1] 	132087
scalar tree_4_3_u10_r10_network.node[1].content_store 	p_hit[1] 	0.011516874953229
scalar tree_4_3_u10_r10_network.node[1].content_store 	hits[1] 	1539
scalar tree_4_3_u10_r10_network.node[1].content_store 	misses[1] 	132091
scalar tree_4_3_u10_r10_network.node[1].content_store 	decision_yes[1] 	1329
scalar tree_4_3_u10_r10_network.node[1].content_store 	decision_no[1] 	130758
scalar tree_4_3_u10_r10_network.node[1].content_store 	decision_ratio[1] 	0.01006155034182
scalar tree_4_3_u10_r10_network.node[2].core_layer 	interests[2] 	55588
scalar tree_4_3_u10_r10_network.node[2].core_layer 	data[2] 	52821
scalar tree_4_3_u10_r10_network.node[2].content_store 	p_hit[2] 	0.049758940778585
scalar tree_4_3_u10_r10_network.node[2].content_store 	hits[2] 	2766
scalar tree_4_3_u10_r10_network.node[2].content_store 	misses[2] 	52822
scalar tree_4_3_u10_r10_network.node[2].content_store 	decision_yes[2] 	556
scalar tree_4_3_u10_r10_network.node[2].content_store 	decision_no[2] 	52265
scalar tree_4_3_u10_r10_network.node[2].content_store 	decision_ratio[2] 	0.010526116506692
scalar tree_4_3_u10_r10_network.node[3].core_layer 	interests[3] 	17095
scalar tree_4_3_u10_r10_network.node[3].core_layer 	data[3] 	12693
scalar tree_4_3_u10_r10_network.node[3].content_store 	p_hit[3] 	0.25750219362387
scalar tree_4_3_u10_r10_network.node[3].content_store 	hits[3] 	4402
scalar tree_4_3_u10_r10_network.node[3].content_store 	misses[3] 	12693
scalar tree_4_3_u10_r10_network.node[3].content_store 	decision_yes[3] 	123
scalar tree_4_3_u10_r10_network.node[3].content_store 	decision_no[3] 	12570
scalar tree_4_3_u10_r10_network.node[3].content_store 	decision_ratio[3] 	0.0096903805246987
scalar tree_4_3_u10_r10_network.node[4].core_layer 	interests[4] 	43034
scalar tree_4_3_u10_r10_network.node[4].core_layer 	data[4] 	39963
scalar tree_4_3_u10_r10_network.node[4].content_store 	p_hit[4] 	0.07136217874239
scalar tree_4_3_u10_r10_network.node[4].content_store 	hits[4] 	3071
scalar tree_4_3_u10_r10_network.node[4].content_store 	misses[4] 	39963
scalar tree_4_3_u10_r10_network.node[4].content_store 	decision_yes[4] 	385
scalar tree_4_3_u10_r10_network.node[4].content_store 	decision_no[4] 	39578
scalar tree_4_3_u10_r10_network.node[4].content_store 	decision_ratio[4] 	0.0096339113680154
scalar tree_4_3_u10_r10_network.node[5].core_layer 	interests[5] 	32443
scalar tree_4_3_u10_r10_network.node[5].core_layer 	data[5] 	28193
scalar tree_4_3_u10_r10_network.node[5].content_store 	p_hit[5] 	0.13090651296119
scalar tree_4_3_u10_r10_network.node[5].content_store 	hits[5] 	4247
scalar tree_4_3_u10_r10_network.node[5].content_store 	misses[5] 	28196
scalar tree_4_3_u10_r10_network.node[5].content_store 	decision_yes[5] 	278
scalar tree_4_3_u10_r10_network.node[5].content_store 	decision_no[5] 	27915
scalar tree_4_3_u10_r10_network.node[5].content_store 	decision_ratio[5] 	0.0098606036959529
scalar tree_4_3_u10_r10_network.node[6].core_layer 	interests[6] 	17796
scalar tree_4_3_u10_r10_network.node[6].core_layer 	data[6] 	13113
scalar tree_4_3_u10_r10_network.node[6].content_store 	p_hit[6] 	0.2630928298494
scalar tree_4_3_u10_r10_network.node[6].content_store 	hits[6] 	4682
scalar tree_4_3_u10_r10_network.node[6].content_store 	misses[6] 	13114
scalar tree_4_3_u10_r10_network.node[6].content_store 	decision_yes[6] 	130
scalar tree_4_3_u10_r10_network.node[6].content_store 	decision_no[6] 	12983
scalar tree_4_3_u10_r10_network.node[6].content_store 	decision_ratio[6] 	0.0099138259742241
scalar tree_4_3_u10_r10_network.node[7].core_layer 	interests[7] 	47154
scalar tree_4_3_u10_r10_network.node[7].core_layer 	data[7] 	43586
scalar tree_4_3_u10_r10_network.node[7].content_store 	p_hit[7] 	0.075666963566187
scalar tree_4_3_u10_r10_network.node[7].content_store 	hits[7] 	3568
scalar tree_4_3_u10_r10_network.node[7].content_store 	misses[7] 	43586
scalar tree_4_3_u10_r10_network.node[7].content_store 	decision_yes[7] 	458
scalar tree_4_3_u10_r10_network.node[7].content_store 	decision_no[7] 	43128
scalar tree_4_3_u10_r10_network.node[7].content_store 	decision_ratio[7] 	0.010507961271968
scalar tree_4_3_u10_r10_network.node[8].core_layer 	interests[8] 	28630
scalar tree_4_3_u10_r10_network.node[8].core_layer 	data[8] 	25190
scalar tree_4_3_u10_r10_network.node[8].content_store 	p_hit[8] 	0.12015368494586
scalar tree_4_3_u10_r10_network.node[8].content_store 	hits[8] 	3440
scalar tree_4_3_u10_r10_network.node[8].content_store 	misses[8] 	25190
scalar tree_4_3_u10_r10_network.node[8].content_store 	decision_yes[8] 	235
scalar tree_4_3_u10_r10_network.node[8].content_store 	decision_no[8] 	24955
scalar tree_4_3_u10_r10_network.node[8].content_store 	decision_ratio[8] 	0.0093290988487495
scalar tree_4_3_u10_r10_network.node[9].core_layer 	interests[9] 	18020
scalar tree_4_3_u10_r10_network.node[9].core_layer 	data[9] 	13383
scalar tree_4_3_u10_r10_network.node[9].content_store 	p_hit[9] 	0.25726970033296
scalar tree_4_3_u10_r10_network.node[9].content_store 	hits[9] 	4636
scalar tree_4_3_u10_r10_network.node[9].content_store 	misses[9] 	13384
scalar tree_4_3_u10_r10_network.node[9].content_store 	decision_yes[9] 	163
scalar tree_4_3_u10_r10_network.node[9].content_store 	decision_no[9] 	13220
scalar tree_4_3_u10_r10_network.node[9].content_store 	decision_ratio[9] 	0.012179630874991
scalar tree_4_3_u10_r10_network.node[10].core_layer 	interests[10] 	46702
scalar tree_4_3_u10_r10_network.node[10].core_layer 	data[10] 	43043
scalar tree_4_3_u10_r10_network.node[10].content_store 	p_hit[10] 	0.078326410003854
scalar tree_4_3_u10_r10_network.node[10].content_store 	hits[10] 	3658
scalar tree_4_3_u10_r10_network.node[10].content_store 	misses[10] 	43044
scalar tree_4_3_u10_r10_network.node[10].content_store 	decision_yes[10] 	425
scalar tree_4_3_u10_r10_network.node[10].content_store 	decision_no[10] 	42618
scalar tree_4_3_u10_r10_network.node[10].content_store 	decision_ratio[10] 	0.0098738470831494
scalar tree_4_3_u10_r10_network.node[11].core_layer 	interests[11] 	31910
scalar tree_4_3_u10_r10_network.node[11].core_layer 	data[11] 	27711
scalar tree_4_3_u10_r10_network.node[11].content_store 	p_hit[11] 	0.13158884362269
scalar tree_4_3_u10_r10_network.node[11].content_store 	hits[11] 	4199
scalar tree_4_3_u10_r10_network.node[11].content_store 	misses[11] 	27711
scalar tree_4_3_u10_r10_network.node[11].content_store 	decision_yes[11] 	269
scalar tree_4_3_u10_r10_network.node[11].content_store 	decision_no[11] 	27442
scalar tree_4_3_u10_r10_network.node[11].content_store 	decision_ratio[11] 	0.0097073364367941
scalar tree_4_3_u10_r10_network.node[12].core_layer 	interests[12] 	14019
scalar tree_4_3_u10_r10_network.node[12].core_layer 	data[12] 	10323
scalar tree_4_3_u10_r10_network.node[12].content_store 	p_hit[12] 	0.2636421998716
scalar tree_4_3_u10_r10_network.node[12].content_store 	hits[12] 	3696
scalar tree_4_3_u10_r10_network.node[12].content_store 	misses[12] 	10323
scalar tree_4_3_u10_r10_network.node[12].content_store 	decision_yes[12] 	90
scalar tree_4_3_u10_r10_network.node[12].content_store 	decision_no[12] 	10233
scalar tree_4_3_u10_r10_network.node[12].content_store 	decision_ratio[12] 	0.00871839581517
scalar tree_4_3_u10_r10_network.node[13].core_layer 	interests[13] 	12817
scalar tree_4_3_u10_r10_network.node[13].core_layer 	data[13] 	9348
scalar tree_4_3_u10_r10_network.node[13].content_store 	p_hit[13] 	0.27065615978778
scalar tree_4_3_u10_r10_network.node[13].content_store 	hits[13] 	3469
scalar tree_4_3_u10_r10_network.node[13].content_store 	misses[13] 	9348
scalar tree_4_3_u10_r10_network.node[13].content_store 	decision_yes[13] 	110
scalar tree_4_3_u10_r10_network.node[13].content_store 	decision_no[13] 	9238
scalar tree_4_3_u10_r10_network.node[13].content_store 	decision_ratio[13] 	0.011767222935387
scalar tree_4_3_u10_r10_network.node[14].core_layer 	interests[14] 	13601
scalar tree_4_3_u10_r10_network.node[14].core_layer 	data[14] 	9432
scalar tree_4_3_u10_r10_network.node[14].content_store 	p_hit[14] 	0.30652157929564
scalar tree_4_3_u10_r10_network.node[14].content_store 	hits[14] 	4169
scalar tree_4_3_u10_r10_network.node[14].content_store 	misses[14] 	9432
scalar tree_4_3_u10_r10_network.node[14].content_store 	decision_yes[14] 	83
scalar tree_4_3_u10_r10_network.node[14].content_store 	decision_no[14] 	9349
scalar tree_4_3_u10_r10_network.node[14].content_store 	decision_ratio[14] 	0.0087998303647159
scalar tree_4_3_u10_r10_network.node[15].core_layer 	interests[15] 	13492
scalar tree_4_3_u10_r10_network.node[15].core_layer 	data[15] 	9278
scalar tree_4_3_u10_r10_network.node[15].content_store 	p_hit[15] 	0.31233323450934
scalar tree_4_3_u10_r10_network.node[15].content_store 	hits[15] 	4214
scalar tree_4_3_u10_r10_network.node[15].content_store 	misses[15] 	9278
scalar tree_4_3_u10_r10_network.node[15].content_store 	decision_yes[15] 	91
scalar tree_4_3_u10_r10_network.node[15].content_store 	decision_no[15] 	9187
scalar tree_4_3_u10_r10_network.node[15].content_store 	decision_ratio[15] 	0.009808148307825
scalar tree_4_3_u10_r10_network.node[16].core_layer 	interests[16] 	13541
scalar tree_4_3_u10_r10_network.node[16].core_layer 	data[16] 	9361
scalar tree_4_3_u10_r10_network.node[16].content_store 	p_hit[16] 	0.30869212022746
scalar tree_4_3_u10_r10_network.node[16].content_store 	hits[16] 	4180
scalar tree_4_3_u10_r10_network.node[16].content_store 	misses[16] 	9361
scalar tree_4_3_u10_r10_network.node[16].content_store 	decision_yes[16] 	100
scalar tree_4_3_u10_r10_network.node[16].content_store 	decision_no[16] 	9261
scalar tree_4_3_u10_r10_network.node[16].content_store 	decision_ratio[16] 	0.010682619378272
scalar tree_4_3_u10_r10_network.node[17].core_layer 	interests[17] 	13007
scalar tree_4_3_u10_r10_network.node[17].core_layer 	data[17] 	9199
scalar tree_4_3_u10_r10_network.node[17].content_store 	p_hit[17] 	0.29276543399708
scalar tree_4_3_u10_r10_network.node[17].content_store 	hits[17] 	3808
scalar tree_4_3_u10_r10_network.node[17].content_store 	misses[17] 	9199
scalar tree_4_3_u10_r10_network.node[17].content_store 	decision_yes[17] 	84
scalar tree_4_3_u10_r10_network.node[17].content_store 	decision_no[17] 	9115
scalar tree_4_3_u10_r10_network.node[17].content_store 	decision_ratio[17] 	0.0091314273290575
scalar tree_4_3_u10_r10_network.node[18].core_layer 	interests[18] 	13891
scalar tree_4_3_u10_r10_network.node[18].core_layer 	data[18] 	9514
scalar tree_4_3_u10_r10_network.node[18].content_store 	p_hit[18] 	0.31509610539198
scalar tree_4_3_u10_r10_network.node[18].content_store 	hits[18] 	4377
scalar tree_4_3_u10_r10_network.node[18].content_store 	misses[18] 	9514
scalar tree_4_3_u10_r10_network.node[18].content_store 	decision_yes[18] 	92
scalar tree_4_3_u10_r10_network.node[18].content_store 	decision_no[18] 	9422
scalar tree_4_3_u10_r10_network.node[18].content_store 	decision_ratio[18] 	0.0096699600588606
scalar tree_4_3_u10_r10_network.node[19].core_layer 	interests[19] 	13675
scalar tree_4_3_u10_r10_network.node[19].core_layer 	data[19] 	9429
scalar tree_4_3_u10_r10_network.node[19].content_store 	p_hit[19] 	0.31049360146252
scalar tree_4_3_u10_r10_network.node[19].content_store 	hits[19] 	4246
scalar tree_4_3_u10_r10_network.node[19].content_store 	misses[19] 	9429
scalar tree_4_3_u10_r10_network.node[19].content_store 	decision_yes[19] 	96
scalar tree_4_3_u10_r10_network.node[19].content_store 	decision_no[19] 	9333
scalar tree_4_3_u10_r10_network.node[19].content_store 	decision_ratio[19] 	0.010181355392937
scalar tree_4_3_u10_r10_network.node[20].core_layer 	interests[20] 	13802
scalar tree_4_3_u10_r10_network.node[20].core_layer 	data[20] 	9480
scalar tree_4_3_u10_r10_network.node[20].content_store 	p_hit[20] 	0.31314302275033
scalar tree_4_3_u10_r10_network.node[20].content_store 	hits[20] 	4322
scalar tree_4_3_u10_r10_network.node[20].content_store 	misses[20] 	9480
scalar tree_4_3_u10_r10_network.node[20].content_store 	decision_yes[20] 	96
scalar tree_4_3_u10_r10_network.node[20].content_store 	decision_no[20] 	9384
scalar tree_4_3_u10_r10_network.node[20].content_store 	decision_ratio[20] 	0.010126582278481
scalar tree_4_3_u10_r10_network.node[21].core_layer 	interests[21] 	13077
scalar tree_4_3_u10_r10_network.node[21].core_layer 	data[21] 	9312
scalar tree_4_3_u10_r10_network.node[21].content_store 	p_hit[21] 	0.28791007111723
scalar tree_4_3_u10_r10_network.node[21].content_store 	hits[21] 	3765
scalar tree_4_3_u10_r10_network.node[21].content_store 	misses[21] 	9312
scalar tree_4_3_u10_r10_network.node[21].content_store 	decision_yes[21] 	83
scalar tree_4_3_u10_r10_network.node[21].content_store 	decision_no[21] 	9229
scalar tree_4_3_u10_r10_network.node[21].content_store 	decision_ratio[21] 	0.0089132302405498
scalar tree_4_3_u10_r10_network.node[22].core_layer 	interests[22] 	13097
scalar tree_4_3_u10_r10_network.node[22].core_layer 	data[22] 	9479
scalar tree_4_3_u10_r10_network.node[22].content_store 	p_hit[22] 	0.27624646865694
scalar tree_4_3_u10_r10_network.node[22].content_store 	hits[22] 	3618
scalar tree_4_3_u10_r10_network.node[22].content_store 	misses[22] 	9479
scalar tree_4_3_u10_r10_network.node[22].content_store 	decision_yes[22] 	90
scalar tree_4_3_u10_r10_network.node[22].content_store 	decision_no[22] 	9389
scalar tree_4_3_u10_r10_network.node[22].content_store 	decision_ratio[22] 	0.009494672433801
scalar tree_4_3_u10_r10_network.node[23].core_layer 	interests[23] 	13799
scalar tree_4_3_u10_r10_network.node[23].core_layer 	data[23] 	9315
scalar tree_4_3_u10_r10_network.node[23].content_store 	p_hit[23] 	0.32495108341184
scalar tree_4_3_u10_r10_network.node[23].content_store 	hits[23] 	4484
scalar tree_4_3_u10_r10_network.node[23].content_store 	misses[23] 	9315
scalar tree_4_3_u10_r10_network.node[23].content_store 	decision_yes[23] 	78
scalar tree_4_3_u10_r10_network.node[23].content_store 	decision_no[23] 	9237
scalar tree_4_3_u10_r10_network.node[23].content_store 	decision_ratio[23] 	0.0083735909822866
scalar tree_4_3_u10_r10_network.node[24].core_layer 	interests[24] 	13650
scalar tree_4_3_u10_r10_network.node[24].core_layer 	data[24] 	9339
scalar tree_4_3_u10_r10_network.node[24].content_store 	p_hit[24] 	0.31582417582418
scalar tree_4_3_u10_r10_network.node[24].content_store 	hits[24] 	4311
scalar tree_4_3_u10_r10_network.node[24].content_store 	misses[24] 	9339
scalar tree_4_3_u10_r10_network.node[24].content_store 	decision_yes[24] 	97
scalar tree_4_3_u10_r10_network.node[24].content_store 	decision_no[24] 	9242
scalar tree_4_3_u10_r10_network.node[24].content_store 	decision_ratio[24] 	0.010386551022593
scalar tree_4_3_u10_r10_network.node[25].core_layer 	interests[25] 	13682
scalar tree_4_3_u10_r10_network.node[25].core_layer 	data[25] 	9587
scalar tree_4_3_u10_r10_network.node[25].content_store 	p_hit[25] 	0.29929834819471
scalar tree_4_3_u10_r10_network.node[25].content_store 	hits[25] 	4095
scalar tree_4_3_u10_r10_network.node[25].content_store 	misses[25] 	9587
scalar tree_4_3_u10_r10_network.node[25].content_store 	decision_yes[25] 	104
scalar tree_4_3_u10_r10_network.node[25].content_store 	decision_no[25] 	9483
scalar tree_4_3_u10_r10_network.node[25].content_store 	decision_ratio[25] 	0.010848023364973
scalar tree_4_3_u10_r10_network.node[26].core_layer 	interests[26] 	13004
scalar tree_4_3_u10_r10_network.node[26].core_layer 	data[26] 	9379
scalar tree_4_3_u10_r10_network.node[26].content_store 	p_hit[26] 	0.27883728083667
scalar tree_4_3_u10_r10_network.node[26].content_store 	hits[26] 	3626
scalar tree_4_3_u10_r10_network.node[26].content_store 	misses[26] 	9378
scalar tree_4_3_u10_r10_network.node[26].content_store 	decision_yes[26] 	75
scalar tree_4_3_u10_r10_network.node[26].content_store 	decision_no[26] 	9304
scalar tree_4_3_u10_r10_network.node[26].content_store 	decision_ratio[26] 	0.0079965881224011
scalar tree_4_3_u10_r10_network.node[27].core_layer 	interests[27] 	13495
scalar tree_4_3_u10_r10_network.node[27].core_layer 	data[27] 	9231
scalar tree_4_3_u10_r10_network.node[27].content_store 	p_hit[27] 	0.31596887736199
scalar tree_4_3_u10_r10_network.node[27].content_store 	hits[27] 	4264
scalar tree_4_3_u10_r10_network.node[27].content_store 	misses[27] 	9231
scalar tree_4_3_u10_r10_network.node[27].content_store 	decision_yes[27] 	86
scalar tree_4_3_u10_r10_network.node[27].content_store 	decision_no[27] 	9145
scalar tree_4_3_u10_r10_network.node[27].content_store 	decision_ratio[27] 	0.0093164337558228
scalar tree_4_3_u10_r10_network.node[28].core_layer 	interests[28] 	13968
scalar tree_4_3_u10_r10_network.node[28].core_layer 	data[28] 	9451
scalar tree_4_3_u10_r10_network.node[28].content_store 	p_hit[28] 	0.32331042382589
scalar tree_4_3_u10_r10_network.node[28].content_store 	hits[28] 	4516
scalar tree_4_3_u10_r10_network.node[28].content_store 	misses[28] 	9452
scalar tree_4_3_u10_r10_network.node[28].content_store 	decision_yes[28] 	99
scalar tree_4_3_u10_r10_network.node[28].content_store 	decision_no[28] 	9352
scalar tree_4_3_u10_r10_network.node[28].content_store 	decision_ratio[28] 	0.010475082001905
scalar tree_4_3_u10_r10_network.node[29].core_layer 	interests[29] 	13753
scalar tree_4_3_u10_r10_network.node[29].core_layer 	data[29] 	9439
scalar tree_4_3_u10_r10_network.node[29].content_store 	p_hit[29] 	0.31360430451538
scalar tree_4_3_u10_r10_network.node[29].content_store 	hits[29] 	4313
scalar tree_4_3_u10_r10_network.node[29].content_store 	misses[29] 	9440
scalar tree_4_3_u10_r10_network.node[29].content_store 	decision_yes[29] 	92
scalar tree_4_3_u10_r10_network.node[29].content_store 	decision_no[29] 	9347
scalar tree_4_3_u10_r10_network.node[29].content_store 	decision_ratio[29] 	0.0097467952113571
scalar tree_4_3_u10_r10_network.node[30].core_layer 	interests[30] 	13329
scalar tree_4_3_u10_r10_network.node[30].core_layer 	data[30] 	9519
scalar tree_4_3_u10_r10_network.node[30].content_store 	p_hit[30] 	0.28584289894216
scalar tree_4_3_u10_r10_network.node[30].content_store 	hits[30] 	3810
scalar tree_4_3_u10_r10_network.node[30].content_store 	misses[30] 	9519
scalar tree_4_3_u10_r10_network.node[30].content_store 	decision_yes[30] 	75
scalar tree_4_3_u10_r10_network.node[30].content_store 	decision_no[30] 	9444
scalar tree_4_3_u10_r10_network.node[30].content_store 	decision_ratio[30] 	0.0078789788843366
scalar tree_4_3_u10_r10_network.node[31].core_layer 	interests[31] 	13069
scalar tree_4_3_u10_r10_network.node[31].core_layer 	data[31] 	9310
scalar tree_4_3_u10_r10_network.node[31].content_store 	p_hit[31] 	0.28762720942689
scalar tree_4_3_u10_r10_network.node[31].content_store 	hits[31] 	3759
scalar tree_4_3_u10_r10_network.node[31].content_store 	misses[31] 	9310
scalar tree_4_3_u10_r10_network.node[31].content_store 	decision_yes[31] 	103
scalar tree_4_3_u10_r10_network.node[31].content_store 	decision_no[31] 	9207
scalar tree_4_3_u10_r10_network.node[31].content_store 	decision_ratio[31] 	0.011063372717508
scalar tree_4_3_u10_r10_network.node[32].core_layer 	interests[32] 	13792
scalar tree_4_3_u10_r10_network.node[32].core_layer 	data[32] 	9426
scalar tree_4_3_u10_r10_network.node[32].content_store 	p_hit[32] 	0.31656032482599
scalar tree_4_3_u10_r10_network.node[32].content_store 	hits[32] 	4366
scalar tree_4_3_u10_r10_network.node[32].content_store 	misses[32] 	9426
scalar tree_4_3_u10_r10_network.node[32].content_store 	decision_yes[32] 	111
scalar tree_4_3_u10_r10_network.node[32].content_store 	decision_no[32] 	9315
scalar tree_4_3_u10_r10_network.node[32].content_store 	decision_ratio[32] 	0.011775938892425
scalar tree_4_3_u10_r10_network.node[33].core_layer 	interests[33] 	13706
scalar tree_4_3_u10_r10_network.node[33].core_layer 	data[33] 	9377
scalar tree_4_3_u10_r10_network.node[33].content_store 	p_hit[33] 	0.31584707427404
scalar tree_4_3_u10_r10_network.node[33].content_store 	hits[33] 	4329
scalar tree_4_3_u10_r10_network.node[33].content_store 	misses[33] 	9377
scalar tree_4_3_u10_r10_network.node[33].content_store 	decision_yes[33] 	101
scalar tree_4_3_u10_r10_network.node[33].content_store 	decision_no[33] 	9276
scalar tree_4_3_u10_r10_network.node[33].content_store 	decision_ratio[33] 	0.010771035512424
scalar tree_4_3_u10_r10_network.node[34].core_layer 	interests[34] 	13604
scalar tree_4_3_u10_r10_network.node[34].core_layer 	data[34] 	9406
scalar tree_4_3_u10_r10_network.node[34].content_store 	p_hit[34] 	0.30858571008527
scalar tree_4_3_u10_r10_network.node[34].content_store 	hits[34] 	4198
scalar tree_4_3_u10_r10_network.node[34].content_store 	misses[34] 	9406
scalar tree_4_3_u10_r10_network.node[34].content_store 	decision_yes[34] 	101
scalar tree_4_3_u10_r10_network.node[34].content_store 	decision_no[34] 	9305
scalar tree_4_3_u10_r10_network.node[34].content_store 	decision_ratio[34] 	0.010737826918988
scalar tree_4_3_u10_r10_network.node[35].core_layer 	interests[35] 	12886
scalar tree_4_3_u10_r10_network.node[35].core_layer 	data[35] 	9107
scalar tree_4_3_u10_r10_network.node[35].content_store 	p_hit[35] 	0.29326400744995
scalar tree_4_3_u10_r10_network.node[35].content_store 	hits[35] 	3779
scalar tree_4_3_u10_r10_network.node[35].content_store 	misses[35] 	9107
scalar tree_4_3_u10_r10_network.node[35].content_store 	decision_yes[35] 	88
scalar tree_4_3_u10_r10_network.node[35].content_store 	decision_no[35] 	9019
scalar tree_4_3_u10_r10_network.node[35].content_store 	decision_ratio[35] 	0.009662896672889
scalar tree_4_3_u10_r10_network.node[36].core_layer 	interests[36] 	13669
scalar tree_4_3_u10_r10_network.node[36].core_layer 	data[36] 	9418
scalar tree_4_3_u10_r10_network.node[36].content_store 	p_hit[36] 	0.31092252542249
scalar tree_4_3_u10_r10_network.node[36].content_store 	hits[36] 	4250
scalar tree_4_3_u10_r10_network.node[36].content_store 	misses[36] 	9419
scalar tree_4_3_u10_r10_network.node[36].content_store 	decision_yes[36] 	105
scalar tree_4_3_u10_r10_network.node[36].content_store 	decision_no[36] 	9313
scalar tree_4_3_u10_r10_network.node[36].content_store 	decision_ratio[36] 	0.011148863877681
scalar tree_4_3_u10_r10_network.node[37].core_layer 	interests[37] 	13244
scalar tree_4_3_u10_r10_network.node[37].core_layer 	data[37] 	9065
scalar tree_4_3_u10_r10_network.node[37].content_store 	p_hit[37] 	0.31553911205074
scalar tree_4_3_u10_r10_network.node[37].content_store 	hits[37] 	4179
scalar tree_4_3_u10_r10_network.node[37].content_store 	misses[37] 	9065
scalar tree_4_3_u10_r10_network.node[37].content_store 	decision_yes[37] 	86
scalar tree_4_3_u10_r10_network.node[37].content_store 	decision_no[37] 	8979
scalar tree_4_3_u10_r10_network.node[37].content_store 	decision_ratio[37] 	0.0094870380584666
scalar tree_4_3_u10_r10_network.node[38].core_layer 	interests[38] 	13363
scalar tree_4_3_u10_r10_network.node[38].core_layer 	data[38] 	9267
scalar tree_4_3_u10_r10_network.node[38].content_store 	p_hit[38] 	0.30651799745566
scalar tree_4_3_u10_r10_network.node[38].content_store 	hits[38] 	4096
scalar tree_4_3_u10_r10_network.node[38].content_store 	misses[38] 	9267
scalar tree_4_3_u10_r10_network.node[38].content_store 	decision_yes[38] 	99
scalar tree_4_3_u10_r10_network.node[38].content_store 	decision_no[38] 	9168
scalar tree_4_3_u10_r10_network.node[38].content_store 	decision_ratio[38] 	0.010683068954354
scalar tree_4_3_u10_r10_network.node[39].core_layer 	interests[39] 	12788
scalar tree_4_3_u10_r10_network.node[39].core_layer 	data[39] 	9352
scalar tree_4_3_u10_r10_network.node[39].content_store 	p_hit[39] 	0.26868939630904
scalar tree_4_3_u10_r10_network.node[39].content_store 	hits[39] 	3436
scalar tree_4_3_u10_r10_network.node[39].content_store 	misses[39] 	9352
scalar tree_4_3_u10_r10_network.node[39].content_store 	decision_yes[39] 	102
scalar tree_4_3_u10_r10_network.node[39].content_store 	decision_no[39] 	9250
scalar tree_4_3_u10_r10_network.node[39].content_store 	decision_ratio[39] 	0.010906757912746
scalar tree_4_3_u10_r10_network.client[13] 	hdistance[13] 	2.7708003664529
scalar tree_4_3_u10_r10_network.client[13] 	downloads[13] 	12007
scalar tree_4_3_u10_r10_network.client[13] 	avg_time[13] 	0.00443883095
scalar tree_4_3_u10_r10_network.client[14] 	hdistance[14] 	2.6416303722574
scalar tree_4_3_u10_r10_network.client[14] 	downloads[14] 	12169
scalar tree_4_3_u10_r10_network.client[14] 	avg_time[14] 	0.004242909286
scalar tree_4_3_u10_r10_network.client[15] 	hdistance[15] 	2.6226557267247
scalar tree_4_3_u10_r10_network.client[15] 	downloads[15] 	11944
scalar tree_4_3_u10_r10_network.client[15] 	avg_time[15] 	0.004217344627
scalar tree_4_3_u10_r10_network.client[16] 	hdistance[16] 	2.657476674792
scalar tree_4_3_u10_r10_network.client[16] 	downloads[16] 	11897
scalar tree_4_3_u10_r10_network.client[16] 	avg_time[16] 	0.004268122224
scalar tree_4_3_u10_r10_network.client[17] 	hdistance[17] 	2.6895859473024
scalar tree_4_3_u10_r10_network.client[17] 	downloads[17] 	11955
scalar tree_4_3_u10_r10_network.client[17] 	avg_time[17] 	0.004339101127
scalar tree_4_3_u10_r10_network.client[18] 	hdistance[18] 	2.6162286088594
scalar tree_4_3_u10_r10_network.client[18] 	downloads[18] 	12213
scalar tree_4_3_u10_r10_network.client[18] 	avg_time[18] 	0.004207477344
scalar tree_4_3_u10_r10_network.client[19] 	hdistance[19] 	2.6613063660477
scalar tree_4_3_u10_r10_network.client[19] 	downloads[19] 	12064
scalar tree_4_3_u10_r10_network.client[19] 	avg_time[19] 	0.004268917679
scalar tree_4_3_u10_r10_network.client[20] 	hdistance[20] 	2.6216081652975
scalar tree_4_3_u10_r10_network.client[20] 	downloads[20] 	12051
scalar tree_4_3_u10_r10_network.client[20] 	avg_time[20] 	0.004209446716
scalar tree_4_3_u10_r10_network.client[21] 	hdistance[21] 	2.7122253899044
scalar tree_4_3_u10_r10_network.client[21] 	downloads[21] 	11926
scalar tree_4_3_u10_r10_network.client[21] 	avg_time[21] 	0.004383025672
scalar tree_4_3_u10_r10_network.client[22] 	hdistance[22] 	2.7530040053404
scalar tree_4_3_u10_r10_network.client[22] 	downloads[22] 	11984
scalar tree_4_3_u10_r10_network.client[22] 	avg_time[22] 	0.004453268021
scalar tree_4_3_u10_r10_network.client[23] 	hdistance[23] 	2.6574166666667
scalar tree_4_3_u10_r10_network.client[23] 	downloads[23] 	12000
scalar tree_4_3_u10_r10_network.client[23] 	avg_time[23] 	0.004254330318
scalar tree_4_3_u10_r10_network.client[24] 	hdistance[24] 	2.6379886401604
scalar tree_4_3_u10_r10_network.client[24] 	downloads[24] 	11972
scalar tree_4_3_u10_r10_network.client[24] 	avg_time[24] 	0.004241942117
scalar tree_4_3_u10_r10_network.client[25] 	hdistance[25] 	2.6721556886227
scalar tree_4_3_u10_r10_network.client[25] 	downloads[25] 	12024
scalar tree_4_3_u10_r10_network.client[25] 	avg_time[25] 	0.004300728846
scalar tree_4_3_u10_r10_network.client[26] 	hdistance[26] 	2.7317902770865
scalar tree_4_3_u10_r10_network.client[26] 	downloads[26] 	12054
scalar tree_4_3_u10_r10_network.client[26] 	avg_time[26] 	0.004376801388
scalar tree_4_3_u10_r10_network.client[27] 	hdistance[27] 	2.6005821205821
scalar tree_4_3_u10_r10_network.client[27] 	downloads[27] 	12025
scalar tree_4_3_u10_r10_network.client[27] 	avg_time[27] 	0.004169976205
scalar tree_4_3_u10_r10_network.client[28] 	hdistance[28] 	2.6243557772236
scalar tree_4_3_u10_r10_network.client[28] 	downloads[28] 	12030
scalar tree_4_3_u10_r10_network.client[28] 	avg_time[28] 	0.004223272154
scalar tree_4_3_u10_r10_network.client[29] 	hdistance[29] 	2.6362131744456
scalar tree_4_3_u10_r10_network.client[29] 	downloads[29] 	12084
scalar tree_4_3_u10_r10_network.client[29] 	avg_time[29] 	0.00423061249
scalar tree_4_3_u10_r10_network.client[30] 	hdistance[30] 	2.6867933803048
scalar tree_4_3_u10_r10_network.client[30] 	downloads[30] 	12206
scalar tree_4_3_u10_r10_network.client[30] 	avg_time[30] 	0.004348350211
scalar tree_4_3_u10_r10_network.client[31] 	hdistance[31] 	2.7374759555072
scalar tree_4_3_u10_r10_network.client[31] 	downloads[31] 	11957
scalar tree_4_3_u10_r10_network.client[31] 	avg_time[31] 	0.004427971008
scalar tree_4_3_u10_r10_network.client[32] 	hdistance[32] 	2.6252689061724
scalar tree_4_3_u10_r10_network.client[32] 	downloads[32] 	12086
scalar tree_4_3_u10_r10_network.client[32] 	avg_time[32] 	0.004223726914
scalar tree_4_3_u10_r10_network.client[33] 	hdistance[33] 	2.6266119096509
scalar tree_4_3_u10_r10_network.client[33] 	downloads[33] 	12175
scalar tree_4_3_u10_r10_network.client[33] 	avg_time[33] 	0.004209771093
scalar tree_4_3_u10_r10_network.client[34] 	hdistance[34] 	2.6301073479238
scalar tree_4_3_u10_r10_network.client[34] 	downloads[34] 	12017
scalar tree_4_3_u10_r10_network.client[34] 	avg_time[34] 	0.004229671611
scalar tree_4_3_u10_r10_network.client[35] 	hdistance[35] 	2.6924118094916
scalar tree_4_3_u10_r10_network.client[35] 	downloads[35] 	11821
scalar tree_4_3_u10_r10_network.client[35] 	avg_time[35] 	0.004344976293
scalar tree_4_3_u10_r10_network.client[36] 	hdistance[36] 	2.6166791013844
scalar tree_4_3_u10_r10_network.client[36] 	downloads[36] 	12063
scalar tree_4_3_u10_r10_network.client[36] 	avg_time[36] 	0.004203315192
scalar tree_4_3_u10_r10_network.client[37] 	hdistance[37] 	2.6457205683356
scalar tree_4_3_u10_r10_network.client[37] 	downloads[37] 	11824
scalar tree_4_3_u10_r10_network.client[37] 	avg_time[37] 	0.004234435442
scalar tree_4_3_u10_r10_network.client[38] 	hdistance[38] 	2.6137868255544
scalar tree_4_3_u10_r10_network.client[38] 	downloads[38] 	12084
scalar tree_4_3_u10_r10_network.client[38] 	avg_time[38] 	0.00418963934
scalar tree_4_3_u10_r10_network.client[39] 	hdistance[39] 	2.7341962421712
scalar tree_4_3_u10_r10_network.client[39] 	downloads[39] 	11975
scalar tree_4_3_u10_r10_network.client[39] 	avg_time[39] 	0.004373441686
