version 2
run General-201-20160819-06:08:56-14109
attr a 0.9
attr cd fix0.01
attr configname General
attr cr lru
attr datetime 20160819-06:08:56
attr experiment General
attr fsize 1
attr inifile hw5115/scenario_A/NRR-FIX0.01.ini
attr iterationvars "$name=tree_4_3, $un=10, $rep=2, $cd=fix0.01, $cr=lru, $fsize=1, $a=0.9, $sl=nrr, $ttl=1000, $variance=0.05"
attr iterationvars2 "$name=tree_4_3, $un=10, $rep=2, $cd=fix0.01, $cr=lru, $fsize=1, $a=0.9, $sl=nrr, $ttl=1000, $variance=0.05, $repetition=0"
attr measurement "$name=tree_4_3, $un=10, $rep=2, $cd=fix0.01, $cr=lru, $fsize=1, $a=0.9, $sl=nrr, $ttl=1000, $variance=0.05"
attr name tree_4_3
attr network networks.${name}_u${un}_r${rep}_network
attr processid 14109
attr rep 2
attr repetition 0
attr replication #0
attr resultdir results
attr runnumber 201
attr seedset 2
attr sl nrr
attr ttl 1000
attr un 10
attr variance 0.05

scalar . 	a 	0.9
scalar . 	fsize 	1
scalar . 	rep 	2
scalar . 	ttl 	1000
scalar . 	un 	10
scalar . 	variance 	0.05
scalar tree_4_3_u10_r2_network.content_distribution 	repo-0 	0
scalar tree_4_3_u10_r2_network.content_distribution 	client-0 	13
scalar tree_4_3_u10_r2_network.content_distribution 	client-1 	14
scalar tree_4_3_u10_r2_network.content_distribution 	client-2 	15
scalar tree_4_3_u10_r2_network.content_distribution 	client-3 	16
scalar tree_4_3_u10_r2_network.content_distribution 	client-4 	17
scalar tree_4_3_u10_r2_network.content_distribution 	client-5 	18
scalar tree_4_3_u10_r2_network.content_distribution 	client-6 	19
scalar tree_4_3_u10_r2_network.content_distribution 	client-7 	20
scalar tree_4_3_u10_r2_network.content_distribution 	client-8 	21
scalar tree_4_3_u10_r2_network.content_distribution 	client-9 	22
scalar tree_4_3_u10_r2_network.content_distribution 	client-10 	23
scalar tree_4_3_u10_r2_network.content_distribution 	client-11 	24
scalar tree_4_3_u10_r2_network.content_distribution 	client-12 	25
scalar tree_4_3_u10_r2_network.content_distribution 	client-13 	26
scalar tree_4_3_u10_r2_network.content_distribution 	client-14 	27
scalar tree_4_3_u10_r2_network.content_distribution 	client-15 	28
scalar tree_4_3_u10_r2_network.content_distribution 	client-16 	29
scalar tree_4_3_u10_r2_network.content_distribution 	client-17 	30
scalar tree_4_3_u10_r2_network.content_distribution 	client-18 	31
scalar tree_4_3_u10_r2_network.content_distribution 	client-19 	32
scalar tree_4_3_u10_r2_network.content_distribution 	client-20 	33
scalar tree_4_3_u10_r2_network.content_distribution 	client-21 	34
scalar tree_4_3_u10_r2_network.content_distribution 	client-22 	35
scalar tree_4_3_u10_r2_network.content_distribution 	client-23 	36
scalar tree_4_3_u10_r2_network.content_distribution 	client-24 	37
scalar tree_4_3_u10_r2_network.content_distribution 	client-25 	38
scalar tree_4_3_u10_r2_network.content_distribution 	client-26 	39
scalar tree_4_3_u10_r2_network.content_distribution 	repo-0_card 	100000
scalar tree_4_3_u10_r2_network.content_distribution 	repo-0_price 	0
scalar tree_4_3_u10_r2_network.statistics 	stabilization_time 	1622.2
scalar tree_4_3_u10_r2_network.statistics 	p_hit 	0.24589559366236
scalar tree_4_3_u10_r2_network.statistics 	interests 	25459.275
scalar tree_4_3_u10_r2_network.statistics 	data 	17361.5
scalar tree_4_3_u10_r2_network.statistics 	hdistance 	2.6682067244461
scalar tree_4_3_u10_r2_network.statistics 	avg_time 	0.00428828169
scalar tree_4_3_u10_r2_network.statistics 	downloads 	323902
scalar tree_4_3_u10_r2_network.statistics 	total_cost 	0
scalar tree_4_3_u10_r2_network.statistics 	total_replicas 	100000
scalar tree_4_3_u10_r2_network.statistics 	inner_hit 	0.47598038913005
scalar tree_4_3_u10_r2_network.node[0].core_layer 	interests[0] 	170813
scalar tree_4_3_u10_r2_network.node[0].core_layer 	repo_load[0] 	169731
scalar tree_4_3_u10_r2_network.node[0].core_layer 	data[0] 	0
scalar tree_4_3_u10_r2_network.node[0].core_layer 	repo_int[0] 	169731
scalar tree_4_3_u10_r2_network.node[0].content_store 	p_hit[0] 	0.0063344124861691
scalar tree_4_3_u10_r2_network.node[0].content_store 	hits[0] 	1082
scalar tree_4_3_u10_r2_network.node[0].content_store 	misses[0] 	169731
scalar tree_4_3_u10_r2_network.node[0].content_store 	decision_yes[0] 	1689
scalar tree_4_3_u10_r2_network.node[0].content_store 	decision_no[0] 	168042
scalar tree_4_3_u10_r2_network.node[0].content_store 	decision_ratio[0] 	0.0099510401753363
scalar tree_4_3_u10_r2_network.node[1].core_layer 	interests[1] 	133861
scalar tree_4_3_u10_r2_network.node[1].core_layer 	data[1] 	132354
scalar tree_4_3_u10_r2_network.node[1].content_store 	p_hit[1] 	0.011235535368778
scalar tree_4_3_u10_r2_network.node[1].content_store 	hits[1] 	1504
scalar tree_4_3_u10_r2_network.node[1].content_store 	misses[1] 	132357
scalar tree_4_3_u10_r2_network.node[1].content_store 	decision_yes[1] 	1252
scalar tree_4_3_u10_r2_network.node[1].content_store 	decision_no[1] 	131102
scalar tree_4_3_u10_r2_network.node[1].content_store 	decision_ratio[1] 	0.0094594798797165
scalar tree_4_3_u10_r2_network.node[2].core_layer 	interests[2] 	55825
scalar tree_4_3_u10_r2_network.node[2].core_layer 	data[2] 	52751
scalar tree_4_3_u10_r2_network.node[2].content_store 	p_hit[2] 	0.055064935064935
scalar tree_4_3_u10_r2_network.node[2].content_store 	hits[2] 	3074
scalar tree_4_3_u10_r2_network.node[2].content_store 	misses[2] 	52751
scalar tree_4_3_u10_r2_network.node[2].content_store 	decision_yes[2] 	519
scalar tree_4_3_u10_r2_network.node[2].content_store 	decision_no[2] 	52232
scalar tree_4_3_u10_r2_network.node[2].content_store 	decision_ratio[2] 	0.009838676044056
scalar tree_4_3_u10_r2_network.node[3].core_layer 	interests[3] 	16597
scalar tree_4_3_u10_r2_network.node[3].core_layer 	data[3] 	12440
scalar tree_4_3_u10_r2_network.node[3].content_store 	p_hit[3] 	0.25040670000603
scalar tree_4_3_u10_r2_network.node[3].content_store 	hits[3] 	4156
scalar tree_4_3_u10_r2_network.node[3].content_store 	misses[3] 	12441
scalar tree_4_3_u10_r2_network.node[3].content_store 	decision_yes[3] 	125
scalar tree_4_3_u10_r2_network.node[3].content_store 	decision_no[3] 	12315
scalar tree_4_3_u10_r2_network.node[3].content_store 	decision_ratio[3] 	0.010048231511254
scalar tree_4_3_u10_r2_network.node[4].core_layer 	interests[4] 	43745
scalar tree_4_3_u10_r2_network.node[4].core_layer 	data[4] 	40500
scalar tree_4_3_u10_r2_network.node[4].content_store 	p_hit[4] 	0.074157046519602
scalar tree_4_3_u10_r2_network.node[4].content_store 	hits[4] 	3244
scalar tree_4_3_u10_r2_network.node[4].content_store 	misses[4] 	40501
scalar tree_4_3_u10_r2_network.node[4].content_store 	decision_yes[4] 	444
scalar tree_4_3_u10_r2_network.node[4].content_store 	decision_no[4] 	40056
scalar tree_4_3_u10_r2_network.node[4].content_store 	decision_ratio[4] 	0.010962962962963
scalar tree_4_3_u10_r2_network.node[5].core_layer 	interests[5] 	32384
scalar tree_4_3_u10_r2_network.node[5].core_layer 	data[5] 	28252
scalar tree_4_3_u10_r2_network.node[5].content_store 	p_hit[5] 	0.12756299407115
scalar tree_4_3_u10_r2_network.node[5].content_store 	hits[5] 	4131
scalar tree_4_3_u10_r2_network.node[5].content_store 	misses[5] 	28253
scalar tree_4_3_u10_r2_network.node[5].content_store 	decision_yes[5] 	311
scalar tree_4_3_u10_r2_network.node[5].content_store 	decision_no[5] 	27941
scalar tree_4_3_u10_r2_network.node[5].content_store 	decision_ratio[5] 	0.011008070225117
scalar tree_4_3_u10_r2_network.node[6].core_layer 	interests[6] 	17814
scalar tree_4_3_u10_r2_network.node[6].core_layer 	data[6] 	12910
scalar tree_4_3_u10_r2_network.node[6].content_store 	p_hit[6] 	0.27528909846188
scalar tree_4_3_u10_r2_network.node[6].content_store 	hits[6] 	4904
scalar tree_4_3_u10_r2_network.node[6].content_store 	misses[6] 	12910
scalar tree_4_3_u10_r2_network.node[6].content_store 	decision_yes[6] 	117
scalar tree_4_3_u10_r2_network.node[6].content_store 	decision_no[6] 	12793
scalar tree_4_3_u10_r2_network.node[6].content_store 	decision_ratio[6] 	0.0090627420604183
scalar tree_4_3_u10_r2_network.node[7].core_layer 	interests[7] 	47039
scalar tree_4_3_u10_r2_network.node[7].core_layer 	data[7] 	43370
scalar tree_4_3_u10_r2_network.node[7].content_store 	p_hit[7] 	0.077977848168541
scalar tree_4_3_u10_r2_network.node[7].content_store 	hits[7] 	3668
scalar tree_4_3_u10_r2_network.node[7].content_store 	misses[7] 	43371
scalar tree_4_3_u10_r2_network.node[7].content_store 	decision_yes[7] 	399
scalar tree_4_3_u10_r2_network.node[7].content_store 	decision_no[7] 	42971
scalar tree_4_3_u10_r2_network.node[7].content_store 	decision_ratio[7] 	0.0091999077703482
scalar tree_4_3_u10_r2_network.node[8].core_layer 	interests[8] 	28989
scalar tree_4_3_u10_r2_network.node[8].core_layer 	data[8] 	25189
scalar tree_4_3_u10_r2_network.node[8].content_store 	p_hit[8] 	0.13108420435338
scalar tree_4_3_u10_r2_network.node[8].content_store 	hits[8] 	3800
scalar tree_4_3_u10_r2_network.node[8].content_store 	misses[8] 	25189
scalar tree_4_3_u10_r2_network.node[8].content_store 	decision_yes[8] 	261
scalar tree_4_3_u10_r2_network.node[8].content_store 	decision_no[8] 	24928
scalar tree_4_3_u10_r2_network.node[8].content_store 	decision_ratio[8] 	0.010361665806503
scalar tree_4_3_u10_r2_network.node[9].core_layer 	interests[9] 	17185
scalar tree_4_3_u10_r2_network.node[9].core_layer 	data[9] 	12818
scalar tree_4_3_u10_r2_network.node[9].content_store 	p_hit[9] 	0.25411696246727
scalar tree_4_3_u10_r2_network.node[9].content_store 	hits[9] 	4367
scalar tree_4_3_u10_r2_network.node[9].content_store 	misses[9] 	12818
scalar tree_4_3_u10_r2_network.node[9].content_store 	decision_yes[9] 	110
scalar tree_4_3_u10_r2_network.node[9].content_store 	decision_no[9] 	12708
scalar tree_4_3_u10_r2_network.node[9].content_store 	decision_ratio[9] 	0.0085816820096739
scalar tree_4_3_u10_r2_network.node[10].core_layer 	interests[10] 	46277
scalar tree_4_3_u10_r2_network.node[10].core_layer 	data[10] 	42525
scalar tree_4_3_u10_r2_network.node[10].content_store 	p_hit[10] 	0.081055383884003
scalar tree_4_3_u10_r2_network.node[10].content_store 	hits[10] 	3751
scalar tree_4_3_u10_r2_network.node[10].content_store 	misses[10] 	42526
scalar tree_4_3_u10_r2_network.node[10].content_store 	decision_yes[10] 	409
scalar tree_4_3_u10_r2_network.node[10].content_store 	decision_no[10] 	42116
scalar tree_4_3_u10_r2_network.node[10].content_store 	decision_ratio[10] 	0.0096178718400941
scalar tree_4_3_u10_r2_network.node[11].core_layer 	interests[11] 	31914
scalar tree_4_3_u10_r2_network.node[11].core_layer 	data[11] 	27836
scalar tree_4_3_u10_r2_network.node[11].content_store 	p_hit[11] 	0.12778091119885
scalar tree_4_3_u10_r2_network.node[11].content_store 	hits[11] 	4078
scalar tree_4_3_u10_r2_network.node[11].content_store 	misses[11] 	27836
scalar tree_4_3_u10_r2_network.node[11].content_store 	decision_yes[11] 	247
scalar tree_4_3_u10_r2_network.node[11].content_store 	decision_no[11] 	27589
scalar tree_4_3_u10_r2_network.node[11].content_store 	decision_ratio[11] 	0.0088734013507688
scalar tree_4_3_u10_r2_network.node[12].core_layer 	interests[12] 	14441
scalar tree_4_3_u10_r2_network.node[12].core_layer 	data[12] 	10462
scalar tree_4_3_u10_r2_network.node[12].content_store 	p_hit[12] 	0.27553493525379
scalar tree_4_3_u10_r2_network.node[12].content_store 	hits[12] 	3979
scalar tree_4_3_u10_r2_network.node[12].content_store 	misses[12] 	10462
scalar tree_4_3_u10_r2_network.node[12].content_store 	decision_yes[12] 	119
scalar tree_4_3_u10_r2_network.node[12].content_store 	decision_no[12] 	10343
scalar tree_4_3_u10_r2_network.node[12].content_store 	decision_ratio[12] 	0.011374498183904
scalar tree_4_3_u10_r2_network.node[13].core_layer 	interests[13] 	13089
scalar tree_4_3_u10_r2_network.node[13].core_layer 	data[13] 	9481
scalar tree_4_3_u10_r2_network.node[13].content_store 	p_hit[13] 	0.27557491022996
scalar tree_4_3_u10_r2_network.node[13].content_store 	hits[13] 	3607
scalar tree_4_3_u10_r2_network.node[13].content_store 	misses[13] 	9482
scalar tree_4_3_u10_r2_network.node[13].content_store 	decision_yes[13] 	101
scalar tree_4_3_u10_r2_network.node[13].content_store 	decision_no[13] 	9380
scalar tree_4_3_u10_r2_network.node[13].content_store 	decision_ratio[13] 	0.010652884716802
scalar tree_4_3_u10_r2_network.node[14].core_layer 	interests[14] 	13701
scalar tree_4_3_u10_r2_network.node[14].core_layer 	data[14] 	9524
scalar tree_4_3_u10_r2_network.node[14].content_store 	p_hit[14] 	0.3048682577914
scalar tree_4_3_u10_r2_network.node[14].content_store 	hits[14] 	4177
scalar tree_4_3_u10_r2_network.node[14].content_store 	misses[14] 	9524
scalar tree_4_3_u10_r2_network.node[14].content_store 	decision_yes[14] 	110
scalar tree_4_3_u10_r2_network.node[14].content_store 	decision_no[14] 	9414
scalar tree_4_3_u10_r2_network.node[14].content_store 	decision_ratio[14] 	0.01154976900462
scalar tree_4_3_u10_r2_network.node[15].core_layer 	interests[15] 	13374
scalar tree_4_3_u10_r2_network.node[15].core_layer 	data[15] 	9208
scalar tree_4_3_u10_r2_network.node[15].content_store 	p_hit[15] 	0.31149992522805
scalar tree_4_3_u10_r2_network.node[15].content_store 	hits[15] 	4166
scalar tree_4_3_u10_r2_network.node[15].content_store 	misses[15] 	9208
scalar tree_4_3_u10_r2_network.node[15].content_store 	decision_yes[15] 	121
scalar tree_4_3_u10_r2_network.node[15].content_store 	decision_no[15] 	9087
scalar tree_4_3_u10_r2_network.node[15].content_store 	decision_ratio[15] 	0.013140747176368
scalar tree_4_3_u10_r2_network.node[16].core_layer 	interests[16] 	13896
scalar tree_4_3_u10_r2_network.node[16].core_layer 	data[16] 	9391
scalar tree_4_3_u10_r2_network.node[16].content_store 	p_hit[16] 	0.32419401266552
scalar tree_4_3_u10_r2_network.node[16].content_store 	hits[16] 	4505
scalar tree_4_3_u10_r2_network.node[16].content_store 	misses[16] 	9391
scalar tree_4_3_u10_r2_network.node[16].content_store 	decision_yes[16] 	76
scalar tree_4_3_u10_r2_network.node[16].content_store 	decision_no[16] 	9315
scalar tree_4_3_u10_r2_network.node[16].content_store 	decision_ratio[16] 	0.0080928548610372
scalar tree_4_3_u10_r2_network.node[17].core_layer 	interests[17] 	13000
scalar tree_4_3_u10_r2_network.node[17].core_layer 	data[17] 	9355
scalar tree_4_3_u10_r2_network.node[17].content_store 	p_hit[17] 	0.28038461538462
scalar tree_4_3_u10_r2_network.node[17].content_store 	hits[17] 	3645
scalar tree_4_3_u10_r2_network.node[17].content_store 	misses[17] 	9355
scalar tree_4_3_u10_r2_network.node[17].content_store 	decision_yes[17] 	111
scalar tree_4_3_u10_r2_network.node[17].content_store 	decision_no[17] 	9244
scalar tree_4_3_u10_r2_network.node[17].content_store 	decision_ratio[17] 	0.011865312667023
scalar tree_4_3_u10_r2_network.node[18].core_layer 	interests[18] 	13806
scalar tree_4_3_u10_r2_network.node[18].core_layer 	data[18] 	9548
scalar tree_4_3_u10_r2_network.node[18].content_store 	p_hit[18] 	0.30841663045053
scalar tree_4_3_u10_r2_network.node[18].content_store 	hits[18] 	4258
scalar tree_4_3_u10_r2_network.node[18].content_store 	misses[18] 	9548
scalar tree_4_3_u10_r2_network.node[18].content_store 	decision_yes[18] 	108
scalar tree_4_3_u10_r2_network.node[18].content_store 	decision_no[18] 	9440
scalar tree_4_3_u10_r2_network.node[18].content_store 	decision_ratio[18] 	0.011311269375786
scalar tree_4_3_u10_r2_network.node[19].core_layer 	interests[19] 	13337
scalar tree_4_3_u10_r2_network.node[19].core_layer 	data[19] 	9335
scalar tree_4_3_u10_r2_network.node[19].content_store 	p_hit[19] 	0.3000674814426
scalar tree_4_3_u10_r2_network.node[19].content_store 	hits[19] 	4002
scalar tree_4_3_u10_r2_network.node[19].content_store 	misses[19] 	9335
scalar tree_4_3_u10_r2_network.node[19].content_store 	decision_yes[19] 	96
scalar tree_4_3_u10_r2_network.node[19].content_store 	decision_no[19] 	9239
scalar tree_4_3_u10_r2_network.node[19].content_store 	decision_ratio[19] 	0.01028387787895
scalar tree_4_3_u10_r2_network.node[20].core_layer 	interests[20] 	13420
scalar tree_4_3_u10_r2_network.node[20].core_layer 	data[20] 	9302
scalar tree_4_3_u10_r2_network.node[20].content_store 	p_hit[20] 	0.30678092399404
scalar tree_4_3_u10_r2_network.node[20].content_store 	hits[20] 	4117
scalar tree_4_3_u10_r2_network.node[20].content_store 	misses[20] 	9303
scalar tree_4_3_u10_r2_network.node[20].content_store 	decision_yes[20] 	91
scalar tree_4_3_u10_r2_network.node[20].content_store 	decision_no[20] 	9211
scalar tree_4_3_u10_r2_network.node[20].content_store 	decision_ratio[20] 	0.009782842399484
scalar tree_4_3_u10_r2_network.node[21].core_layer 	interests[21] 	13035
scalar tree_4_3_u10_r2_network.node[21].core_layer 	data[21] 	9398
scalar tree_4_3_u10_r2_network.node[21].content_store 	p_hit[21] 	0.2789413118527
scalar tree_4_3_u10_r2_network.node[21].content_store 	hits[21] 	3636
scalar tree_4_3_u10_r2_network.node[21].content_store 	misses[21] 	9399
scalar tree_4_3_u10_r2_network.node[21].content_store 	decision_yes[21] 	99
scalar tree_4_3_u10_r2_network.node[21].content_store 	decision_no[21] 	9299
scalar tree_4_3_u10_r2_network.node[21].content_store 	decision_ratio[21] 	0.010534156203448
scalar tree_4_3_u10_r2_network.node[22].core_layer 	interests[22] 	13186
scalar tree_4_3_u10_r2_network.node[22].core_layer 	data[22] 	9379
scalar tree_4_3_u10_r2_network.node[22].content_store 	p_hit[22] 	0.28863946610041
scalar tree_4_3_u10_r2_network.node[22].content_store 	hits[22] 	3806
scalar tree_4_3_u10_r2_network.node[22].content_store 	misses[22] 	9380
scalar tree_4_3_u10_r2_network.node[22].content_store 	decision_yes[22] 	86
scalar tree_4_3_u10_r2_network.node[22].content_store 	decision_no[22] 	9293
scalar tree_4_3_u10_r2_network.node[22].content_store 	decision_ratio[22] 	0.0091694210470199
scalar tree_4_3_u10_r2_network.node[23].core_layer 	interests[23] 	13638
scalar tree_4_3_u10_r2_network.node[23].core_layer 	data[23] 	9501
scalar tree_4_3_u10_r2_network.node[23].content_store 	p_hit[23] 	0.30334359876815
scalar tree_4_3_u10_r2_network.node[23].content_store 	hits[23] 	4137
scalar tree_4_3_u10_r2_network.node[23].content_store 	misses[23] 	9501
scalar tree_4_3_u10_r2_network.node[23].content_store 	decision_yes[23] 	93
scalar tree_4_3_u10_r2_network.node[23].content_store 	decision_no[23] 	9408
scalar tree_4_3_u10_r2_network.node[23].content_store 	decision_ratio[23] 	0.0097884433217556
scalar tree_4_3_u10_r2_network.node[24].core_layer 	interests[24] 	13538
scalar tree_4_3_u10_r2_network.node[24].core_layer 	data[24] 	9332
scalar tree_4_3_u10_r2_network.node[24].content_store 	p_hit[24] 	0.31068104594475
scalar tree_4_3_u10_r2_network.node[24].content_store 	hits[24] 	4206
scalar tree_4_3_u10_r2_network.node[24].content_store 	misses[24] 	9332
scalar tree_4_3_u10_r2_network.node[24].content_store 	decision_yes[24] 	102
scalar tree_4_3_u10_r2_network.node[24].content_store 	decision_no[24] 	9230
scalar tree_4_3_u10_r2_network.node[24].content_store 	decision_ratio[24] 	0.010930132876125
scalar tree_4_3_u10_r2_network.node[25].core_layer 	interests[25] 	13596
scalar tree_4_3_u10_r2_network.node[25].core_layer 	data[25] 	9378
scalar tree_4_3_u10_r2_network.node[25].content_store 	p_hit[25] 	0.31023830538394
scalar tree_4_3_u10_r2_network.node[25].content_store 	hits[25] 	4218
scalar tree_4_3_u10_r2_network.node[25].content_store 	misses[25] 	9378
scalar tree_4_3_u10_r2_network.node[25].content_store 	decision_yes[25] 	93
scalar tree_4_3_u10_r2_network.node[25].content_store 	decision_no[25] 	9285
scalar tree_4_3_u10_r2_network.node[25].content_store 	decision_ratio[25] 	0.009916826615483
scalar tree_4_3_u10_r2_network.node[26].core_layer 	interests[26] 	12794
scalar tree_4_3_u10_r2_network.node[26].core_layer 	data[26] 	9358
scalar tree_4_3_u10_r2_network.node[26].content_store 	p_hit[26] 	0.26856338908864
scalar tree_4_3_u10_r2_network.node[26].content_store 	hits[26] 	3436
scalar tree_4_3_u10_r2_network.node[26].content_store 	misses[26] 	9358
scalar tree_4_3_u10_r2_network.node[26].content_store 	decision_yes[26] 	100
scalar tree_4_3_u10_r2_network.node[26].content_store 	decision_no[26] 	9258
scalar tree_4_3_u10_r2_network.node[26].content_store 	decision_ratio[26] 	0.010686044026501
scalar tree_4_3_u10_r2_network.node[27].core_layer 	interests[27] 	13787
scalar tree_4_3_u10_r2_network.node[27].core_layer 	data[27] 	9503
scalar tree_4_3_u10_r2_network.node[27].content_store 	p_hit[27] 	0.31072749691739
scalar tree_4_3_u10_r2_network.node[27].content_store 	hits[27] 	4284
scalar tree_4_3_u10_r2_network.node[27].content_store 	misses[27] 	9503
scalar tree_4_3_u10_r2_network.node[27].content_store 	decision_yes[27] 	97
scalar tree_4_3_u10_r2_network.node[27].content_store 	decision_no[27] 	9406
scalar tree_4_3_u10_r2_network.node[27].content_store 	decision_ratio[27] 	0.010207302956961
scalar tree_4_3_u10_r2_network.node[28].core_layer 	interests[28] 	13572
scalar tree_4_3_u10_r2_network.node[28].core_layer 	data[28] 	9273
scalar tree_4_3_u10_r2_network.node[28].content_store 	p_hit[28] 	0.31675508399646
scalar tree_4_3_u10_r2_network.node[28].content_store 	hits[28] 	4299
scalar tree_4_3_u10_r2_network.node[28].content_store 	misses[28] 	9273
scalar tree_4_3_u10_r2_network.node[28].content_store 	decision_yes[28] 	89
scalar tree_4_3_u10_r2_network.node[28].content_store 	decision_no[28] 	9184
scalar tree_4_3_u10_r2_network.node[28].content_store 	decision_ratio[28] 	0.0095977569287178
scalar tree_4_3_u10_r2_network.node[29].core_layer 	interests[29] 	13483
scalar tree_4_3_u10_r2_network.node[29].core_layer 	data[29] 	9237
scalar tree_4_3_u10_r2_network.node[29].content_store 	p_hit[29] 	0.31491507824668
scalar tree_4_3_u10_r2_network.node[29].content_store 	hits[29] 	4246
scalar tree_4_3_u10_r2_network.node[29].content_store 	misses[29] 	9237
scalar tree_4_3_u10_r2_network.node[29].content_store 	decision_yes[29] 	91
scalar tree_4_3_u10_r2_network.node[29].content_store 	decision_no[29] 	9146
scalar tree_4_3_u10_r2_network.node[29].content_store 	decision_ratio[29] 	0.0098516834470066
scalar tree_4_3_u10_r2_network.node[30].core_layer 	interests[30] 	13064
scalar tree_4_3_u10_r2_network.node[30].core_layer 	data[30] 	9423
scalar tree_4_3_u10_r2_network.node[30].content_store 	p_hit[30] 	0.27870483772198
scalar tree_4_3_u10_r2_network.node[30].content_store 	hits[30] 	3641
scalar tree_4_3_u10_r2_network.node[30].content_store 	misses[30] 	9423
scalar tree_4_3_u10_r2_network.node[30].content_store 	decision_yes[30] 	94
scalar tree_4_3_u10_r2_network.node[30].content_store 	decision_no[30] 	9329
scalar tree_4_3_u10_r2_network.node[30].content_store 	decision_ratio[30] 	0.0099755916374828
scalar tree_4_3_u10_r2_network.node[31].core_layer 	interests[31] 	12798
scalar tree_4_3_u10_r2_network.node[31].core_layer 	data[31] 	9087
scalar tree_4_3_u10_r2_network.node[31].content_store 	p_hit[31] 	0.28996718237225
scalar tree_4_3_u10_r2_network.node[31].content_store 	hits[31] 	3711
scalar tree_4_3_u10_r2_network.node[31].content_store 	misses[31] 	9087
scalar tree_4_3_u10_r2_network.node[31].content_store 	decision_yes[31] 	92
scalar tree_4_3_u10_r2_network.node[31].content_store 	decision_no[31] 	8995
scalar tree_4_3_u10_r2_network.node[31].content_store 	decision_ratio[31] 	0.010124353471993
scalar tree_4_3_u10_r2_network.node[32].core_layer 	interests[32] 	13822
scalar tree_4_3_u10_r2_network.node[32].core_layer 	data[32] 	9410
scalar tree_4_3_u10_r2_network.node[32].content_store 	p_hit[32] 	0.31920127333237
scalar tree_4_3_u10_r2_network.node[32].content_store 	hits[32] 	4412
scalar tree_4_3_u10_r2_network.node[32].content_store 	misses[32] 	9410
scalar tree_4_3_u10_r2_network.node[32].content_store 	decision_yes[32] 	94
scalar tree_4_3_u10_r2_network.node[32].content_store 	decision_no[32] 	9316
scalar tree_4_3_u10_r2_network.node[32].content_store 	decision_ratio[32] 	0.0099893730074389
scalar tree_4_3_u10_r2_network.node[33].core_layer 	interests[33] 	13423
scalar tree_4_3_u10_r2_network.node[33].core_layer 	data[33] 	9312
scalar tree_4_3_u10_r2_network.node[33].content_store 	p_hit[33] 	0.30626536541757
scalar tree_4_3_u10_r2_network.node[33].content_store 	hits[33] 	4111
scalar tree_4_3_u10_r2_network.node[33].content_store 	misses[33] 	9312
scalar tree_4_3_u10_r2_network.node[33].content_store 	decision_yes[33] 	83
scalar tree_4_3_u10_r2_network.node[33].content_store 	decision_no[33] 	9229
scalar tree_4_3_u10_r2_network.node[33].content_store 	decision_ratio[33] 	0.0089132302405498
scalar tree_4_3_u10_r2_network.node[34].core_layer 	interests[34] 	13579
scalar tree_4_3_u10_r2_network.node[34].core_layer 	data[34] 	9322
scalar tree_4_3_u10_r2_network.node[34].content_store 	p_hit[34] 	0.31357242801384
scalar tree_4_3_u10_r2_network.node[34].content_store 	hits[34] 	4258
scalar tree_4_3_u10_r2_network.node[34].content_store 	misses[34] 	9321
scalar tree_4_3_u10_r2_network.node[34].content_store 	decision_yes[34] 	93
scalar tree_4_3_u10_r2_network.node[34].content_store 	decision_no[34] 	9229
scalar tree_4_3_u10_r2_network.node[34].content_store 	decision_ratio[34] 	0.0099763999141815
scalar tree_4_3_u10_r2_network.node[35].core_layer 	interests[35] 	13160
scalar tree_4_3_u10_r2_network.node[35].core_layer 	data[35] 	9416
scalar tree_4_3_u10_r2_network.node[35].content_store 	p_hit[35] 	0.28449848024316
scalar tree_4_3_u10_r2_network.node[35].content_store 	hits[35] 	3744
scalar tree_4_3_u10_r2_network.node[35].content_store 	misses[35] 	9416
scalar tree_4_3_u10_r2_network.node[35].content_store 	decision_yes[35] 	82
scalar tree_4_3_u10_r2_network.node[35].content_store 	decision_no[35] 	9334
scalar tree_4_3_u10_r2_network.node[35].content_store 	decision_ratio[35] 	0.0087085811384877
scalar tree_4_3_u10_r2_network.node[36].core_layer 	interests[36] 	13498
scalar tree_4_3_u10_r2_network.node[36].core_layer 	data[36] 	9255
scalar tree_4_3_u10_r2_network.node[36].content_store 	p_hit[36] 	0.31434286560972
scalar tree_4_3_u10_r2_network.node[36].content_store 	hits[36] 	4243
scalar tree_4_3_u10_r2_network.node[36].content_store 	misses[36] 	9255
scalar tree_4_3_u10_r2_network.node[36].content_store 	decision_yes[36] 	88
scalar tree_4_3_u10_r2_network.node[36].content_store 	decision_no[36] 	9167
scalar tree_4_3_u10_r2_network.node[36].content_store 	decision_ratio[36] 	0.0095083738519719
scalar tree_4_3_u10_r2_network.node[37].core_layer 	interests[37] 	13598
scalar tree_4_3_u10_r2_network.node[37].core_layer 	data[37] 	9416
scalar tree_4_3_u10_r2_network.node[37].content_store 	p_hit[37] 	0.3074716870128
scalar tree_4_3_u10_r2_network.node[37].content_store 	hits[37] 	4181
scalar tree_4_3_u10_r2_network.node[37].content_store 	misses[37] 	9417
scalar tree_4_3_u10_r2_network.node[37].content_store 	decision_yes[37] 	104
scalar tree_4_3_u10_r2_network.node[37].content_store 	decision_no[37] 	9312
scalar tree_4_3_u10_r2_network.node[37].content_store 	decision_ratio[37] 	0.011045029736619
scalar tree_4_3_u10_r2_network.node[38].core_layer 	interests[38] 	13650
scalar tree_4_3_u10_r2_network.node[38].core_layer 	data[38] 	9463
scalar tree_4_3_u10_r2_network.node[38].content_store 	p_hit[38] 	0.30673992673993
scalar tree_4_3_u10_r2_network.node[38].content_store 	hits[38] 	4187
scalar tree_4_3_u10_r2_network.node[38].content_store 	misses[38] 	9463
scalar tree_4_3_u10_r2_network.node[38].content_store 	decision_yes[38] 	88
scalar tree_4_3_u10_r2_network.node[38].content_store 	decision_no[38] 	9375
scalar tree_4_3_u10_r2_network.node[38].content_store 	decision_ratio[38] 	0.0092993765190743
scalar tree_4_3_u10_r2_network.node[39].core_layer 	interests[39] 	12643
scalar tree_4_3_u10_r2_network.node[39].core_layer 	data[39] 	9446
scalar tree_4_3_u10_r2_network.node[39].content_store 	p_hit[39] 	0.25286719924069
scalar tree_4_3_u10_r2_network.node[39].content_store 	hits[39] 	3197
scalar tree_4_3_u10_r2_network.node[39].content_store 	misses[39] 	9446
scalar tree_4_3_u10_r2_network.node[39].content_store 	decision_yes[39] 	88
scalar tree_4_3_u10_r2_network.node[39].content_store 	decision_no[39] 	9358
scalar tree_4_3_u10_r2_network.node[39].content_store 	decision_ratio[39] 	0.009316112640271
scalar tree_4_3_u10_r2_network.client[13] 	hdistance[13] 	2.7720454920059
scalar tree_4_3_u10_r2_network.client[13] 	downloads[13] 	12134
scalar tree_4_3_u10_r2_network.client[13] 	avg_time[13] 	0.004445521954
scalar tree_4_3_u10_r2_network.client[14] 	hdistance[14] 	2.6688687035508
scalar tree_4_3_u10_r2_network.client[14] 	downloads[14] 	12110
scalar tree_4_3_u10_r2_network.client[14] 	avg_time[14] 	0.004280756687
scalar tree_4_3_u10_r2_network.client[15] 	hdistance[15] 	2.6603118115574
scalar tree_4_3_u10_r2_network.client[15] 	downloads[15] 	11802
scalar tree_4_3_u10_r2_network.client[15] 	avg_time[15] 	0.004263511714
scalar tree_4_3_u10_r2_network.client[16] 	hdistance[16] 	2.6668612408272
scalar tree_4_3_u10_r2_network.client[16] 	downloads[16] 	11992
scalar tree_4_3_u10_r2_network.client[16] 	avg_time[16] 	0.004275847577
scalar tree_4_3_u10_r2_network.client[17] 	hdistance[17] 	2.722457803276
scalar tree_4_3_u10_r2_network.client[17] 	downloads[17] 	12027
scalar tree_4_3_u10_r2_network.client[17] 	avg_time[17] 	0.00439978512
scalar tree_4_3_u10_r2_network.client[18] 	hdistance[18] 	2.6248036378669
scalar tree_4_3_u10_r2_network.client[18] 	downloads[18] 	12095
scalar tree_4_3_u10_r2_network.client[18] 	avg_time[18] 	0.004225133732
scalar tree_4_3_u10_r2_network.client[19] 	hdistance[19] 	2.6598190886804
scalar tree_4_3_u10_r2_network.client[19] 	downloads[19] 	11829
scalar tree_4_3_u10_r2_network.client[19] 	avg_time[19] 	0.004274914633
scalar tree_4_3_u10_r2_network.client[20] 	hdistance[20] 	2.6484574740072
scalar tree_4_3_u10_r2_network.client[20] 	downloads[20] 	11734
scalar tree_4_3_u10_r2_network.client[20] 	avg_time[20] 	0.00425540222
scalar tree_4_3_u10_r2_network.client[21] 	hdistance[21] 	2.7304994154
scalar tree_4_3_u10_r2_network.client[21] 	downloads[21] 	11974
scalar tree_4_3_u10_r2_network.client[21] 	avg_time[21] 	0.004404855057
scalar tree_4_3_u10_r2_network.client[22] 	hdistance[22] 	2.7327881164984
scalar tree_4_3_u10_r2_network.client[22] 	downloads[22] 	11983
scalar tree_4_3_u10_r2_network.client[22] 	avg_time[22] 	0.004430607306
scalar tree_4_3_u10_r2_network.client[23] 	hdistance[23] 	2.6566169734322
scalar tree_4_3_u10_r2_network.client[23] 	downloads[23] 	12007
scalar tree_4_3_u10_r2_network.client[23] 	avg_time[23] 	0.00426517564
scalar tree_4_3_u10_r2_network.client[24] 	hdistance[24] 	2.647053935012
scalar tree_4_3_u10_r2_network.client[24] 	downloads[24] 	12033
scalar tree_4_3_u10_r2_network.client[24] 	avg_time[24] 	0.0042407894
scalar tree_4_3_u10_r2_network.client[25] 	hdistance[25] 	2.6483461409957
scalar tree_4_3_u10_r2_network.client[25] 	downloads[25] 	11972
scalar tree_4_3_u10_r2_network.client[25] 	avg_time[25] 	0.004252419359
scalar tree_4_3_u10_r2_network.client[26] 	hdistance[26] 	2.7316103379722
scalar tree_4_3_u10_r2_network.client[26] 	downloads[26] 	12072
scalar tree_4_3_u10_r2_network.client[26] 	avg_time[26] 	0.004366630507
scalar tree_4_3_u10_r2_network.client[27] 	hdistance[27] 	2.6192540487486
scalar tree_4_3_u10_r2_network.client[27] 	downloads[27] 	12226
scalar tree_4_3_u10_r2_network.client[27] 	avg_time[27] 	0.004205297138
scalar tree_4_3_u10_r2_network.client[28] 	hdistance[28] 	2.6155136268344
scalar tree_4_3_u10_r2_network.client[28] 	downloads[28] 	11925
scalar tree_4_3_u10_r2_network.client[28] 	avg_time[28] 	0.004198009003
scalar tree_4_3_u10_r2_network.client[29] 	hdistance[29] 	2.6209428452232
scalar tree_4_3_u10_r2_network.client[29] 	downloads[29] 	11985
scalar tree_4_3_u10_r2_network.client[29] 	avg_time[29] 	0.004195241073
scalar tree_4_3_u10_r2_network.client[30] 	hdistance[30] 	2.7039124668435
scalar tree_4_3_u10_r2_network.client[30] 	downloads[30] 	12064
scalar tree_4_3_u10_r2_network.client[30] 	avg_time[30] 	0.004363557999
scalar tree_4_3_u10_r2_network.client[31] 	hdistance[31] 	2.707676578342
scalar tree_4_3_u10_r2_network.client[31] 	downloads[31] 	11737
scalar tree_4_3_u10_r2_network.client[31] 	avg_time[31] 	0.004388000806
scalar tree_4_3_u10_r2_network.client[32] 	hdistance[32] 	2.6011963290724
scalar tree_4_3_u10_r2_network.client[32] 	downloads[32] 	12204
scalar tree_4_3_u10_r2_network.client[32] 	avg_time[32] 	0.004181412857
scalar tree_4_3_u10_r2_network.client[33] 	hdistance[33] 	2.6235605997846
scalar tree_4_3_u10_r2_network.client[33] 	downloads[33] 	12071
scalar tree_4_3_u10_r2_network.client[33] 	avg_time[33] 	0.004213732368
scalar tree_4_3_u10_r2_network.client[34] 	hdistance[34] 	2.6236763732627
scalar tree_4_3_u10_r2_network.client[34] 	downloads[34] 	12088
scalar tree_4_3_u10_r2_network.client[34] 	avg_time[34] 	0.00421421642
scalar tree_4_3_u10_r2_network.client[35] 	hdistance[35] 	2.70216139531
scalar tree_4_3_u10_r2_network.client[35] 	downloads[35] 	11983
scalar tree_4_3_u10_r2_network.client[35] 	avg_time[35] 	0.004370355011
scalar tree_4_3_u10_r2_network.client[36] 	hdistance[36] 	2.6169894439365
scalar tree_4_3_u10_r2_network.client[36] 	downloads[36] 	12031
scalar tree_4_3_u10_r2_network.client[36] 	avg_time[36] 	0.004184852751
scalar tree_4_3_u10_r2_network.client[37] 	hdistance[37] 	2.6512520868114
scalar tree_4_3_u10_r2_network.client[37] 	downloads[37] 	11980
scalar tree_4_3_u10_r2_network.client[37] 	avg_time[37] 	0.004263603046
scalar tree_4_3_u10_r2_network.client[38] 	hdistance[38] 	2.6143248402357
scalar tree_4_3_u10_r2_network.client[38] 	downloads[38] 	12049
scalar tree_4_3_u10_r2_network.client[38] 	avg_time[38] 	0.004197357756
scalar tree_4_3_u10_r2_network.client[39] 	hdistance[39] 	2.770580754557
scalar tree_4_3_u10_r2_network.client[39] 	downloads[39] 	11795
scalar tree_4_3_u10_r2_network.client[39] 	avg_time[39] 	0.0044266185
