version 2
run General-200-20160819-06:07:16-14109
attr a 0.9
attr cd fix0.01
attr configname General
attr cr lru
attr datetime 20160819-06:07:16
attr experiment General
attr fsize 1
attr inifile hw5115/scenario_A/NRR-FIX0.01.ini
attr iterationvars "$name=tree_4_3, $un=10, $rep=1, $cd=fix0.01, $cr=lru, $fsize=1, $a=0.9, $sl=nrr, $ttl=1000, $variance=0.05"
attr iterationvars2 "$name=tree_4_3, $un=10, $rep=1, $cd=fix0.01, $cr=lru, $fsize=1, $a=0.9, $sl=nrr, $ttl=1000, $variance=0.05, $repetition=0"
attr measurement "$name=tree_4_3, $un=10, $rep=1, $cd=fix0.01, $cr=lru, $fsize=1, $a=0.9, $sl=nrr, $ttl=1000, $variance=0.05"
attr name tree_4_3
attr network networks.${name}_u${un}_r${rep}_network
attr processid 14109
attr rep 1
attr repetition 0
attr replication #0
attr resultdir results
attr runnumber 200
attr seedset 1
attr sl nrr
attr ttl 1000
attr un 10
attr variance 0.05

scalar . 	a 	0.9
scalar . 	fsize 	1
scalar . 	rep 	1
scalar . 	ttl 	1000
scalar . 	un 	10
scalar . 	variance 	0.05
scalar tree_4_3_u10_r1_network.content_distribution 	repo-0 	0
scalar tree_4_3_u10_r1_network.content_distribution 	client-0 	13
scalar tree_4_3_u10_r1_network.content_distribution 	client-1 	14
scalar tree_4_3_u10_r1_network.content_distribution 	client-2 	15
scalar tree_4_3_u10_r1_network.content_distribution 	client-3 	16
scalar tree_4_3_u10_r1_network.content_distribution 	client-4 	17
scalar tree_4_3_u10_r1_network.content_distribution 	client-5 	18
scalar tree_4_3_u10_r1_network.content_distribution 	client-6 	19
scalar tree_4_3_u10_r1_network.content_distribution 	client-7 	20
scalar tree_4_3_u10_r1_network.content_distribution 	client-8 	21
scalar tree_4_3_u10_r1_network.content_distribution 	client-9 	22
scalar tree_4_3_u10_r1_network.content_distribution 	client-10 	23
scalar tree_4_3_u10_r1_network.content_distribution 	client-11 	24
scalar tree_4_3_u10_r1_network.content_distribution 	client-12 	25
scalar tree_4_3_u10_r1_network.content_distribution 	client-13 	26
scalar tree_4_3_u10_r1_network.content_distribution 	client-14 	27
scalar tree_4_3_u10_r1_network.content_distribution 	client-15 	28
scalar tree_4_3_u10_r1_network.content_distribution 	client-16 	29
scalar tree_4_3_u10_r1_network.content_distribution 	client-17 	30
scalar tree_4_3_u10_r1_network.content_distribution 	client-18 	31
scalar tree_4_3_u10_r1_network.content_distribution 	client-19 	32
scalar tree_4_3_u10_r1_network.content_distribution 	client-20 	33
scalar tree_4_3_u10_r1_network.content_distribution 	client-21 	34
scalar tree_4_3_u10_r1_network.content_distribution 	client-22 	35
scalar tree_4_3_u10_r1_network.content_distribution 	client-23 	36
scalar tree_4_3_u10_r1_network.content_distribution 	client-24 	37
scalar tree_4_3_u10_r1_network.content_distribution 	client-25 	38
scalar tree_4_3_u10_r1_network.content_distribution 	client-26 	39
scalar tree_4_3_u10_r1_network.content_distribution 	repo-0_card 	100000
scalar tree_4_3_u10_r1_network.content_distribution 	repo-0_price 	0
scalar tree_4_3_u10_r1_network.statistics 	stabilization_time 	1661
scalar tree_4_3_u10_r1_network.statistics 	p_hit 	0.24482854873935
scalar tree_4_3_u10_r1_network.statistics 	interests 	25466.625
scalar tree_4_3_u10_r1_network.statistics 	data 	17384.325
scalar tree_4_3_u10_r1_network.statistics 	hdistance 	2.6771998840313
scalar tree_4_3_u10_r1_network.statistics 	avg_time 	0.004301807966
scalar tree_4_3_u10_r1_network.statistics 	downloads 	323295
scalar tree_4_3_u10_r1_network.statistics 	total_cost 	0
scalar tree_4_3_u10_r1_network.statistics 	total_replicas 	100000
scalar tree_4_3_u10_r1_network.statistics 	inner_hit 	0.4737314217665
scalar tree_4_3_u10_r1_network.node[0].core_layer 	interests[0] 	171060
scalar tree_4_3_u10_r1_network.node[0].core_layer 	repo_load[0] 	170140
scalar tree_4_3_u10_r1_network.node[0].core_layer 	data[0] 	0
scalar tree_4_3_u10_r1_network.node[0].core_layer 	repo_int[0] 	170140
scalar tree_4_3_u10_r1_network.node[0].content_store 	p_hit[0] 	0.0053782298608675
scalar tree_4_3_u10_r1_network.node[0].content_store 	hits[0] 	920
scalar tree_4_3_u10_r1_network.node[0].content_store 	misses[0] 	170140
scalar tree_4_3_u10_r1_network.node[0].content_store 	decision_yes[0] 	1730
scalar tree_4_3_u10_r1_network.node[0].content_store 	decision_no[0] 	168410
scalar tree_4_3_u10_r1_network.node[0].content_store 	decision_ratio[0] 	0.010168096861408
scalar tree_4_3_u10_r1_network.node[1].core_layer 	interests[1] 	133842
scalar tree_4_3_u10_r1_network.node[1].core_layer 	data[1] 	132221
scalar tree_4_3_u10_r1_network.node[1].content_store 	p_hit[1] 	0.012073937926809
scalar tree_4_3_u10_r1_network.node[1].content_store 	hits[1] 	1616
scalar tree_4_3_u10_r1_network.node[1].content_store 	misses[1] 	132226
scalar tree_4_3_u10_r1_network.node[1].content_store 	decision_yes[1] 	1333
scalar tree_4_3_u10_r1_network.node[1].content_store 	decision_no[1] 	130887
scalar tree_4_3_u10_r1_network.node[1].content_store 	decision_ratio[1] 	0.010081682045076
scalar tree_4_3_u10_r1_network.node[2].core_layer 	interests[2] 	55800
scalar tree_4_3_u10_r1_network.node[2].core_layer 	data[2] 	52961
scalar tree_4_3_u10_r1_network.node[2].content_store 	p_hit[2] 	0.050878136200717
scalar tree_4_3_u10_r1_network.node[2].content_store 	hits[2] 	2839
scalar tree_4_3_u10_r1_network.node[2].content_store 	misses[2] 	52961
scalar tree_4_3_u10_r1_network.node[2].content_store 	decision_yes[2] 	533
scalar tree_4_3_u10_r1_network.node[2].content_store 	decision_no[2] 	52428
scalar tree_4_3_u10_r1_network.node[2].content_store 	decision_ratio[2] 	0.010064009365382
scalar tree_4_3_u10_r1_network.node[3].core_layer 	interests[3] 	16831
scalar tree_4_3_u10_r1_network.node[3].core_layer 	data[3] 	12797
scalar tree_4_3_u10_r1_network.node[3].content_store 	p_hit[3] 	0.23967678688135
scalar tree_4_3_u10_r1_network.node[3].content_store 	hits[3] 	4034
scalar tree_4_3_u10_r1_network.node[3].content_store 	misses[3] 	12797
scalar tree_4_3_u10_r1_network.node[3].content_store 	decision_yes[3] 	132
scalar tree_4_3_u10_r1_network.node[3].content_store 	decision_no[3] 	12665
scalar tree_4_3_u10_r1_network.node[3].content_store 	decision_ratio[3] 	0.010314917558803
scalar tree_4_3_u10_r1_network.node[4].core_layer 	interests[4] 	43234
scalar tree_4_3_u10_r1_network.node[4].core_layer 	data[4] 	40091
scalar tree_4_3_u10_r1_network.node[4].content_store 	p_hit[4] 	0.072674284128232
scalar tree_4_3_u10_r1_network.node[4].content_store 	hits[4] 	3142
scalar tree_4_3_u10_r1_network.node[4].content_store 	misses[4] 	40092
scalar tree_4_3_u10_r1_network.node[4].content_store 	decision_yes[4] 	419
scalar tree_4_3_u10_r1_network.node[4].content_store 	decision_no[4] 	39672
scalar tree_4_3_u10_r1_network.node[4].content_store 	decision_ratio[4] 	0.010451223466613
scalar tree_4_3_u10_r1_network.node[5].core_layer 	interests[5] 	32440
scalar tree_4_3_u10_r1_network.node[5].core_layer 	data[5] 	28258
scalar tree_4_3_u10_r1_network.node[5].content_store 	p_hit[5] 	0.12891491985203
scalar tree_4_3_u10_r1_network.node[5].content_store 	hits[5] 	4182
scalar tree_4_3_u10_r1_network.node[5].content_store 	misses[5] 	28258
scalar tree_4_3_u10_r1_network.node[5].content_store 	decision_yes[5] 	268
scalar tree_4_3_u10_r1_network.node[5].content_store 	decision_no[5] 	27990
scalar tree_4_3_u10_r1_network.node[5].content_store 	decision_ratio[5] 	0.0094840399178994
scalar tree_4_3_u10_r1_network.node[6].core_layer 	interests[6] 	17741
scalar tree_4_3_u10_r1_network.node[6].core_layer 	data[6] 	12959
scalar tree_4_3_u10_r1_network.node[6].content_store 	p_hit[6] 	0.26954512147004
scalar tree_4_3_u10_r1_network.node[6].content_store 	hits[6] 	4782
scalar tree_4_3_u10_r1_network.node[6].content_store 	misses[6] 	12959
scalar tree_4_3_u10_r1_network.node[6].content_store 	decision_yes[6] 	133
scalar tree_4_3_u10_r1_network.node[6].content_store 	decision_no[6] 	12826
scalar tree_4_3_u10_r1_network.node[6].content_store 	decision_ratio[6] 	0.010263137587777
scalar tree_4_3_u10_r1_network.node[7].core_layer 	interests[7] 	46755
scalar tree_4_3_u10_r1_network.node[7].core_layer 	data[7] 	43028
scalar tree_4_3_u10_r1_network.node[7].content_store 	p_hit[7] 	0.079734787723238
scalar tree_4_3_u10_r1_network.node[7].content_store 	hits[7] 	3728
scalar tree_4_3_u10_r1_network.node[7].content_store 	misses[7] 	43027
scalar tree_4_3_u10_r1_network.node[7].content_store 	decision_yes[7] 	440
scalar tree_4_3_u10_r1_network.node[7].content_store 	decision_no[7] 	42588
scalar tree_4_3_u10_r1_network.node[7].content_store 	decision_ratio[7] 	0.010225899414335
scalar tree_4_3_u10_r1_network.node[8].core_layer 	interests[8] 	28530
scalar tree_4_3_u10_r1_network.node[8].core_layer 	data[8] 	25197
scalar tree_4_3_u10_r1_network.node[8].content_store 	p_hit[8] 	0.11682439537329
scalar tree_4_3_u10_r1_network.node[8].content_store 	hits[8] 	3333
scalar tree_4_3_u10_r1_network.node[8].content_store 	misses[8] 	25197
scalar tree_4_3_u10_r1_network.node[8].content_store 	decision_yes[8] 	225
scalar tree_4_3_u10_r1_network.node[8].content_store 	decision_no[8] 	24972
scalar tree_4_3_u10_r1_network.node[8].content_store 	decision_ratio[8] 	0.0089296344802953
scalar tree_4_3_u10_r1_network.node[9].core_layer 	interests[9] 	18064
scalar tree_4_3_u10_r1_network.node[9].core_layer 	data[9] 	13153
scalar tree_4_3_u10_r1_network.node[9].content_store 	p_hit[9] 	0.27186669619132
scalar tree_4_3_u10_r1_network.node[9].content_store 	hits[9] 	4911
scalar tree_4_3_u10_r1_network.node[9].content_store 	misses[9] 	13153
scalar tree_4_3_u10_r1_network.node[9].content_store 	decision_yes[9] 	135
scalar tree_4_3_u10_r1_network.node[9].content_store 	decision_no[9] 	13018
scalar tree_4_3_u10_r1_network.node[9].content_store 	decision_ratio[9] 	0.010263818140348
scalar tree_4_3_u10_r1_network.node[10].core_layer 	interests[10] 	47027
scalar tree_4_3_u10_r1_network.node[10].core_layer 	data[10] 	43103
scalar tree_4_3_u10_r1_network.node[10].content_store 	p_hit[10] 	0.083462691645225
scalar tree_4_3_u10_r1_network.node[10].content_store 	hits[10] 	3925
scalar tree_4_3_u10_r1_network.node[10].content_store 	misses[10] 	43102
scalar tree_4_3_u10_r1_network.node[10].content_store 	decision_yes[10] 	453
scalar tree_4_3_u10_r1_network.node[10].content_store 	decision_no[10] 	42650
scalar tree_4_3_u10_r1_network.node[10].content_store 	decision_ratio[10] 	0.010509709300977
scalar tree_4_3_u10_r1_network.node[11].core_layer 	interests[11] 	31815
scalar tree_4_3_u10_r1_network.node[11].core_layer 	data[11] 	28119
scalar tree_4_3_u10_r1_network.node[11].content_store 	p_hit[11] 	0.11620304887632
scalar tree_4_3_u10_r1_network.node[11].content_store 	hits[11] 	3697
scalar tree_4_3_u10_r1_network.node[11].content_store 	misses[11] 	28118
scalar tree_4_3_u10_r1_network.node[11].content_store 	decision_yes[11] 	262
scalar tree_4_3_u10_r1_network.node[11].content_store 	decision_no[11] 	27857
scalar tree_4_3_u10_r1_network.node[11].content_store 	decision_ratio[11] 	0.0093175432981258
scalar tree_4_3_u10_r1_network.node[12].core_layer 	interests[12] 	14240
scalar tree_4_3_u10_r1_network.node[12].core_layer 	data[12] 	10556
scalar tree_4_3_u10_r1_network.node[12].content_store 	p_hit[12] 	0.25870786516854
scalar tree_4_3_u10_r1_network.node[12].content_store 	hits[12] 	3684
scalar tree_4_3_u10_r1_network.node[12].content_store 	misses[12] 	10556
scalar tree_4_3_u10_r1_network.node[12].content_store 	decision_yes[12] 	115
scalar tree_4_3_u10_r1_network.node[12].content_store 	decision_no[12] 	10441
scalar tree_4_3_u10_r1_network.node[12].content_store 	decision_ratio[12] 	0.010894278135657
scalar tree_4_3_u10_r1_network.node[13].core_layer 	interests[13] 	12867
scalar tree_4_3_u10_r1_network.node[13].core_layer 	data[13] 	9480
scalar tree_4_3_u10_r1_network.node[13].content_store 	p_hit[13] 	0.26323152249942
scalar tree_4_3_u10_r1_network.node[13].content_store 	hits[13] 	3387
scalar tree_4_3_u10_r1_network.node[13].content_store 	misses[13] 	9480
scalar tree_4_3_u10_r1_network.node[13].content_store 	decision_yes[13] 	98
scalar tree_4_3_u10_r1_network.node[13].content_store 	decision_no[13] 	9382
scalar tree_4_3_u10_r1_network.node[13].content_store 	decision_ratio[13] 	0.010337552742616
scalar tree_4_3_u10_r1_network.node[14].core_layer 	interests[14] 	13538
scalar tree_4_3_u10_r1_network.node[14].core_layer 	data[14] 	9293
scalar tree_4_3_u10_r1_network.node[14].content_store 	p_hit[14] 	0.31348795981681
scalar tree_4_3_u10_r1_network.node[14].content_store 	hits[14] 	4244
scalar tree_4_3_u10_r1_network.node[14].content_store 	misses[14] 	9294
scalar tree_4_3_u10_r1_network.node[14].content_store 	decision_yes[14] 	89
scalar tree_4_3_u10_r1_network.node[14].content_store 	decision_no[14] 	9204
scalar tree_4_3_u10_r1_network.node[14].content_store 	decision_ratio[14] 	0.0095771010437964
scalar tree_4_3_u10_r1_network.node[15].core_layer 	interests[15] 	13779
scalar tree_4_3_u10_r1_network.node[15].core_layer 	data[15] 	9512
scalar tree_4_3_u10_r1_network.node[15].content_store 	p_hit[15] 	0.30960156760287
scalar tree_4_3_u10_r1_network.node[15].content_store 	hits[15] 	4266
scalar tree_4_3_u10_r1_network.node[15].content_store 	misses[15] 	9513
scalar tree_4_3_u10_r1_network.node[15].content_store 	decision_yes[15] 	115
scalar tree_4_3_u10_r1_network.node[15].content_store 	decision_no[15] 	9397
scalar tree_4_3_u10_r1_network.node[15].content_store 	decision_ratio[15] 	0.012089991589571
scalar tree_4_3_u10_r1_network.node[16].core_layer 	interests[16] 	13432
scalar tree_4_3_u10_r1_network.node[16].core_layer 	data[16] 	9163
scalar tree_4_3_u10_r1_network.node[16].content_store 	p_hit[16] 	0.31782310899345
scalar tree_4_3_u10_r1_network.node[16].content_store 	hits[16] 	4269
scalar tree_4_3_u10_r1_network.node[16].content_store 	misses[16] 	9163
scalar tree_4_3_u10_r1_network.node[16].content_store 	decision_yes[16] 	89
scalar tree_4_3_u10_r1_network.node[16].content_store 	decision_no[16] 	9074
scalar tree_4_3_u10_r1_network.node[16].content_store 	decision_ratio[16] 	0.0097129760995307
scalar tree_4_3_u10_r1_network.node[17].core_layer 	interests[17] 	13050
scalar tree_4_3_u10_r1_network.node[17].core_layer 	data[17] 	9450
scalar tree_4_3_u10_r1_network.node[17].content_store 	p_hit[17] 	0.27593869731801
scalar tree_4_3_u10_r1_network.node[17].content_store 	hits[17] 	3601
scalar tree_4_3_u10_r1_network.node[17].content_store 	misses[17] 	9449
scalar tree_4_3_u10_r1_network.node[17].content_store 	decision_yes[17] 	107
scalar tree_4_3_u10_r1_network.node[17].content_store 	decision_no[17] 	9343
scalar tree_4_3_u10_r1_network.node[17].content_store 	decision_ratio[17] 	0.011322751322751
scalar tree_4_3_u10_r1_network.node[18].core_layer 	interests[18] 	13638
scalar tree_4_3_u10_r1_network.node[18].core_layer 	data[18] 	9605
scalar tree_4_3_u10_r1_network.node[18].content_store 	p_hit[18] 	0.29571784719167
scalar tree_4_3_u10_r1_network.node[18].content_store 	hits[18] 	4033
scalar tree_4_3_u10_r1_network.node[18].content_store 	misses[18] 	9605
scalar tree_4_3_u10_r1_network.node[18].content_store 	decision_yes[18] 	91
scalar tree_4_3_u10_r1_network.node[18].content_store 	decision_no[18] 	9514
scalar tree_4_3_u10_r1_network.node[18].content_store 	decision_ratio[18] 	0.0094742321707444
scalar tree_4_3_u10_r1_network.node[19].core_layer 	interests[19] 	13558
scalar tree_4_3_u10_r1_network.node[19].core_layer 	data[19] 	9213
scalar tree_4_3_u10_r1_network.node[19].content_store 	p_hit[19] 	0.32047499631214
scalar tree_4_3_u10_r1_network.node[19].content_store 	hits[19] 	4345
scalar tree_4_3_u10_r1_network.node[19].content_store 	misses[19] 	9213
scalar tree_4_3_u10_r1_network.node[19].content_store 	decision_yes[19] 	94
scalar tree_4_3_u10_r1_network.node[19].content_store 	decision_no[19] 	9119
scalar tree_4_3_u10_r1_network.node[19].content_store 	decision_ratio[19] 	0.010202974058396
scalar tree_4_3_u10_r1_network.node[20].core_layer 	interests[20] 	13686
scalar tree_4_3_u10_r1_network.node[20].core_layer 	data[20] 	9430
scalar tree_4_3_u10_r1_network.node[20].content_store 	p_hit[20] 	0.31090165132252
scalar tree_4_3_u10_r1_network.node[20].content_store 	hits[20] 	4255
scalar tree_4_3_u10_r1_network.node[20].content_store 	misses[20] 	9431
scalar tree_4_3_u10_r1_network.node[20].content_store 	decision_yes[20] 	87
scalar tree_4_3_u10_r1_network.node[20].content_store 	decision_no[20] 	9343
scalar tree_4_3_u10_r1_network.node[20].content_store 	decision_ratio[20] 	0.0092258748674443
scalar tree_4_3_u10_r1_network.node[21].core_layer 	interests[21] 	13212
scalar tree_4_3_u10_r1_network.node[21].core_layer 	data[21] 	9344
scalar tree_4_3_u10_r1_network.node[21].content_store 	p_hit[21] 	0.29276415379958
scalar tree_4_3_u10_r1_network.node[21].content_store 	hits[21] 	3868
scalar tree_4_3_u10_r1_network.node[21].content_store 	misses[21] 	9344
scalar tree_4_3_u10_r1_network.node[21].content_store 	decision_yes[21] 	99
scalar tree_4_3_u10_r1_network.node[21].content_store 	decision_no[21] 	9245
scalar tree_4_3_u10_r1_network.node[21].content_store 	decision_ratio[21] 	0.010595034246575
scalar tree_4_3_u10_r1_network.node[22].core_layer 	interests[22] 	13046
scalar tree_4_3_u10_r1_network.node[22].core_layer 	data[22] 	9337
scalar tree_4_3_u10_r1_network.node[22].content_store 	p_hit[22] 	0.28430170167101
scalar tree_4_3_u10_r1_network.node[22].content_store 	hits[22] 	3709
scalar tree_4_3_u10_r1_network.node[22].content_store 	misses[22] 	9337
scalar tree_4_3_u10_r1_network.node[22].content_store 	decision_yes[22] 	97
scalar tree_4_3_u10_r1_network.node[22].content_store 	decision_no[22] 	9240
scalar tree_4_3_u10_r1_network.node[22].content_store 	decision_ratio[22] 	0.010388775838064
scalar tree_4_3_u10_r1_network.node[23].core_layer 	interests[23] 	13629
scalar tree_4_3_u10_r1_network.node[23].core_layer 	data[23] 	9292
scalar tree_4_3_u10_r1_network.node[23].content_store 	p_hit[23] 	0.31829187761391
scalar tree_4_3_u10_r1_network.node[23].content_store 	hits[23] 	4338
scalar tree_4_3_u10_r1_network.node[23].content_store 	misses[23] 	9291
scalar tree_4_3_u10_r1_network.node[23].content_store 	decision_yes[23] 	92
scalar tree_4_3_u10_r1_network.node[23].content_store 	decision_no[23] 	9200
scalar tree_4_3_u10_r1_network.node[23].content_store 	decision_ratio[23] 	0.0099009900990099
scalar tree_4_3_u10_r1_network.node[24].core_layer 	interests[24] 	13413
scalar tree_4_3_u10_r1_network.node[24].core_layer 	data[24] 	9376
scalar tree_4_3_u10_r1_network.node[24].content_store 	p_hit[24] 	0.30097666443003
scalar tree_4_3_u10_r1_network.node[24].content_store 	hits[24] 	4037
scalar tree_4_3_u10_r1_network.node[24].content_store 	misses[24] 	9376
scalar tree_4_3_u10_r1_network.node[24].content_store 	decision_yes[24] 	93
scalar tree_4_3_u10_r1_network.node[24].content_store 	decision_no[24] 	9283
scalar tree_4_3_u10_r1_network.node[24].content_store 	decision_ratio[24] 	0.0099189419795222
scalar tree_4_3_u10_r1_network.node[25].core_layer 	interests[25] 	13400
scalar tree_4_3_u10_r1_network.node[25].core_layer 	data[25] 	9443
scalar tree_4_3_u10_r1_network.node[25].content_store 	p_hit[25] 	0.29529850746269
scalar tree_4_3_u10_r1_network.node[25].content_store 	hits[25] 	3957
scalar tree_4_3_u10_r1_network.node[25].content_store 	misses[25] 	9443
scalar tree_4_3_u10_r1_network.node[25].content_store 	decision_yes[25] 	89
scalar tree_4_3_u10_r1_network.node[25].content_store 	decision_no[25] 	9354
scalar tree_4_3_u10_r1_network.node[25].content_store 	decision_ratio[25] 	0.009424970877899
scalar tree_4_3_u10_r1_network.node[26].core_layer 	interests[26] 	12675
scalar tree_4_3_u10_r1_network.node[26].core_layer 	data[26] 	9229
scalar tree_4_3_u10_r1_network.node[26].content_store 	p_hit[26] 	0.27187376725838
scalar tree_4_3_u10_r1_network.node[26].content_store 	hits[26] 	3446
scalar tree_4_3_u10_r1_network.node[26].content_store 	misses[26] 	9229
scalar tree_4_3_u10_r1_network.node[26].content_store 	decision_yes[26] 	87
scalar tree_4_3_u10_r1_network.node[26].content_store 	decision_no[26] 	9142
scalar tree_4_3_u10_r1_network.node[26].content_store 	decision_ratio[26] 	0.0094268068046376
scalar tree_4_3_u10_r1_network.node[27].core_layer 	interests[27] 	13699
scalar tree_4_3_u10_r1_network.node[27].core_layer 	data[27] 	9551
scalar tree_4_3_u10_r1_network.node[27].content_store 	p_hit[27] 	0.30279582451274
scalar tree_4_3_u10_r1_network.node[27].content_store 	hits[27] 	4148
scalar tree_4_3_u10_r1_network.node[27].content_store 	misses[27] 	9551
scalar tree_4_3_u10_r1_network.node[27].content_store 	decision_yes[27] 	89
scalar tree_4_3_u10_r1_network.node[27].content_store 	decision_no[27] 	9462
scalar tree_4_3_u10_r1_network.node[27].content_store 	decision_ratio[27] 	0.0093183959794786
scalar tree_4_3_u10_r1_network.node[28].core_layer 	interests[28] 	13578
scalar tree_4_3_u10_r1_network.node[28].core_layer 	data[28] 	9244
scalar tree_4_3_u10_r1_network.node[28].content_store 	p_hit[28] 	0.31919281190161
scalar tree_4_3_u10_r1_network.node[28].content_store 	hits[28] 	4334
scalar tree_4_3_u10_r1_network.node[28].content_store 	misses[28] 	9244
scalar tree_4_3_u10_r1_network.node[28].content_store 	decision_yes[28] 	98
scalar tree_4_3_u10_r1_network.node[28].content_store 	decision_no[28] 	9146
scalar tree_4_3_u10_r1_network.node[28].content_store 	decision_ratio[28] 	0.010601471224578
scalar tree_4_3_u10_r1_network.node[29].core_layer 	interests[29] 	13482
scalar tree_4_3_u10_r1_network.node[29].core_layer 	data[29] 	9228
scalar tree_4_3_u10_r1_network.node[29].content_store 	p_hit[29] 	0.31553182020472
scalar tree_4_3_u10_r1_network.node[29].content_store 	hits[29] 	4254
scalar tree_4_3_u10_r1_network.node[29].content_store 	misses[29] 	9228
scalar tree_4_3_u10_r1_network.node[29].content_store 	decision_yes[29] 	101
scalar tree_4_3_u10_r1_network.node[29].content_store 	decision_no[29] 	9127
scalar tree_4_3_u10_r1_network.node[29].content_store 	decision_ratio[29] 	0.010944950151712
scalar tree_4_3_u10_r1_network.node[30].core_layer 	interests[30] 	13006
scalar tree_4_3_u10_r1_network.node[30].core_layer 	data[30] 	9389
scalar tree_4_3_u10_r1_network.node[30].content_store 	p_hit[30] 	0.27802552667999
scalar tree_4_3_u10_r1_network.node[30].content_store 	hits[30] 	3616
scalar tree_4_3_u10_r1_network.node[30].content_store 	misses[30] 	9390
scalar tree_4_3_u10_r1_network.node[30].content_store 	decision_yes[30] 	91
scalar tree_4_3_u10_r1_network.node[30].content_store 	decision_no[30] 	9298
scalar tree_4_3_u10_r1_network.node[30].content_store 	decision_ratio[30] 	0.0096921929917989
scalar tree_4_3_u10_r1_network.node[31].core_layer 	interests[31] 	13126
scalar tree_4_3_u10_r1_network.node[31].core_layer 	data[31] 	9479
scalar tree_4_3_u10_r1_network.node[31].content_store 	p_hit[31] 	0.27784549748591
scalar tree_4_3_u10_r1_network.node[31].content_store 	hits[31] 	3647
scalar tree_4_3_u10_r1_network.node[31].content_store 	misses[31] 	9479
scalar tree_4_3_u10_r1_network.node[31].content_store 	decision_yes[31] 	86
scalar tree_4_3_u10_r1_network.node[31].content_store 	decision_no[31] 	9393
scalar tree_4_3_u10_r1_network.node[31].content_store 	decision_ratio[31] 	0.0090726869922988
scalar tree_4_3_u10_r1_network.node[32].core_layer 	interests[32] 	13767
scalar tree_4_3_u10_r1_network.node[32].core_layer 	data[32] 	9262
scalar tree_4_3_u10_r1_network.node[32].content_store 	p_hit[32] 	0.3272317861553
scalar tree_4_3_u10_r1_network.node[32].content_store 	hits[32] 	4505
scalar tree_4_3_u10_r1_network.node[32].content_store 	misses[32] 	9262
scalar tree_4_3_u10_r1_network.node[32].content_store 	decision_yes[32] 	109
scalar tree_4_3_u10_r1_network.node[32].content_store 	decision_no[32] 	9153
scalar tree_4_3_u10_r1_network.node[32].content_store 	decision_ratio[32] 	0.01176851651911
scalar tree_4_3_u10_r1_network.node[33].core_layer 	interests[33] 	13399
scalar tree_4_3_u10_r1_network.node[33].core_layer 	data[33] 	9378
scalar tree_4_3_u10_r1_network.node[33].content_store 	p_hit[33] 	0.30009702216583
scalar tree_4_3_u10_r1_network.node[33].content_store 	hits[33] 	4021
scalar tree_4_3_u10_r1_network.node[33].content_store 	misses[33] 	9378
scalar tree_4_3_u10_r1_network.node[33].content_store 	decision_yes[33] 	96
scalar tree_4_3_u10_r1_network.node[33].content_store 	decision_no[33] 	9282
scalar tree_4_3_u10_r1_network.node[33].content_store 	decision_ratio[33] 	0.010236724248241
scalar tree_4_3_u10_r1_network.node[34].core_layer 	interests[34] 	13753
scalar tree_4_3_u10_r1_network.node[34].core_layer 	data[34] 	9457
scalar tree_4_3_u10_r1_network.node[34].content_store 	p_hit[34] 	0.31244092198066
scalar tree_4_3_u10_r1_network.node[34].content_store 	hits[34] 	4297
scalar tree_4_3_u10_r1_network.node[34].content_store 	misses[34] 	9456
scalar tree_4_3_u10_r1_network.node[34].content_store 	decision_yes[34] 	98
scalar tree_4_3_u10_r1_network.node[34].content_store 	decision_no[34] 	9359
scalar tree_4_3_u10_r1_network.node[34].content_store 	decision_ratio[34] 	0.010362694300518
scalar tree_4_3_u10_r1_network.node[35].core_layer 	interests[35] 	13056
scalar tree_4_3_u10_r1_network.node[35].core_layer 	data[35] 	9318
scalar tree_4_3_u10_r1_network.node[35].content_store 	p_hit[35] 	0.28630514705882
scalar tree_4_3_u10_r1_network.node[35].content_store 	hits[35] 	3738
scalar tree_4_3_u10_r1_network.node[35].content_store 	misses[35] 	9318
scalar tree_4_3_u10_r1_network.node[35].content_store 	decision_yes[35] 	116
scalar tree_4_3_u10_r1_network.node[35].content_store 	decision_no[35] 	9202
scalar tree_4_3_u10_r1_network.node[35].content_store 	decision_ratio[35] 	0.012449023395578
scalar tree_4_3_u10_r1_network.node[36].core_layer 	interests[36] 	13524
scalar tree_4_3_u10_r1_network.node[36].core_layer 	data[36] 	9309
scalar tree_4_3_u10_r1_network.node[36].content_store 	p_hit[36] 	0.31166814551908
scalar tree_4_3_u10_r1_network.node[36].content_store 	hits[36] 	4215
scalar tree_4_3_u10_r1_network.node[36].content_store 	misses[36] 	9309
scalar tree_4_3_u10_r1_network.node[36].content_store 	decision_yes[36] 	96
scalar tree_4_3_u10_r1_network.node[36].content_store 	decision_no[36] 	9213
scalar tree_4_3_u10_r1_network.node[36].content_store 	decision_ratio[36] 	0.010312600708991
scalar tree_4_3_u10_r1_network.node[37].core_layer 	interests[37] 	13434
scalar tree_4_3_u10_r1_network.node[37].core_layer 	data[37] 	9472
scalar tree_4_3_u10_r1_network.node[37].content_store 	p_hit[37] 	0.29499776686021
scalar tree_4_3_u10_r1_network.node[37].content_store 	hits[37] 	3963
scalar tree_4_3_u10_r1_network.node[37].content_store 	misses[37] 	9471
scalar tree_4_3_u10_r1_network.node[37].content_store 	decision_yes[37] 	87
scalar tree_4_3_u10_r1_network.node[37].content_store 	decision_no[37] 	9385
scalar tree_4_3_u10_r1_network.node[37].content_store 	decision_ratio[37] 	0.0091849662162162
scalar tree_4_3_u10_r1_network.node[38].core_layer 	interests[38] 	13793
scalar tree_4_3_u10_r1_network.node[38].core_layer 	data[38] 	9353
scalar tree_4_3_u10_r1_network.node[38].content_store 	p_hit[38] 	0.32182991372435
scalar tree_4_3_u10_r1_network.node[38].content_store 	hits[38] 	4439
scalar tree_4_3_u10_r1_network.node[38].content_store 	misses[38] 	9354
scalar tree_4_3_u10_r1_network.node[38].content_store 	decision_yes[38] 	101
scalar tree_4_3_u10_r1_network.node[38].content_store 	decision_no[38] 	9252
scalar tree_4_3_u10_r1_network.node[38].content_store 	decision_ratio[38] 	0.010798674222175
scalar tree_4_3_u10_r1_network.node[39].core_layer 	interests[39] 	12746
scalar tree_4_3_u10_r1_network.node[39].core_layer 	data[39] 	9323
scalar tree_4_3_u10_r1_network.node[39].content_store 	p_hit[39] 	0.26855484073435
scalar tree_4_3_u10_r1_network.node[39].content_store 	hits[39] 	3423
scalar tree_4_3_u10_r1_network.node[39].content_store 	misses[39] 	9323
scalar tree_4_3_u10_r1_network.node[39].content_store 	decision_yes[39] 	94
scalar tree_4_3_u10_r1_network.node[39].content_store 	decision_no[39] 	9229
scalar tree_4_3_u10_r1_network.node[39].content_store 	decision_ratio[39] 	0.010082591440523
scalar tree_4_3_u10_r1_network.client[13] 	hdistance[13] 	2.7923528924936
scalar tree_4_3_u10_r1_network.client[13] 	downloads[13] 	12083
scalar tree_4_3_u10_r1_network.client[13] 	avg_time[13] 	0.004451209446
scalar tree_4_3_u10_r1_network.client[14] 	hdistance[14] 	2.6359093937375
scalar tree_4_3_u10_r1_network.client[14] 	downloads[14] 	12008
scalar tree_4_3_u10_r1_network.client[14] 	avg_time[14] 	0.004237953526
scalar tree_4_3_u10_r1_network.client[15] 	hdistance[15] 	2.6623646960866
scalar tree_4_3_u10_r1_network.client[15] 	downloads[15] 	12010
scalar tree_4_3_u10_r1_network.client[15] 	avg_time[15] 	0.004270937897
scalar tree_4_3_u10_r1_network.client[16] 	hdistance[16] 	2.642735768904
scalar tree_4_3_u10_r1_network.client[16] 	downloads[16] 	11770
scalar tree_4_3_u10_r1_network.client[16] 	avg_time[16] 	0.004241628308
scalar tree_4_3_u10_r1_network.client[17] 	hdistance[17] 	2.7368724279835
scalar tree_4_3_u10_r1_network.client[17] 	downloads[17] 	12150
scalar tree_4_3_u10_r1_network.client[17] 	avg_time[17] 	0.004413494901
scalar tree_4_3_u10_r1_network.client[18] 	hdistance[18] 	2.6502483443709
scalar tree_4_3_u10_r1_network.client[18] 	downloads[18] 	12080
scalar tree_4_3_u10_r1_network.client[18] 	avg_time[18] 	0.004256288383
scalar tree_4_3_u10_r1_network.client[19] 	hdistance[19] 	2.624541513838
scalar tree_4_3_u10_r1_network.client[19] 	downloads[19] 	11996
scalar tree_4_3_u10_r1_network.client[19] 	avg_time[19] 	0.004209960577
scalar tree_4_3_u10_r1_network.client[20] 	hdistance[20] 	2.6174580655929
scalar tree_4_3_u10_r1_network.client[20] 	downloads[20] 	11983
scalar tree_4_3_u10_r1_network.client[20] 	avg_time[20] 	0.004209660469
scalar tree_4_3_u10_r1_network.client[21] 	hdistance[21] 	2.6864002631146
scalar tree_4_3_u10_r1_network.client[21] 	downloads[21] 	12162
scalar tree_4_3_u10_r1_network.client[21] 	avg_time[21] 	0.004332076121
scalar tree_4_3_u10_r1_network.client[22] 	hdistance[22] 	2.766155670365
scalar tree_4_3_u10_r1_network.client[22] 	downloads[22] 	11807
scalar tree_4_3_u10_r1_network.client[22] 	avg_time[22] 	0.004474969529
scalar tree_4_3_u10_r1_network.client[23] 	hdistance[23] 	2.6540221279428
scalar tree_4_3_u10_r1_network.client[23] 	downloads[23] 	12021
scalar tree_4_3_u10_r1_network.client[23] 	avg_time[23] 	0.004254551537
scalar tree_4_3_u10_r1_network.client[24] 	hdistance[24] 	2.6566769125683
scalar tree_4_3_u10_r1_network.client[24] 	downloads[24] 	11712
scalar tree_4_3_u10_r1_network.client[24] 	avg_time[24] 	0.00428261318
scalar tree_4_3_u10_r1_network.client[25] 	hdistance[25] 	2.6823983876386
scalar tree_4_3_u10_r1_network.client[25] 	downloads[25] 	11908
scalar tree_4_3_u10_r1_network.client[25] 	avg_time[25] 	0.004305758244
scalar tree_4_3_u10_r1_network.client[26] 	hdistance[26] 	2.7654320987654
scalar tree_4_3_u10_r1_network.client[26] 	downloads[26] 	11826
scalar tree_4_3_u10_r1_network.client[26] 	avg_time[26] 	0.004429728145
scalar tree_4_3_u10_r1_network.client[27] 	hdistance[27] 	2.645057660626
scalar tree_4_3_u10_r1_network.client[27] 	downloads[27] 	12140
scalar tree_4_3_u10_r1_network.client[27] 	avg_time[27] 	0.004243160078
scalar tree_4_3_u10_r1_network.client[28] 	hdistance[28] 	2.6289042714841
scalar tree_4_3_u10_r1_network.client[28] 	downloads[28] 	11846
scalar tree_4_3_u10_r1_network.client[28] 	avg_time[28] 	0.004222350545
scalar tree_4_3_u10_r1_network.client[29] 	hdistance[29] 	2.6400407021114
scalar tree_4_3_u10_r1_network.client[29] 	downloads[29] 	11793
scalar tree_4_3_u10_r1_network.client[29] 	avg_time[29] 	0.004234712559
scalar tree_4_3_u10_r1_network.client[30] 	hdistance[30] 	2.7182992913714
scalar tree_4_3_u10_r1_network.client[30] 	downloads[30] 	11995
scalar tree_4_3_u10_r1_network.client[30] 	avg_time[30] 	0.004389727154
scalar tree_4_3_u10_r1_network.client[31] 	hdistance[31] 	2.7248999332889
scalar tree_4_3_u10_r1_network.client[31] 	downloads[31] 	11992
scalar tree_4_3_u10_r1_network.client[31] 	avg_time[31] 	0.004406934994
scalar tree_4_3_u10_r1_network.client[32] 	hdistance[32] 	2.617169952583
scalar tree_4_3_u10_r1_network.client[32] 	downloads[32] 	12021
scalar tree_4_3_u10_r1_network.client[32] 	avg_time[32] 	0.004202143232
scalar tree_4_3_u10_r1_network.client[33] 	hdistance[33] 	2.686686516376
scalar tree_4_3_u10_r1_network.client[33] 	downloads[33] 	11755
scalar tree_4_3_u10_r1_network.client[33] 	avg_time[33] 	0.004315777536
scalar tree_4_3_u10_r1_network.client[34] 	hdistance[34] 	2.6378103649392
scalar tree_4_3_u10_r1_network.client[34] 	downloads[34] 	12002
scalar tree_4_3_u10_r1_network.client[34] 	avg_time[34] 	0.004247622408
scalar tree_4_3_u10_r1_network.client[35] 	hdistance[35] 	2.7140841563615
scalar tree_4_3_u10_r1_network.client[35] 	downloads[35] 	12049
scalar tree_4_3_u10_r1_network.client[35] 	avg_time[35] 	0.004373969963
scalar tree_4_3_u10_r1_network.client[36] 	hdistance[36] 	2.6508782152668
scalar tree_4_3_u10_r1_network.client[36] 	downloads[36] 	12013
scalar tree_4_3_u10_r1_network.client[36] 	avg_time[36] 	0.004250558901
scalar tree_4_3_u10_r1_network.client[37] 	hdistance[37] 	2.6822842851188
scalar tree_4_3_u10_r1_network.client[37] 	downloads[37] 	11995
scalar tree_4_3_u10_r1_network.client[37] 	avg_time[37] 	0.004309898171
scalar tree_4_3_u10_r1_network.client[38] 	hdistance[38] 	2.6183162217659
scalar tree_4_3_u10_r1_network.client[38] 	downloads[38] 	12175
scalar tree_4_3_u10_r1_network.client[38] 	avg_time[38] 	0.004193895764
scalar tree_4_3_u10_r1_network.client[39] 	hdistance[39] 	2.7463967341498
scalar tree_4_3_u10_r1_network.client[39] 	downloads[39] 	12003
scalar tree_4_3_u10_r1_network.client[39] 	avg_time[39] 	0.004387233534
