version 2
run General-28-20160823-12:55:21-12979
attr D wfc0.05
attr F nrr
attr R lru
attr a 0.7
attr configname General
attr datetime 20160823-12:55:21
attr experiment General
attr inifile hw5115/scenario_B/bus.ini
attr iterationvars "$net=bus, $rep=0, $a=0.7, $F=nrr, $D=wfc0.05, $R=lru, $window=60, $variance=0.05, $mytime=600, $test=test"
attr iterationvars2 "$net=bus, $rep=0, $a=0.7, $F=nrr, $D=wfc0.05, $R=lru, $window=60, $variance=0.05, $mytime=600, $test=test, $repetition=0"
attr measurement "$net=bus, $rep=0, $a=0.7, $F=nrr, $D=wfc0.05, $R=lru, $window=60, $variance=0.05, $mytime=600, $test=test"
attr mytime 600
attr net bus
attr network networks.${net=bus}_network
attr processid 12979
attr rep 0
attr repetition 0
attr replication #0
attr resultdir results
attr runnumber 28
attr seedset 0
attr test test
attr variance 0.05
attr window 60

scalar . 	a 	0.7
scalar . 	mytime 	600
scalar . 	rep 	0
scalar . 	variance 	0.05
scalar . 	window 	60
scalar bus_network.content_distribution 	repo-0 	9
scalar bus_network.content_distribution 	client-0 	5
scalar bus_network.content_distribution 	client-1 	8
scalar bus_network.content_distribution 	client-2 	9
scalar bus_network.content_distribution 	client-3 	0
scalar bus_network.content_distribution 	client-4 	1
scalar bus_network.content_distribution 	client-5 	7
scalar bus_network.content_distribution 	client-6 	6
scalar bus_network.content_distribution 	client-7 	2
scalar bus_network.content_distribution 	client-8 	4
scalar bus_network.content_distribution 	client-9 	3
scalar bus_network.content_distribution 	repo-0_card 	100000
scalar bus_network.content_distribution 	repo-0_price 	0
scalar bus_network.statistics 	stabilization_time 	438.6
scalar bus_network.statistics 	p_hit 	0.03079888170517
scalar bus_network.statistics 	interests 	61307.9
scalar bus_network.statistics 	data 	49356.7
scalar bus_network.statistics 	hdistance 	5.0349891268046
scalar bus_network.statistics 	avg_time 	0.008265218091
scalar bus_network.statistics 	downloads 	119502
scalar bus_network.statistics 	total_cost 	0
scalar bus_network.statistics 	total_replicas 	100000
scalar bus_network.statistics 	inner_hit 	0.097872838948302
scalar bus_network.node[0].core_layer 	interests[0] 	12412
scalar bus_network.node[0].core_layer 	data[0] 	11236
scalar bus_network.node[0].core_layer 	repo_int[0] 	107806
scalar bus_network.node[0].content_store 	p_hit[0] 	0.094666451820819
scalar bus_network.node[0].content_store 	hits[0] 	1175
scalar bus_network.node[0].content_store 	misses[0] 	11237
scalar bus_network.node[0].content_store 	decision_yes[0] 	579
scalar bus_network.node[0].content_store 	decision_no[0] 	10657
scalar bus_network.node[0].content_store 	decision_ratio[0] 	0.051530793876824
scalar bus_network.node[1].core_layer 	interests[1] 	24195
scalar bus_network.node[1].core_layer 	data[1] 	22717
scalar bus_network.node[1].content_store 	p_hit[1] 	0.060963008886133
scalar bus_network.node[1].content_store 	hits[1] 	1475
scalar bus_network.node[1].content_store 	misses[1] 	22720
scalar bus_network.node[1].content_store 	decision_yes[1] 	1170
scalar bus_network.node[1].content_store 	decision_no[1] 	21547
scalar bus_network.node[1].content_store 	decision_ratio[1] 	0.051503279482326
scalar bus_network.node[2].core_layer 	interests[2] 	35151
scalar bus_network.node[2].core_layer 	data[2] 	33766
scalar bus_network.node[2].content_store 	p_hit[2] 	0.03934454211829
scalar bus_network.node[2].content_store 	hits[2] 	1383
scalar bus_network.node[2].content_store 	misses[2] 	33768
scalar bus_network.node[2].content_store 	decision_yes[2] 	1809
scalar bus_network.node[2].content_store 	decision_no[2] 	31957
scalar bus_network.node[2].content_store 	decision_ratio[2] 	0.053574601670319
scalar bus_network.node[3].core_layer 	interests[3] 	46184
scalar bus_network.node[3].core_layer 	data[3] 	44714
scalar bus_network.node[3].content_store 	p_hit[3] 	0.031807552399099
scalar bus_network.node[3].content_store 	hits[3] 	1469
scalar bus_network.node[3].content_store 	misses[3] 	44715
scalar bus_network.node[3].content_store 	decision_yes[3] 	2252
scalar bus_network.node[3].content_store 	decision_no[3] 	42462
scalar bus_network.node[3].content_store 	decision_ratio[3] 	0.050364539070537
scalar bus_network.node[4].core_layer 	interests[4] 	56661
scalar bus_network.node[4].core_layer 	data[4] 	55378
scalar bus_network.node[4].content_store 	p_hit[4] 	0.022537547872434
scalar bus_network.node[4].content_store 	hits[4] 	1277
scalar bus_network.node[4].content_store 	misses[4] 	55384
scalar bus_network.node[4].content_store 	decision_yes[4] 	2858
scalar bus_network.node[4].content_store 	decision_no[4] 	52520
scalar bus_network.node[4].content_store 	decision_ratio[4] 	0.051608942179205
scalar bus_network.node[5].core_layer 	interests[5] 	66918
scalar bus_network.node[5].core_layer 	data[5] 	65771
scalar bus_network.node[5].content_store 	p_hit[5] 	0.017095549777339
scalar bus_network.node[5].content_store 	hits[5] 	1144
scalar bus_network.node[5].content_store 	misses[5] 	65774
scalar bus_network.node[5].content_store 	decision_yes[5] 	3315
scalar bus_network.node[5].content_store 	decision_no[5] 	62456
scalar bus_network.node[5].content_store 	decision_ratio[5] 	0.050402152924541
scalar bus_network.node[6].core_layer 	interests[6] 	77277
scalar bus_network.node[6].core_layer 	data[6] 	76160
scalar bus_network.node[6].content_store 	p_hit[6] 	0.01441567348629
scalar bus_network.node[6].content_store 	hits[6] 	1114
scalar bus_network.node[6].content_store 	misses[6] 	76163
scalar bus_network.node[6].content_store 	decision_yes[6] 	3968
scalar bus_network.node[6].content_store 	decision_no[6] 	72192
scalar bus_network.node[6].content_store 	decision_ratio[6] 	0.052100840336134
scalar bus_network.node[7].core_layer 	interests[7] 	87494
scalar bus_network.node[7].core_layer 	data[7] 	86570
scalar bus_network.node[7].content_store 	p_hit[7] 	0.010537865453631
scalar bus_network.node[7].content_store 	hits[7] 	922
scalar bus_network.node[7].content_store 	misses[7] 	86572
scalar bus_network.node[7].content_store 	decision_yes[7] 	4333
scalar bus_network.node[7].content_store 	decision_no[7] 	82237
scalar bus_network.node[7].content_store 	decision_ratio[7] 	0.050051981055793
scalar bus_network.node[8].core_layer 	interests[8] 	98011
scalar bus_network.node[8].core_layer 	data[8] 	97255
scalar bus_network.node[8].content_store 	p_hit[8] 	0.0077032169858485
scalar bus_network.node[8].content_store 	hits[8] 	755
scalar bus_network.node[8].content_store 	misses[8] 	97256
scalar bus_network.node[8].content_store 	decision_yes[8] 	4804
scalar bus_network.node[8].content_store 	decision_no[8] 	92451
scalar bus_network.node[8].content_store 	decision_ratio[8] 	0.049395917947663
scalar bus_network.node[9].core_layer 	interests[9] 	108776
scalar bus_network.node[9].core_layer 	repo_load[9] 	107806
scalar bus_network.node[9].core_layer 	data[9] 	0
scalar bus_network.node[9].content_store 	p_hit[9] 	0.0089174082518203
scalar bus_network.node[9].content_store 	hits[9] 	970
scalar bus_network.node[9].content_store 	misses[9] 	107806
scalar bus_network.node[9].content_store 	decision_yes[9] 	5815
scalar bus_network.node[9].content_store 	decision_no[9] 	101991
scalar bus_network.node[9].content_store 	decision_ratio[9] 	0.053939483887724
scalar bus_network.client[0] 	hdistance[0] 	9.051992632284
scalar bus_network.client[0] 	downloads[0] 	11944
scalar bus_network.client[0] 	avg_time[0] 	0.016342071449
scalar bus_network.client[1] 	hdistance[1] 	8.118042306097
scalar bus_network.client[1] 	downloads[1] 	12055
scalar bus_network.client[1] 	avg_time[1] 	0.01447612847
scalar bus_network.client[2] 	hdistance[2] 	7.2159139417741
scalar bus_network.client[2] 	downloads[2] 	11713
scalar bus_network.client[2] 	avg_time[2] 	0.012671995112
scalar bus_network.client[3] 	hdistance[3] 	6.339794469045
scalar bus_network.client[3] 	downloads[3] 	11969
scalar bus_network.client[3] 	avg_time[3] 	0.010916085981
scalar bus_network.client[4] 	hdistance[4] 	5.480450685277
scalar bus_network.client[4] 	downloads[4] 	11893
scalar bus_network.client[4] 	avg_time[4] 	0.009192811804
scalar bus_network.client[5] 	hdistance[5] 	4.616795930281
scalar bus_network.client[5] 	downloads[5] 	11991
scalar bus_network.client[5] 	avg_time[5] 	0.007471145512
scalar bus_network.client[6] 	hdistance[6] 	3.763173084852
scalar bus_network.client[6] 	downloads[6] 	12127
scalar bus_network.client[6] 	avg_time[6] 	0.00572259943
scalar bus_network.client[7] 	hdistance[7] 	2.855247691016
scalar bus_network.client[7] 	downloads[7] 	11910
scalar bus_network.client[7] 	avg_time[7] 	0.003876927866
scalar bus_network.client[8] 	hdistance[8] 	1.9295073809919
scalar bus_network.client[8] 	downloads[8] 	12058
scalar bus_network.client[8] 	avg_time[8] 	0.001982415293
scalar bus_network.client[9] 	hdistance[9] 	0.97897314642797
scalar bus_network.client[9] 	downloads[9] 	11842
scalar bus_network.client[9] 	avg_time[9] 	0
