version 2
run General-168-20160902-23:57:32-4279
attr a 0.9
attr cd ffc0.2
attr configname General
attr cr lru
attr datetime 20160902-23:57:32
attr experiment General
attr fsize 1
attr inifile hw5115/scenario_Y/omnetp.ini
attr iterationvars "$name=tree_4_3, $un=08, $rep=9, $cd=ffc0.2, $cr=lru, $fsize=1, $a=0.9, $sl=nrr, $ttl=1000, $variance=0.05"
attr iterationvars2 "$name=tree_4_3, $un=08, $rep=9, $cd=ffc0.2, $cr=lru, $fsize=1, $a=0.9, $sl=nrr, $ttl=1000, $variance=0.05, $repetition=0"
attr measurement "$name=tree_4_3, $un=08, $rep=9, $cd=ffc0.2, $cr=lru, $fsize=1, $a=0.9, $sl=nrr, $ttl=1000, $variance=0.05"
attr name tree_4_3
attr network networks.${name}_u${un}_r${rep}_network
attr processid 4279
attr rep 9
attr repetition 0
attr replication #0
attr resultdir results
attr runnumber 168
attr seedset 9
attr sl nrr
attr ttl 1000
attr un 08
attr variance 0.05

scalar . 	a 	0.9
scalar . 	fsize 	1
scalar . 	rep 	9
scalar . 	ttl 	1000
scalar . 	un 	08
scalar . 	variance 	0.05
scalar tree_4_3_u08_r9_network.content_distribution 	repo-0 	0
scalar tree_4_3_u08_r9_network.content_distribution 	client-0 	13
scalar tree_4_3_u08_r9_network.content_distribution 	client-1 	14
scalar tree_4_3_u08_r9_network.content_distribution 	client-2 	15
scalar tree_4_3_u08_r9_network.content_distribution 	client-3 	16
scalar tree_4_3_u08_r9_network.content_distribution 	client-4 	17
scalar tree_4_3_u08_r9_network.content_distribution 	client-5 	18
scalar tree_4_3_u08_r9_network.content_distribution 	client-6 	19
scalar tree_4_3_u08_r9_network.content_distribution 	client-7 	20
scalar tree_4_3_u08_r9_network.content_distribution 	client-8 	21
scalar tree_4_3_u08_r9_network.content_distribution 	client-9 	22
scalar tree_4_3_u08_r9_network.content_distribution 	client-10 	23
scalar tree_4_3_u08_r9_network.content_distribution 	client-11 	24
scalar tree_4_3_u08_r9_network.content_distribution 	client-12 	25
scalar tree_4_3_u08_r9_network.content_distribution 	client-13 	26
scalar tree_4_3_u08_r9_network.content_distribution 	client-14 	27
scalar tree_4_3_u08_r9_network.content_distribution 	client-15 	28
scalar tree_4_3_u08_r9_network.content_distribution 	client-16 	29
scalar tree_4_3_u08_r9_network.content_distribution 	client-17 	30
scalar tree_4_3_u08_r9_network.content_distribution 	client-18 	31
scalar tree_4_3_u08_r9_network.content_distribution 	client-19 	32
scalar tree_4_3_u08_r9_network.content_distribution 	client-20 	33
scalar tree_4_3_u08_r9_network.content_distribution 	client-21 	34
scalar tree_4_3_u08_r9_network.content_distribution 	client-22 	35
scalar tree_4_3_u08_r9_network.content_distribution 	client-23 	36
scalar tree_4_3_u08_r9_network.content_distribution 	client-24 	37
scalar tree_4_3_u08_r9_network.content_distribution 	client-25 	38
scalar tree_4_3_u08_r9_network.content_distribution 	client-26 	39
scalar tree_4_3_u08_r9_network.content_distribution 	repo-0_card 	100000
scalar tree_4_3_u08_r9_network.content_distribution 	repo-0_price 	0
scalar tree_4_3_u08_r9_network.statistics 	stabilization_time 	2470.9
scalar tree_4_3_u08_r9_network.statistics 	p_hit 	0.24639189291505
scalar tree_4_3_u08_r9_network.statistics 	interests 	24624
scalar tree_4_3_u08_r9_network.statistics 	data 	16503.775
scalar tree_4_3_u08_r9_network.statistics 	hdistance 	2.5845603611173
scalar tree_4_3_u08_r9_network.statistics 	avg_time 	0.004064899565
scalar tree_4_3_u08_r9_network.statistics 	downloads 	324809
scalar tree_4_3_u08_r9_network.statistics 	total_cost 	0
scalar tree_4_3_u08_r9_network.statistics 	total_replicas 	100000
scalar tree_4_3_u08_r9_network.statistics 	inner_hit 	0.44790938674729
scalar tree_4_3_u08_r9_network.node[0].core_layer 	interests[0] 	182427
scalar tree_4_3_u08_r9_network.node[0].core_layer 	repo_load[0] 	179324
scalar tree_4_3_u08_r9_network.node[0].core_layer 	data[0] 	0
scalar tree_4_3_u08_r9_network.node[0].core_layer 	repo_int[0] 	179324
scalar tree_4_3_u08_r9_network.node[0].content_store 	p_hit[0] 	0.017009543543445
scalar tree_4_3_u08_r9_network.node[0].content_store 	hits[0] 	3103
scalar tree_4_3_u08_r9_network.node[0].content_store 	misses[0] 	179324
scalar tree_4_3_u08_r9_network.node[0].content_store 	decision_yes[0] 	152
scalar tree_4_3_u08_r9_network.node[0].content_store 	decision_no[0] 	179172
scalar tree_4_3_u08_r9_network.node[0].content_store 	decision_ratio[0] 	0.00084762775757846
scalar tree_4_3_u08_r9_network.node[1].core_layer 	interests[1] 	100427
scalar tree_4_3_u08_r9_network.node[1].core_layer 	data[1] 	98038
scalar tree_4_3_u08_r9_network.node[1].content_store 	p_hit[1] 	0.023778465950392
scalar tree_4_3_u08_r9_network.node[1].content_store 	hits[1] 	2388
scalar tree_4_3_u08_r9_network.node[1].content_store 	misses[1] 	98039
scalar tree_4_3_u08_r9_network.node[1].content_store 	decision_yes[1] 	85
scalar tree_4_3_u08_r9_network.node[1].content_store 	decision_no[1] 	97953
scalar tree_4_3_u08_r9_network.node[1].content_store 	decision_ratio[1] 	0.00086701075093331
scalar tree_4_3_u08_r9_network.node[2].core_layer 	interests[2] 	92612
scalar tree_4_3_u08_r9_network.node[2].core_layer 	data[2] 	89260
scalar tree_4_3_u08_r9_network.node[2].content_store 	p_hit[2] 	0.036194013734721
scalar tree_4_3_u08_r9_network.node[2].content_store 	hits[2] 	3352
scalar tree_4_3_u08_r9_network.node[2].content_store 	misses[2] 	89260
scalar tree_4_3_u08_r9_network.node[2].content_store 	decision_yes[2] 	107
scalar tree_4_3_u08_r9_network.node[2].content_store 	decision_no[2] 	89153
scalar tree_4_3_u08_r9_network.node[2].content_store 	decision_ratio[2] 	0.0011987452386287
scalar tree_4_3_u08_r9_network.node[3].core_layer 	interests[3] 	13915
scalar tree_4_3_u08_r9_network.node[3].core_layer 	data[3] 	10508
scalar tree_4_3_u08_r9_network.node[3].content_store 	p_hit[3] 	0.24477182896155
scalar tree_4_3_u08_r9_network.node[3].content_store 	hits[3] 	3406
scalar tree_4_3_u08_r9_network.node[3].content_store 	misses[3] 	10509
scalar tree_4_3_u08_r9_network.node[3].content_store 	decision_yes[3] 	71
scalar tree_4_3_u08_r9_network.node[3].content_store 	decision_no[3] 	10437
scalar tree_4_3_u08_r9_network.node[3].content_store 	decision_ratio[3] 	0.0067567567567568
scalar tree_4_3_u08_r9_network.node[4].core_layer 	interests[4] 	41073
scalar tree_4_3_u08_r9_network.node[4].core_layer 	data[4] 	38456
scalar tree_4_3_u08_r9_network.node[4].content_store 	p_hit[4] 	0.063691476152217
scalar tree_4_3_u08_r9_network.node[4].content_store 	hits[4] 	2616
scalar tree_4_3_u08_r9_network.node[4].content_store 	misses[4] 	38457
scalar tree_4_3_u08_r9_network.node[4].content_store 	decision_yes[4] 	40
scalar tree_4_3_u08_r9_network.node[4].content_store 	decision_no[4] 	38416
scalar tree_4_3_u08_r9_network.node[4].content_store 	decision_ratio[4] 	0.0010401497815685
scalar tree_4_3_u08_r9_network.node[5].core_layer 	interests[5] 	30060
scalar tree_4_3_u08_r9_network.node[5].core_layer 	data[5] 	26015
scalar tree_4_3_u08_r9_network.node[5].content_store 	p_hit[5] 	0.13456420492349
scalar tree_4_3_u08_r9_network.node[5].content_store 	hits[5] 	4045
scalar tree_4_3_u08_r9_network.node[5].content_store 	misses[5] 	26015
scalar tree_4_3_u08_r9_network.node[5].content_store 	decision_yes[5] 	57
scalar tree_4_3_u08_r9_network.node[5].content_store 	decision_no[5] 	25958
scalar tree_4_3_u08_r9_network.node[5].content_store 	decision_ratio[5] 	0.0021910436286758
scalar tree_4_3_u08_r9_network.node[6].core_layer 	interests[6] 	13789
scalar tree_4_3_u08_r9_network.node[6].core_layer 	data[6] 	10559
scalar tree_4_3_u08_r9_network.node[6].content_store 	p_hit[6] 	0.23424468779462
scalar tree_4_3_u08_r9_network.node[6].content_store 	hits[6] 	3230
scalar tree_4_3_u08_r9_network.node[6].content_store 	misses[6] 	10559
scalar tree_4_3_u08_r9_network.node[6].content_store 	decision_yes[6] 	64
scalar tree_4_3_u08_r9_network.node[6].content_store 	decision_no[6] 	10495
scalar tree_4_3_u08_r9_network.node[6].content_store 	decision_ratio[6] 	0.0060611800359883
scalar tree_4_3_u08_r9_network.node[7].core_layer 	interests[7] 	34974
scalar tree_4_3_u08_r9_network.node[7].core_layer 	data[7] 	32415
scalar tree_4_3_u08_r9_network.node[7].content_store 	p_hit[7] 	0.073168639560817
scalar tree_4_3_u08_r9_network.node[7].content_store 	hits[7] 	2559
scalar tree_4_3_u08_r9_network.node[7].content_store 	misses[7] 	32415
scalar tree_4_3_u08_r9_network.node[7].content_store 	decision_yes[7] 	57
scalar tree_4_3_u08_r9_network.node[7].content_store 	decision_no[7] 	32358
scalar tree_4_3_u08_r9_network.node[7].content_store 	decision_ratio[7] 	0.0017584451642758
scalar tree_4_3_u08_r9_network.node[8].core_layer 	interests[8] 	35616
scalar tree_4_3_u08_r9_network.node[8].core_layer 	data[8] 	32511
scalar tree_4_3_u08_r9_network.node[8].content_store 	p_hit[8] 	0.087179919137466
scalar tree_4_3_u08_r9_network.node[8].content_store 	hits[8] 	3105
scalar tree_4_3_u08_r9_network.node[8].content_store 	misses[8] 	32511
scalar tree_4_3_u08_r9_network.node[8].content_store 	decision_yes[8] 	62
scalar tree_4_3_u08_r9_network.node[8].content_store 	decision_no[8] 	32449
scalar tree_4_3_u08_r9_network.node[8].content_store 	decision_ratio[8] 	0.001907046845683
scalar tree_4_3_u08_r9_network.node[9].core_layer 	interests[9] 	13688
scalar tree_4_3_u08_r9_network.node[9].core_layer 	data[9] 	10253
scalar tree_4_3_u08_r9_network.node[9].content_store 	p_hit[9] 	0.25094973699591
scalar tree_4_3_u08_r9_network.node[9].content_store 	hits[9] 	3435
scalar tree_4_3_u08_r9_network.node[9].content_store 	misses[9] 	10253
scalar tree_4_3_u08_r9_network.node[9].content_store 	decision_yes[9] 	59
scalar tree_4_3_u08_r9_network.node[9].content_store 	decision_no[9] 	10194
scalar tree_4_3_u08_r9_network.node[9].content_store 	decision_ratio[9] 	0.0057544133424364
scalar tree_4_3_u08_r9_network.node[10].core_layer 	interests[10] 	43503
scalar tree_4_3_u08_r9_network.node[10].core_layer 	data[10] 	40359
scalar tree_4_3_u08_r9_network.node[10].content_store 	p_hit[10] 	0.072247890950049
scalar tree_4_3_u08_r9_network.node[10].content_store 	hits[10] 	3143
scalar tree_4_3_u08_r9_network.node[10].content_store 	misses[10] 	40360
scalar tree_4_3_u08_r9_network.node[10].content_store 	decision_yes[10] 	70
scalar tree_4_3_u08_r9_network.node[10].content_store 	decision_no[10] 	40289
scalar tree_4_3_u08_r9_network.node[10].content_store 	decision_ratio[10] 	0.0017344334596992
scalar tree_4_3_u08_r9_network.node[11].core_layer 	interests[11] 	28487
scalar tree_4_3_u08_r9_network.node[11].core_layer 	data[11] 	25033
scalar tree_4_3_u08_r9_network.node[11].content_store 	p_hit[11] 	0.12124828869309
scalar tree_4_3_u08_r9_network.node[11].content_store 	hits[11] 	3454
scalar tree_4_3_u08_r9_network.node[11].content_store 	misses[11] 	25033
scalar tree_4_3_u08_r9_network.node[11].content_store 	decision_yes[11] 	48
scalar tree_4_3_u08_r9_network.node[11].content_store 	decision_no[11] 	24985
scalar tree_4_3_u08_r9_network.node[11].content_store 	decision_ratio[11] 	0.0019174689409979
scalar tree_4_3_u08_r9_network.node[12].core_layer 	interests[12] 	11938
scalar tree_4_3_u08_r9_network.node[12].core_layer 	data[12] 	8994
scalar tree_4_3_u08_r9_network.node[12].content_store 	p_hit[12] 	0.24660747193835
scalar tree_4_3_u08_r9_network.node[12].content_store 	hits[12] 	2944
scalar tree_4_3_u08_r9_network.node[12].content_store 	misses[12] 	8994
scalar tree_4_3_u08_r9_network.node[12].content_store 	decision_yes[12] 	45
scalar tree_4_3_u08_r9_network.node[12].content_store 	decision_no[12] 	8949
scalar tree_4_3_u08_r9_network.node[12].content_store 	decision_ratio[12] 	0.005003335557038
scalar tree_4_3_u08_r9_network.node[13].core_layer 	interests[13] 	12429
scalar tree_4_3_u08_r9_network.node[13].core_layer 	data[13] 	8815
scalar tree_4_3_u08_r9_network.node[13].content_store 	p_hit[13] 	0.29077158258911
scalar tree_4_3_u08_r9_network.node[13].content_store 	hits[13] 	3614
scalar tree_4_3_u08_r9_network.node[13].content_store 	misses[13] 	8815
scalar tree_4_3_u08_r9_network.node[13].content_store 	decision_yes[13] 	22
scalar tree_4_3_u08_r9_network.node[13].content_store 	decision_no[13] 	8793
scalar tree_4_3_u08_r9_network.node[13].content_store 	decision_ratio[13] 	0.0024957458876914
scalar tree_4_3_u08_r9_network.node[14].core_layer 	interests[14] 	12885
scalar tree_4_3_u08_r9_network.node[14].core_layer 	data[14] 	8784
scalar tree_4_3_u08_r9_network.node[14].content_store 	p_hit[14] 	0.31827706635623
scalar tree_4_3_u08_r9_network.node[14].content_store 	hits[14] 	4101
scalar tree_4_3_u08_r9_network.node[14].content_store 	misses[14] 	8784
scalar tree_4_3_u08_r9_network.node[14].content_store 	decision_yes[14] 	21
scalar tree_4_3_u08_r9_network.node[14].content_store 	decision_no[14] 	8763
scalar tree_4_3_u08_r9_network.node[14].content_store 	decision_ratio[14] 	0.0023907103825137
scalar tree_4_3_u08_r9_network.node[15].core_layer 	interests[15] 	12849
scalar tree_4_3_u08_r9_network.node[15].core_layer 	data[15] 	8899
scalar tree_4_3_u08_r9_network.node[15].content_store 	p_hit[15] 	0.30741691960464
scalar tree_4_3_u08_r9_network.node[15].content_store 	hits[15] 	3950
scalar tree_4_3_u08_r9_network.node[15].content_store 	misses[15] 	8899
scalar tree_4_3_u08_r9_network.node[15].content_store 	decision_yes[15] 	23
scalar tree_4_3_u08_r9_network.node[15].content_store 	decision_no[15] 	8876
scalar tree_4_3_u08_r9_network.node[15].content_store 	decision_ratio[15] 	0.0025845600629284
scalar tree_4_3_u08_r9_network.node[16].core_layer 	interests[16] 	12998
scalar tree_4_3_u08_r9_network.node[16].core_layer 	data[16] 	8858
scalar tree_4_3_u08_r9_network.node[16].content_store 	p_hit[16] 	0.31851054008309
scalar tree_4_3_u08_r9_network.node[16].content_store 	hits[16] 	4140
scalar tree_4_3_u08_r9_network.node[16].content_store 	misses[16] 	8858
scalar tree_4_3_u08_r9_network.node[16].content_store 	decision_yes[16] 	17
scalar tree_4_3_u08_r9_network.node[16].content_store 	decision_no[16] 	8841
scalar tree_4_3_u08_r9_network.node[16].content_store 	decision_ratio[16] 	0.0019191691126665
scalar tree_4_3_u08_r9_network.node[17].core_layer 	interests[17] 	12523
scalar tree_4_3_u08_r9_network.node[17].core_layer 	data[17] 	8768
scalar tree_4_3_u08_r9_network.node[17].content_store 	p_hit[17] 	0.29976842609598
scalar tree_4_3_u08_r9_network.node[17].content_store 	hits[17] 	3754
scalar tree_4_3_u08_r9_network.node[17].content_store 	misses[17] 	8769
scalar tree_4_3_u08_r9_network.node[17].content_store 	decision_yes[17] 	19
scalar tree_4_3_u08_r9_network.node[17].content_store 	decision_no[17] 	8749
scalar tree_4_3_u08_r9_network.node[17].content_store 	decision_ratio[17] 	0.0021669708029197
scalar tree_4_3_u08_r9_network.node[18].core_layer 	interests[18] 	12669
scalar tree_4_3_u08_r9_network.node[18].core_layer 	data[18] 	8635
scalar tree_4_3_u08_r9_network.node[18].content_store 	p_hit[18] 	0.31849396163865
scalar tree_4_3_u08_r9_network.node[18].content_store 	hits[18] 	4035
scalar tree_4_3_u08_r9_network.node[18].content_store 	misses[18] 	8634
scalar tree_4_3_u08_r9_network.node[18].content_store 	decision_yes[18] 	22
scalar tree_4_3_u08_r9_network.node[18].content_store 	decision_no[18] 	8613
scalar tree_4_3_u08_r9_network.node[18].content_store 	decision_ratio[18] 	0.0025477707006369
scalar tree_4_3_u08_r9_network.node[19].core_layer 	interests[19] 	13038
scalar tree_4_3_u08_r9_network.node[19].core_layer 	data[19] 	8903
scalar tree_4_3_u08_r9_network.node[19].content_store 	p_hit[19] 	0.31707317073171
scalar tree_4_3_u08_r9_network.node[19].content_store 	hits[19] 	4134
scalar tree_4_3_u08_r9_network.node[19].content_store 	misses[19] 	8904
scalar tree_4_3_u08_r9_network.node[19].content_store 	decision_yes[19] 	24
scalar tree_4_3_u08_r9_network.node[19].content_store 	decision_no[19] 	8879
scalar tree_4_3_u08_r9_network.node[19].content_store 	decision_ratio[19] 	0.002695720543637
scalar tree_4_3_u08_r9_network.node[20].core_layer 	interests[20] 	12836
scalar tree_4_3_u08_r9_network.node[20].core_layer 	data[20] 	8958
scalar tree_4_3_u08_r9_network.node[20].content_store 	p_hit[20] 	0.30211904019944
scalar tree_4_3_u08_r9_network.node[20].content_store 	hits[20] 	3878
scalar tree_4_3_u08_r9_network.node[20].content_store 	misses[20] 	8958
scalar tree_4_3_u08_r9_network.node[20].content_store 	decision_yes[20] 	27
scalar tree_4_3_u08_r9_network.node[20].content_store 	decision_no[20] 	8931
scalar tree_4_3_u08_r9_network.node[20].content_store 	decision_ratio[20] 	0.0030140656396517
scalar tree_4_3_u08_r9_network.node[21].core_layer 	interests[21] 	12389
scalar tree_4_3_u08_r9_network.node[21].core_layer 	data[21] 	8824
scalar tree_4_3_u08_r9_network.node[21].content_store 	p_hit[21] 	0.28775526676891
scalar tree_4_3_u08_r9_network.node[21].content_store 	hits[21] 	3565
scalar tree_4_3_u08_r9_network.node[21].content_store 	misses[21] 	8824
scalar tree_4_3_u08_r9_network.node[21].content_store 	decision_yes[21] 	24
scalar tree_4_3_u08_r9_network.node[21].content_store 	decision_no[21] 	8800
scalar tree_4_3_u08_r9_network.node[21].content_store 	decision_ratio[21] 	0.0027198549410698
scalar tree_4_3_u08_r9_network.node[22].core_layer 	interests[22] 	12550
scalar tree_4_3_u08_r9_network.node[22].core_layer 	data[22] 	8874
scalar tree_4_3_u08_r9_network.node[22].content_store 	p_hit[22] 	0.29290836653386
scalar tree_4_3_u08_r9_network.node[22].content_store 	hits[22] 	3676
scalar tree_4_3_u08_r9_network.node[22].content_store 	misses[22] 	8874
scalar tree_4_3_u08_r9_network.node[22].content_store 	decision_yes[22] 	35
scalar tree_4_3_u08_r9_network.node[22].content_store 	decision_no[22] 	8839
scalar tree_4_3_u08_r9_network.node[22].content_store 	decision_ratio[22] 	0.0039441063781835
scalar tree_4_3_u08_r9_network.node[23].core_layer 	interests[23] 	13166
scalar tree_4_3_u08_r9_network.node[23].core_layer 	data[23] 	8881
scalar tree_4_3_u08_r9_network.node[23].content_store 	p_hit[23] 	0.32545951693757
scalar tree_4_3_u08_r9_network.node[23].content_store 	hits[23] 	4285
scalar tree_4_3_u08_r9_network.node[23].content_store 	misses[23] 	8881
scalar tree_4_3_u08_r9_network.node[23].content_store 	decision_yes[23] 	28
scalar tree_4_3_u08_r9_network.node[23].content_store 	decision_no[23] 	8853
scalar tree_4_3_u08_r9_network.node[23].content_store 	decision_ratio[23] 	0.0031527981083211
scalar tree_4_3_u08_r9_network.node[24].core_layer 	interests[24] 	12321
scalar tree_4_3_u08_r9_network.node[24].core_layer 	data[24] 	8620
scalar tree_4_3_u08_r9_network.node[24].content_store 	p_hit[24] 	0.30038146254362
scalar tree_4_3_u08_r9_network.node[24].content_store 	hits[24] 	3701
scalar tree_4_3_u08_r9_network.node[24].content_store 	misses[24] 	8620
scalar tree_4_3_u08_r9_network.node[24].content_store 	decision_yes[24] 	19
scalar tree_4_3_u08_r9_network.node[24].content_store 	decision_no[24] 	8601
scalar tree_4_3_u08_r9_network.node[24].content_store 	decision_ratio[24] 	0.0022041763341067
scalar tree_4_3_u08_r9_network.node[25].core_layer 	interests[25] 	12523
scalar tree_4_3_u08_r9_network.node[25].core_layer 	data[25] 	8766
scalar tree_4_3_u08_r9_network.node[25].content_store 	p_hit[25] 	0.30000798530704
scalar tree_4_3_u08_r9_network.node[25].content_store 	hits[25] 	3757
scalar tree_4_3_u08_r9_network.node[25].content_store 	misses[25] 	8766
scalar tree_4_3_u08_r9_network.node[25].content_store 	decision_yes[25] 	28
scalar tree_4_3_u08_r9_network.node[25].content_store 	decision_no[25] 	8738
scalar tree_4_3_u08_r9_network.node[25].content_store 	decision_ratio[25] 	0.0031941592516541
scalar tree_4_3_u08_r9_network.node[26].core_layer 	interests[26] 	12575
scalar tree_4_3_u08_r9_network.node[26].core_layer 	data[26] 	8772
scalar tree_4_3_u08_r9_network.node[26].content_store 	p_hit[26] 	0.3024254473161
scalar tree_4_3_u08_r9_network.node[26].content_store 	hits[26] 	3803
scalar tree_4_3_u08_r9_network.node[26].content_store 	misses[26] 	8772
scalar tree_4_3_u08_r9_network.node[26].content_store 	decision_yes[26] 	27
scalar tree_4_3_u08_r9_network.node[26].content_store 	decision_no[26] 	8745
scalar tree_4_3_u08_r9_network.node[26].content_store 	decision_ratio[26] 	0.003077975376197
scalar tree_4_3_u08_r9_network.node[27].core_layer 	interests[27] 	12890
scalar tree_4_3_u08_r9_network.node[27].core_layer 	data[27] 	8800
scalar tree_4_3_u08_r9_network.node[27].content_store 	p_hit[27] 	0.31730023273856
scalar tree_4_3_u08_r9_network.node[27].content_store 	hits[27] 	4090
scalar tree_4_3_u08_r9_network.node[27].content_store 	misses[27] 	8800
scalar tree_4_3_u08_r9_network.node[27].content_store 	decision_yes[27] 	25
scalar tree_4_3_u08_r9_network.node[27].content_store 	decision_no[27] 	8775
scalar tree_4_3_u08_r9_network.node[27].content_store 	decision_ratio[27] 	0.0028409090909091
scalar tree_4_3_u08_r9_network.node[28].core_layer 	interests[28] 	12892
scalar tree_4_3_u08_r9_network.node[28].core_layer 	data[28] 	8890
scalar tree_4_3_u08_r9_network.node[28].content_store 	p_hit[28] 	0.31042506981074
scalar tree_4_3_u08_r9_network.node[28].content_store 	hits[28] 	4002
scalar tree_4_3_u08_r9_network.node[28].content_store 	misses[28] 	8890
scalar tree_4_3_u08_r9_network.node[28].content_store 	decision_yes[28] 	26
scalar tree_4_3_u08_r9_network.node[28].content_store 	decision_no[28] 	8864
scalar tree_4_3_u08_r9_network.node[28].content_store 	decision_ratio[28] 	0.0029246344206974
scalar tree_4_3_u08_r9_network.node[29].core_layer 	interests[29] 	12836
scalar tree_4_3_u08_r9_network.node[29].core_layer 	data[29] 	8909
scalar tree_4_3_u08_r9_network.node[29].content_store 	p_hit[29] 	0.30593642879402
scalar tree_4_3_u08_r9_network.node[29].content_store 	hits[29] 	3927
scalar tree_4_3_u08_r9_network.node[29].content_store 	misses[29] 	8909
scalar tree_4_3_u08_r9_network.node[29].content_store 	decision_yes[29] 	26
scalar tree_4_3_u08_r9_network.node[29].content_store 	decision_no[29] 	8883
scalar tree_4_3_u08_r9_network.node[29].content_store 	decision_ratio[29] 	0.0029183971265013
scalar tree_4_3_u08_r9_network.node[30].core_layer 	interests[30] 	12517
scalar tree_4_3_u08_r9_network.node[30].core_layer 	data[30] 	8800
scalar tree_4_3_u08_r9_network.node[30].content_store 	p_hit[30] 	0.29695613965008
scalar tree_4_3_u08_r9_network.node[30].content_store 	hits[30] 	3717
scalar tree_4_3_u08_r9_network.node[30].content_store 	misses[30] 	8800
scalar tree_4_3_u08_r9_network.node[30].content_store 	decision_yes[30] 	30
scalar tree_4_3_u08_r9_network.node[30].content_store 	decision_no[30] 	8770
scalar tree_4_3_u08_r9_network.node[30].content_store 	decision_ratio[30] 	0.0034090909090909
scalar tree_4_3_u08_r9_network.node[31].core_layer 	interests[31] 	12602
scalar tree_4_3_u08_r9_network.node[31].core_layer 	data[31] 	8936
scalar tree_4_3_u08_r9_network.node[31].content_store 	p_hit[31] 	0.29090620536423
scalar tree_4_3_u08_r9_network.node[31].content_store 	hits[31] 	3666
scalar tree_4_3_u08_r9_network.node[31].content_store 	misses[31] 	8936
scalar tree_4_3_u08_r9_network.node[31].content_store 	decision_yes[31] 	24
scalar tree_4_3_u08_r9_network.node[31].content_store 	decision_no[31] 	8912
scalar tree_4_3_u08_r9_network.node[31].content_store 	decision_ratio[31] 	0.0026857654431513
scalar tree_4_3_u08_r9_network.node[32].core_layer 	interests[32] 	12328
scalar tree_4_3_u08_r9_network.node[32].core_layer 	data[32] 	8630
scalar tree_4_3_u08_r9_network.node[32].content_store 	p_hit[32] 	0.29996755353666
scalar tree_4_3_u08_r9_network.node[32].content_store 	hits[32] 	3698
scalar tree_4_3_u08_r9_network.node[32].content_store 	misses[32] 	8630
scalar tree_4_3_u08_r9_network.node[32].content_store 	decision_yes[32] 	21
scalar tree_4_3_u08_r9_network.node[32].content_store 	decision_no[32] 	8609
scalar tree_4_3_u08_r9_network.node[32].content_store 	decision_ratio[32] 	0.0024333719582851
scalar tree_4_3_u08_r9_network.node[33].core_layer 	interests[33] 	12654
scalar tree_4_3_u08_r9_network.node[33].core_layer 	data[33] 	8688
scalar tree_4_3_u08_r9_network.node[33].content_store 	p_hit[33] 	0.31341868183973
scalar tree_4_3_u08_r9_network.node[33].content_store 	hits[33] 	3966
scalar tree_4_3_u08_r9_network.node[33].content_store 	misses[33] 	8688
scalar tree_4_3_u08_r9_network.node[33].content_store 	decision_yes[33] 	26
scalar tree_4_3_u08_r9_network.node[33].content_store 	decision_no[33] 	8662
scalar tree_4_3_u08_r9_network.node[33].content_store 	decision_ratio[33] 	0.0029926335174954
scalar tree_4_3_u08_r9_network.node[34].core_layer 	interests[34] 	12847
scalar tree_4_3_u08_r9_network.node[34].core_layer 	data[34] 	8702
scalar tree_4_3_u08_r9_network.node[34].content_store 	p_hit[34] 	0.32264341869697
scalar tree_4_3_u08_r9_network.node[34].content_store 	hits[34] 	4145
scalar tree_4_3_u08_r9_network.node[34].content_store 	misses[34] 	8702
scalar tree_4_3_u08_r9_network.node[34].content_store 	decision_yes[34] 	20
scalar tree_4_3_u08_r9_network.node[34].content_store 	decision_no[34] 	8682
scalar tree_4_3_u08_r9_network.node[34].content_store 	decision_ratio[34] 	0.0022983222247759
scalar tree_4_3_u08_r9_network.node[35].core_layer 	interests[35] 	12362
scalar tree_4_3_u08_r9_network.node[35].core_layer 	data[35] 	8746
scalar tree_4_3_u08_r9_network.node[35].content_store 	p_hit[35] 	0.29250930270183
scalar tree_4_3_u08_r9_network.node[35].content_store 	hits[35] 	3616
scalar tree_4_3_u08_r9_network.node[35].content_store 	misses[35] 	8746
scalar tree_4_3_u08_r9_network.node[35].content_store 	decision_yes[35] 	21
scalar tree_4_3_u08_r9_network.node[35].content_store 	decision_no[35] 	8725
scalar tree_4_3_u08_r9_network.node[35].content_store 	decision_ratio[35] 	0.0024010976446375
scalar tree_4_3_u08_r9_network.node[36].core_layer 	interests[36] 	12849
scalar tree_4_3_u08_r9_network.node[36].core_layer 	data[36] 	8769
scalar tree_4_3_u08_r9_network.node[36].content_store 	p_hit[36] 	0.3175344384777
scalar tree_4_3_u08_r9_network.node[36].content_store 	hits[36] 	4080
scalar tree_4_3_u08_r9_network.node[36].content_store 	misses[36] 	8769
scalar tree_4_3_u08_r9_network.node[36].content_store 	decision_yes[36] 	20
scalar tree_4_3_u08_r9_network.node[36].content_store 	decision_no[36] 	8749
scalar tree_4_3_u08_r9_network.node[36].content_store 	decision_ratio[36] 	0.0022807617744327
scalar tree_4_3_u08_r9_network.node[37].core_layer 	interests[37] 	12991
scalar tree_4_3_u08_r9_network.node[37].core_layer 	data[37] 	9026
scalar tree_4_3_u08_r9_network.node[37].content_store 	p_hit[37] 	0.30521130013086
scalar tree_4_3_u08_r9_network.node[37].content_store 	hits[37] 	3965
scalar tree_4_3_u08_r9_network.node[37].content_store 	misses[37] 	9026
scalar tree_4_3_u08_r9_network.node[37].content_store 	decision_yes[37] 	23
scalar tree_4_3_u08_r9_network.node[37].content_store 	decision_no[37] 	9003
scalar tree_4_3_u08_r9_network.node[37].content_store 	decision_ratio[37] 	0.0025481941059162
scalar tree_4_3_u08_r9_network.node[38].core_layer 	interests[38] 	12762
scalar tree_4_3_u08_r9_network.node[38].core_layer 	data[38] 	8804
scalar tree_4_3_u08_r9_network.node[38].content_store 	p_hit[38] 	0.31013947657107
scalar tree_4_3_u08_r9_network.node[38].content_store 	hits[38] 	3958
scalar tree_4_3_u08_r9_network.node[38].content_store 	misses[38] 	8804
scalar tree_4_3_u08_r9_network.node[38].content_store 	decision_yes[38] 	21
scalar tree_4_3_u08_r9_network.node[38].content_store 	decision_no[38] 	8783
scalar tree_4_3_u08_r9_network.node[38].content_store 	decision_ratio[38] 	0.0023852794184462
scalar tree_4_3_u08_r9_network.node[39].core_layer 	interests[39] 	12170
scalar tree_4_3_u08_r9_network.node[39].core_layer 	data[39] 	8693
scalar tree_4_3_u08_r9_network.node[39].content_store 	p_hit[39] 	0.28570254724733
scalar tree_4_3_u08_r9_network.node[39].content_store 	hits[39] 	3477
scalar tree_4_3_u08_r9_network.node[39].content_store 	misses[39] 	8693
scalar tree_4_3_u08_r9_network.node[39].content_store 	decision_yes[39] 	26
scalar tree_4_3_u08_r9_network.node[39].content_store 	decision_no[39] 	8667
scalar tree_4_3_u08_r9_network.node[39].content_store 	decision_ratio[39] 	0.0029909122282296
scalar tree_4_3_u08_r9_network.client[13] 	hdistance[13] 	2.6527916251246
scalar tree_4_3_u08_r9_network.client[13] 	downloads[13] 	12036
scalar tree_4_3_u08_r9_network.client[13] 	avg_time[13] 	0.004149049829
scalar tree_4_3_u08_r9_network.client[14] 	hdistance[14] 	2.5462908756377
scalar tree_4_3_u08_r9_network.client[14] 	downloads[14] 	11957
scalar tree_4_3_u08_r9_network.client[14] 	avg_time[14] 	0.004019714079
scalar tree_4_3_u08_r9_network.client[15] 	hdistance[15] 	2.5847450623915
scalar tree_4_3_u08_r9_network.client[15] 	downloads[15] 	12101
scalar tree_4_3_u08_r9_network.client[15] 	avg_time[15] 	0.004047926938
scalar tree_4_3_u08_r9_network.client[16] 	hdistance[16] 	2.5565468814539
scalar tree_4_3_u08_r9_network.client[16] 	downloads[16] 	12105
scalar tree_4_3_u08_r9_network.client[16] 	avg_time[16] 	0.004023127898
scalar tree_4_3_u08_r9_network.client[17] 	hdistance[17] 	2.623778093408
scalar tree_4_3_u08_r9_network.client[17] 	downloads[17] 	11969
scalar tree_4_3_u08_r9_network.client[17] 	avg_time[17] 	0.004152648083
scalar tree_4_3_u08_r9_network.client[18] 	hdistance[18] 	2.5256777235225
scalar tree_4_3_u08_r9_network.client[18] 	downloads[18] 	11878
scalar tree_4_3_u08_r9_network.client[18] 	avg_time[18] 	0.003973056478
scalar tree_4_3_u08_r9_network.client[19] 	hdistance[19] 	2.542031595318
scalar tree_4_3_u08_r9_network.client[19] 	downloads[19] 	12217
scalar tree_4_3_u08_r9_network.client[19] 	avg_time[19] 	0.003992117559
scalar tree_4_3_u08_r9_network.client[20] 	hdistance[20] 	2.5633010832713
scalar tree_4_3_u08_r9_network.client[20] 	downloads[20] 	12093
scalar tree_4_3_u08_r9_network.client[20] 	avg_time[20] 	0.004036648204
scalar tree_4_3_u08_r9_network.client[21] 	hdistance[21] 	2.6059751037345
scalar tree_4_3_u08_r9_network.client[21] 	downloads[21] 	12050
scalar tree_4_3_u08_r9_network.client[21] 	avg_time[21] 	0.004112694085
scalar tree_4_3_u08_r9_network.client[22] 	hdistance[22] 	2.6445474102267
scalar tree_4_3_u08_r9_network.client[22] 	downloads[22] 	12086
scalar tree_4_3_u08_r9_network.client[22] 	avg_time[22] 	0.004169449214
scalar tree_4_3_u08_r9_network.client[23] 	hdistance[23] 	2.5605388532939
scalar tree_4_3_u08_r9_network.client[23] 	downloads[23] 	12174
scalar tree_4_3_u08_r9_network.client[23] 	avg_time[23] 	0.0040031184
scalar tree_4_3_u08_r9_network.client[24] 	hdistance[24] 	2.6348952637335
scalar tree_4_3_u08_r9_network.client[24] 	downloads[24] 	11887
scalar tree_4_3_u08_r9_network.client[24] 	avg_time[24] 	0.0041440199
scalar tree_4_3_u08_r9_network.client[25] 	hdistance[25] 	2.6156660568768
scalar tree_4_3_u08_r9_network.client[25] 	downloads[25] 	12026
scalar tree_4_3_u08_r9_network.client[25] 	avg_time[25] 	0.004113584199
scalar tree_4_3_u08_r9_network.client[26] 	hdistance[26] 	2.6160765866139
scalar tree_4_3_u08_r9_network.client[26] 	downloads[26] 	12117
scalar tree_4_3_u08_r9_network.client[26] 	avg_time[26] 	0.004108934809
scalar tree_4_3_u08_r9_network.client[27] 	hdistance[27] 	2.5439780109945
scalar tree_4_3_u08_r9_network.client[27] 	downloads[27] 	12006
scalar tree_4_3_u08_r9_network.client[27] 	avg_time[27] 	0.00399933067
scalar tree_4_3_u08_r9_network.client[28] 	hdistance[28] 	2.5766380817584
scalar tree_4_3_u08_r9_network.client[28] 	downloads[28] 	12011
scalar tree_4_3_u08_r9_network.client[28] 	avg_time[28] 	0.004050783801
scalar tree_4_3_u08_r9_network.client[29] 	hdistance[29] 	2.5969018072791
scalar tree_4_3_u08_r9_network.client[29] 	downloads[29] 	12007
scalar tree_4_3_u08_r9_network.client[29] 	avg_time[29] 	0.004078118097
scalar tree_4_3_u08_r9_network.client[30] 	hdistance[30] 	2.5855344359418
scalar tree_4_3_u08_r9_network.client[30] 	downloads[30] 	12153
scalar tree_4_3_u08_r9_network.client[30] 	avg_time[30] 	0.004081622908
scalar tree_4_3_u08_r9_network.client[31] 	hdistance[31] 	2.628319313871
scalar tree_4_3_u08_r9_network.client[31] 	downloads[31] 	12126
scalar tree_4_3_u08_r9_network.client[31] 	avg_time[31] 	0.004143084129
scalar tree_4_3_u08_r9_network.client[32] 	hdistance[32] 	2.6032640699924
scalar tree_4_3_u08_r9_network.client[32] 	downloads[32] 	11887
scalar tree_4_3_u08_r9_network.client[32] 	avg_time[32] 	0.004095857515
scalar tree_4_3_u08_r9_network.client[33] 	hdistance[33] 	2.5364316329103
scalar tree_4_3_u08_r9_network.client[33] 	downloads[33] 	11899
scalar tree_4_3_u08_r9_network.client[33] 	avg_time[33] 	0.003984365448
scalar tree_4_3_u08_r9_network.client[34] 	hdistance[34] 	2.5499746321664
scalar tree_4_3_u08_r9_network.client[34] 	downloads[34] 	11826
scalar tree_4_3_u08_r9_network.client[34] 	avg_time[34] 	0.004014203056
scalar tree_4_3_u08_r9_network.client[35] 	hdistance[35] 	2.6141869952543
scalar tree_4_3_u08_r9_network.client[35] 	downloads[35] 	12011
scalar tree_4_3_u08_r9_network.client[35] 	avg_time[35] 	0.004131709585
scalar tree_4_3_u08_r9_network.client[36] 	hdistance[36] 	2.5338433394312
scalar tree_4_3_u08_r9_network.client[36] 	downloads[36] 	12026
scalar tree_4_3_u08_r9_network.client[36] 	avg_time[36] 	0.003984696824
scalar tree_4_3_u08_r9_network.client[37] 	hdistance[37] 	2.5537920314162
scalar tree_4_3_u08_r9_network.client[37] 	downloads[37] 	12223
scalar tree_4_3_u08_r9_network.client[37] 	avg_time[37] 	0.004007032861
scalar tree_4_3_u08_r9_network.client[38] 	hdistance[38] 	2.5512458471761
scalar tree_4_3_u08_r9_network.client[38] 	downloads[38] 	12040
scalar tree_4_3_u08_r9_network.client[38] 	avg_time[38] 	0.004007139859
scalar tree_4_3_u08_r9_network.client[39] 	hdistance[39] 	2.6361573373676
scalar tree_4_3_u08_r9_network.client[39] 	downloads[39] 	11898
scalar tree_4_3_u08_r9_network.client[39] 	avg_time[39] 	0.004128253849
