version 2
run General-211-20160818-23:51:18-32642
attr a 0.9
attr cd lce
attr configname General
attr cr lru
attr datetime 20160818-23:51:18
attr experiment General
attr fsize 1
attr inifile hw5115/scenario_A/Edge.ini
attr iterationvars "$name=tree_4_3, $un=10, $rep=12, $scenario=Edge, $cd=lce, $cr=lru, $fsize=1, $a=0.9, $sl=spr, $ttl=1000, $variance=0.05"
attr iterationvars2 "$name=tree_4_3, $un=10, $rep=12, $scenario=Edge, $cd=lce, $cr=lru, $fsize=1, $a=0.9, $sl=spr, $ttl=1000, $variance=0.05, $repetition=0"
attr measurement "$name=tree_4_3, $un=10, $rep=12, $scenario=Edge, $cd=lce, $cr=lru, $fsize=1, $a=0.9, $sl=spr, $ttl=1000, $variance=0.05"
attr name tree_4_3
attr network networks.${name}_u${un}_r${rep}_network
attr processid 32642
attr rep 12
attr repetition 0
attr replication #0
attr resultdir results
attr runnumber 211
attr scenario Edge
attr seedset 12
attr sl spr
attr ttl 1000
attr un 10
attr variance 0.05

scalar . 	a 	0.9
scalar . 	fsize 	1
scalar . 	rep 	12
scalar . 	ttl 	1000
scalar . 	un 	10
scalar . 	variance 	0.05
scalar tree_4_3_u10_r12_network.content_distribution 	repo-0 	0
scalar tree_4_3_u10_r12_network.content_distribution 	client-0 	13
scalar tree_4_3_u10_r12_network.content_distribution 	client-1 	14
scalar tree_4_3_u10_r12_network.content_distribution 	client-2 	15
scalar tree_4_3_u10_r12_network.content_distribution 	client-3 	16
scalar tree_4_3_u10_r12_network.content_distribution 	client-4 	17
scalar tree_4_3_u10_r12_network.content_distribution 	client-5 	18
scalar tree_4_3_u10_r12_network.content_distribution 	client-6 	19
scalar tree_4_3_u10_r12_network.content_distribution 	client-7 	20
scalar tree_4_3_u10_r12_network.content_distribution 	client-8 	21
scalar tree_4_3_u10_r12_network.content_distribution 	client-9 	22
scalar tree_4_3_u10_r12_network.content_distribution 	client-10 	23
scalar tree_4_3_u10_r12_network.content_distribution 	client-11 	24
scalar tree_4_3_u10_r12_network.content_distribution 	client-12 	25
scalar tree_4_3_u10_r12_network.content_distribution 	client-13 	26
scalar tree_4_3_u10_r12_network.content_distribution 	client-14 	27
scalar tree_4_3_u10_r12_network.content_distribution 	client-15 	28
scalar tree_4_3_u10_r12_network.content_distribution 	client-16 	29
scalar tree_4_3_u10_r12_network.content_distribution 	client-17 	30
scalar tree_4_3_u10_r12_network.content_distribution 	client-18 	31
scalar tree_4_3_u10_r12_network.content_distribution 	client-19 	32
scalar tree_4_3_u10_r12_network.content_distribution 	client-20 	33
scalar tree_4_3_u10_r12_network.content_distribution 	client-21 	34
scalar tree_4_3_u10_r12_network.content_distribution 	client-22 	35
scalar tree_4_3_u10_r12_network.content_distribution 	client-23 	36
scalar tree_4_3_u10_r12_network.content_distribution 	client-24 	37
scalar tree_4_3_u10_r12_network.content_distribution 	client-25 	38
scalar tree_4_3_u10_r12_network.content_distribution 	client-26 	39
scalar tree_4_3_u10_r12_network.content_distribution 	repo-0_card 	100000
scalar tree_4_3_u10_r12_network.content_distribution 	repo-0_price 	0
scalar tree_4_3_u10_r12_network.statistics 	stabilization_time 	425.1
scalar tree_4_3_u10_r12_network.statistics 	p_hit 	0.1050772747751
scalar tree_4_3_u10_r12_network.statistics 	interests 	28637.475
scalar tree_4_3_u10_r12_network.statistics 	data 	20530.525
scalar tree_4_3_u10_r12_network.statistics 	hdistance 	3.3772753280356
scalar tree_4_3_u10_r12_network.statistics 	avg_time 	0.005065525084
scalar tree_4_3_u10_r12_network.statistics 	downloads 	324254
scalar tree_4_3_u10_r12_network.statistics 	total_cost 	0
scalar tree_4_3_u10_r12_network.statistics 	total_replicas 	100000
scalar tree_4_3_u10_r12_network.statistics 	inner_hit 	0.15590555552129
scalar tree_4_3_u10_r12_network.node[0].core_layer 	interests[0] 	273701
scalar tree_4_3_u10_r12_network.node[0].core_layer 	repo_load[0] 	273701
scalar tree_4_3_u10_r12_network.node[0].core_layer 	data[0] 	0
scalar tree_4_3_u10_r12_network.node[0].core_layer 	repo_int[0] 	273701
scalar tree_4_3_u10_r12_network.node[0].content_store 	p_hit[0] 	0
scalar tree_4_3_u10_r12_network.node[0].content_store 	hits[0] 	0
scalar tree_4_3_u10_r12_network.node[0].content_store 	misses[0] 	273701
scalar tree_4_3_u10_r12_network.node[0].content_store 	decision_yes[0] 	0
scalar tree_4_3_u10_r12_network.node[0].content_store 	decision_no[0] 	273701
scalar tree_4_3_u10_r12_network.node[0].content_store 	decision_ratio[0] 	0
scalar tree_4_3_u10_r12_network.node[1].core_layer 	interests[1] 	192610
scalar tree_4_3_u10_r12_network.node[1].core_layer 	data[1] 	192571
scalar tree_4_3_u10_r12_network.node[1].content_store 	p_hit[1] 	0
scalar tree_4_3_u10_r12_network.node[1].content_store 	hits[1] 	0
scalar tree_4_3_u10_r12_network.node[1].content_store 	misses[1] 	192610
scalar tree_4_3_u10_r12_network.node[1].content_store 	decision_yes[1] 	0
scalar tree_4_3_u10_r12_network.node[1].content_store 	decision_no[1] 	192571
scalar tree_4_3_u10_r12_network.node[1].content_store 	decision_ratio[1] 	0
scalar tree_4_3_u10_r12_network.node[2].core_layer 	interests[2] 	70923
scalar tree_4_3_u10_r12_network.node[2].core_layer 	data[2] 	70914
scalar tree_4_3_u10_r12_network.node[2].content_store 	p_hit[2] 	0
scalar tree_4_3_u10_r12_network.node[2].content_store 	hits[2] 	0
scalar tree_4_3_u10_r12_network.node[2].content_store 	misses[2] 	70923
scalar tree_4_3_u10_r12_network.node[2].content_store 	decision_yes[2] 	0
scalar tree_4_3_u10_r12_network.node[2].content_store 	decision_no[2] 	70914
scalar tree_4_3_u10_r12_network.node[2].content_store 	decision_ratio[2] 	0
scalar tree_4_3_u10_r12_network.node[3].core_layer 	interests[3] 	10216
scalar tree_4_3_u10_r12_network.node[3].core_layer 	data[3] 	10216
scalar tree_4_3_u10_r12_network.node[3].content_store 	p_hit[3] 	0
scalar tree_4_3_u10_r12_network.node[3].content_store 	hits[3] 	0
scalar tree_4_3_u10_r12_network.node[3].content_store 	misses[3] 	10216
scalar tree_4_3_u10_r12_network.node[3].content_store 	decision_yes[3] 	0
scalar tree_4_3_u10_r12_network.node[3].content_store 	decision_no[3] 	10216
scalar tree_4_3_u10_r12_network.node[3].content_store 	decision_ratio[3] 	0
scalar tree_4_3_u10_r12_network.node[4].core_layer 	interests[4] 	51134
scalar tree_4_3_u10_r12_network.node[4].core_layer 	data[4] 	51128
scalar tree_4_3_u10_r12_network.node[4].content_store 	p_hit[4] 	0
scalar tree_4_3_u10_r12_network.node[4].content_store 	hits[4] 	0
scalar tree_4_3_u10_r12_network.node[4].content_store 	misses[4] 	51134
scalar tree_4_3_u10_r12_network.node[4].content_store 	decision_yes[4] 	0
scalar tree_4_3_u10_r12_network.node[4].content_store 	decision_no[4] 	51128
scalar tree_4_3_u10_r12_network.node[4].content_store 	decision_ratio[4] 	0
scalar tree_4_3_u10_r12_network.node[5].core_layer 	interests[5] 	30397
scalar tree_4_3_u10_r12_network.node[5].core_layer 	data[5] 	30393
scalar tree_4_3_u10_r12_network.node[5].content_store 	p_hit[5] 	0
scalar tree_4_3_u10_r12_network.node[5].content_store 	hits[5] 	0
scalar tree_4_3_u10_r12_network.node[5].content_store 	misses[5] 	30397
scalar tree_4_3_u10_r12_network.node[5].content_store 	decision_yes[5] 	0
scalar tree_4_3_u10_r12_network.node[5].content_store 	decision_no[5] 	30393
scalar tree_4_3_u10_r12_network.node[5].content_store 	decision_ratio[5] 	0
scalar tree_4_3_u10_r12_network.node[6].core_layer 	interests[6] 	10240
scalar tree_4_3_u10_r12_network.node[6].core_layer 	data[6] 	10240
scalar tree_4_3_u10_r12_network.node[6].content_store 	p_hit[6] 	0
scalar tree_4_3_u10_r12_network.node[6].content_store 	hits[6] 	0
scalar tree_4_3_u10_r12_network.node[6].content_store 	misses[6] 	10240
scalar tree_4_3_u10_r12_network.node[6].content_store 	decision_yes[6] 	0
scalar tree_4_3_u10_r12_network.node[6].content_store 	decision_no[6] 	10240
scalar tree_4_3_u10_r12_network.node[6].content_store 	decision_ratio[6] 	0
scalar tree_4_3_u10_r12_network.node[7].core_layer 	interests[7] 	50283
scalar tree_4_3_u10_r12_network.node[7].core_layer 	data[7] 	50279
scalar tree_4_3_u10_r12_network.node[7].content_store 	p_hit[7] 	0
scalar tree_4_3_u10_r12_network.node[7].content_store 	hits[7] 	0
scalar tree_4_3_u10_r12_network.node[7].content_store 	misses[7] 	50283
scalar tree_4_3_u10_r12_network.node[7].content_store 	decision_yes[7] 	0
scalar tree_4_3_u10_r12_network.node[7].content_store 	decision_no[7] 	50279
scalar tree_4_3_u10_r12_network.node[7].content_store 	decision_ratio[7] 	0
scalar tree_4_3_u10_r12_network.node[8].core_layer 	interests[8] 	30336
scalar tree_4_3_u10_r12_network.node[8].core_layer 	data[8] 	30332
scalar tree_4_3_u10_r12_network.node[8].content_store 	p_hit[8] 	0
scalar tree_4_3_u10_r12_network.node[8].content_store 	hits[8] 	0
scalar tree_4_3_u10_r12_network.node[8].content_store 	misses[8] 	30336
scalar tree_4_3_u10_r12_network.node[8].content_store 	decision_yes[8] 	0
scalar tree_4_3_u10_r12_network.node[8].content_store 	decision_no[8] 	30332
scalar tree_4_3_u10_r12_network.node[8].content_store 	decision_ratio[8] 	0
scalar tree_4_3_u10_r12_network.node[9].core_layer 	interests[9] 	10223
scalar tree_4_3_u10_r12_network.node[9].core_layer 	data[9] 	10223
scalar tree_4_3_u10_r12_network.node[9].content_store 	p_hit[9] 	0
scalar tree_4_3_u10_r12_network.node[9].content_store 	hits[9] 	0
scalar tree_4_3_u10_r12_network.node[9].content_store 	misses[9] 	10223
scalar tree_4_3_u10_r12_network.node[9].content_store 	decision_yes[9] 	0
scalar tree_4_3_u10_r12_network.node[9].content_store 	decision_no[9] 	10223
scalar tree_4_3_u10_r12_network.node[9].content_store 	decision_ratio[9] 	0
scalar tree_4_3_u10_r12_network.node[10].core_layer 	interests[10] 	50573
scalar tree_4_3_u10_r12_network.node[10].core_layer 	data[10] 	50569
scalar tree_4_3_u10_r12_network.node[10].content_store 	p_hit[10] 	0
scalar tree_4_3_u10_r12_network.node[10].content_store 	hits[10] 	0
scalar tree_4_3_u10_r12_network.node[10].content_store 	misses[10] 	50573
scalar tree_4_3_u10_r12_network.node[10].content_store 	decision_yes[10] 	0
scalar tree_4_3_u10_r12_network.node[10].content_store 	decision_no[10] 	50569
scalar tree_4_3_u10_r12_network.node[10].content_store 	decision_ratio[10] 	0
scalar tree_4_3_u10_r12_network.node[11].core_layer 	interests[11] 	30370
scalar tree_4_3_u10_r12_network.node[11].core_layer 	data[11] 	30367
scalar tree_4_3_u10_r12_network.node[11].content_store 	p_hit[11] 	0
scalar tree_4_3_u10_r12_network.node[11].content_store 	hits[11] 	0
scalar tree_4_3_u10_r12_network.node[11].content_store 	misses[11] 	30370
scalar tree_4_3_u10_r12_network.node[11].content_store 	decision_yes[11] 	0
scalar tree_4_3_u10_r12_network.node[11].content_store 	decision_no[11] 	30367
scalar tree_4_3_u10_r12_network.node[11].content_store 	decision_ratio[11] 	0
scalar tree_4_3_u10_r12_network.node[12].core_layer 	interests[12] 	10216
scalar tree_4_3_u10_r12_network.node[12].core_layer 	data[12] 	10217
scalar tree_4_3_u10_r12_network.node[12].content_store 	p_hit[12] 	0
scalar tree_4_3_u10_r12_network.node[12].content_store 	hits[12] 	0
scalar tree_4_3_u10_r12_network.node[12].content_store 	misses[12] 	10216
scalar tree_4_3_u10_r12_network.node[12].content_store 	decision_yes[12] 	0
scalar tree_4_3_u10_r12_network.node[12].content_store 	decision_no[12] 	10217
scalar tree_4_3_u10_r12_network.node[12].content_store 	decision_ratio[12] 	0
scalar tree_4_3_u10_r12_network.node[13].core_layer 	interests[13] 	11990
scalar tree_4_3_u10_r12_network.node[13].core_layer 	data[13] 	10154
scalar tree_4_3_u10_r12_network.node[13].content_store 	p_hit[13] 	0.15304420350292
scalar tree_4_3_u10_r12_network.node[13].content_store 	hits[13] 	1835
scalar tree_4_3_u10_r12_network.node[13].content_store 	misses[13] 	10155
scalar tree_4_3_u10_r12_network.node[13].content_store 	decision_yes[13] 	10154
scalar tree_4_3_u10_r12_network.node[13].content_store 	decision_no[13] 	0
scalar tree_4_3_u10_r12_network.node[13].content_store 	decision_ratio[13] 	1
scalar tree_4_3_u10_r12_network.node[14].core_layer 	interests[14] 	12135
scalar tree_4_3_u10_r12_network.node[14].core_layer 	data[14] 	10178
scalar tree_4_3_u10_r12_network.node[14].content_store 	p_hit[14] 	0.16126905644829
scalar tree_4_3_u10_r12_network.node[14].content_store 	hits[14] 	1957
scalar tree_4_3_u10_r12_network.node[14].content_store 	misses[14] 	10178
scalar tree_4_3_u10_r12_network.node[14].content_store 	decision_yes[14] 	10178
scalar tree_4_3_u10_r12_network.node[14].content_store 	decision_no[14] 	0
scalar tree_4_3_u10_r12_network.node[14].content_store 	decision_ratio[14] 	1
scalar tree_4_3_u10_r12_network.node[15].core_layer 	interests[15] 	12099
scalar tree_4_3_u10_r12_network.node[15].core_layer 	data[15] 	10330
scalar tree_4_3_u10_r12_network.node[15].content_store 	p_hit[15] 	0.1462104306141
scalar tree_4_3_u10_r12_network.node[15].content_store 	hits[15] 	1769
scalar tree_4_3_u10_r12_network.node[15].content_store 	misses[15] 	10330
scalar tree_4_3_u10_r12_network.node[15].content_store 	decision_yes[15] 	10330
scalar tree_4_3_u10_r12_network.node[15].content_store 	decision_no[15] 	0
scalar tree_4_3_u10_r12_network.node[15].content_store 	decision_ratio[15] 	1
scalar tree_4_3_u10_r12_network.node[16].core_layer 	interests[16] 	12100
scalar tree_4_3_u10_r12_network.node[16].core_layer 	data[16] 	10162
scalar tree_4_3_u10_r12_network.node[16].content_store 	p_hit[16] 	0.1601652892562
scalar tree_4_3_u10_r12_network.node[16].content_store 	hits[16] 	1938
scalar tree_4_3_u10_r12_network.node[16].content_store 	misses[16] 	10162
scalar tree_4_3_u10_r12_network.node[16].content_store 	decision_yes[16] 	10162
scalar tree_4_3_u10_r12_network.node[16].content_store 	decision_no[16] 	0
scalar tree_4_3_u10_r12_network.node[16].content_store 	decision_ratio[16] 	1
scalar tree_4_3_u10_r12_network.node[17].core_layer 	interests[17] 	12072
scalar tree_4_3_u10_r12_network.node[17].core_layer 	data[17] 	10158
scalar tree_4_3_u10_r12_network.node[17].content_store 	p_hit[17] 	0.15846587143804
scalar tree_4_3_u10_r12_network.node[17].content_store 	hits[17] 	1913
scalar tree_4_3_u10_r12_network.node[17].content_store 	misses[17] 	10159
scalar tree_4_3_u10_r12_network.node[17].content_store 	decision_yes[17] 	10158
scalar tree_4_3_u10_r12_network.node[17].content_store 	decision_no[17] 	0
scalar tree_4_3_u10_r12_network.node[17].content_store 	decision_ratio[17] 	1
scalar tree_4_3_u10_r12_network.node[18].core_layer 	interests[18] 	11891
scalar tree_4_3_u10_r12_network.node[18].core_layer 	data[18] 	9996
scalar tree_4_3_u10_r12_network.node[18].content_store 	p_hit[18] 	0.15919603061139
scalar tree_4_3_u10_r12_network.node[18].content_store 	hits[18] 	1893
scalar tree_4_3_u10_r12_network.node[18].content_store 	misses[18] 	9998
scalar tree_4_3_u10_r12_network.node[18].content_store 	decision_yes[18] 	9996
scalar tree_4_3_u10_r12_network.node[18].content_store 	decision_no[18] 	0
scalar tree_4_3_u10_r12_network.node[18].content_store 	decision_ratio[18] 	1
scalar tree_4_3_u10_r12_network.node[19].core_layer 	interests[19] 	12228
scalar tree_4_3_u10_r12_network.node[19].core_layer 	data[19] 	10311
scalar tree_4_3_u10_r12_network.node[19].content_store 	p_hit[19] 	0.15677134445535
scalar tree_4_3_u10_r12_network.node[19].content_store 	hits[19] 	1917
scalar tree_4_3_u10_r12_network.node[19].content_store 	misses[19] 	10311
scalar tree_4_3_u10_r12_network.node[19].content_store 	decision_yes[19] 	10311
scalar tree_4_3_u10_r12_network.node[19].content_store 	decision_no[19] 	0
scalar tree_4_3_u10_r12_network.node[19].content_store 	decision_ratio[19] 	1
scalar tree_4_3_u10_r12_network.node[20].core_layer 	interests[20] 	12116
scalar tree_4_3_u10_r12_network.node[20].core_layer 	data[20] 	10242
scalar tree_4_3_u10_r12_network.node[20].content_store 	p_hit[20] 	0.1545889732585
scalar tree_4_3_u10_r12_network.node[20].content_store 	hits[20] 	1873
scalar tree_4_3_u10_r12_network.node[20].content_store 	misses[20] 	10243
scalar tree_4_3_u10_r12_network.node[20].content_store 	decision_yes[20] 	10242
scalar tree_4_3_u10_r12_network.node[20].content_store 	decision_no[20] 	0
scalar tree_4_3_u10_r12_network.node[20].content_store 	decision_ratio[20] 	1
scalar tree_4_3_u10_r12_network.node[21].core_layer 	interests[21] 	12048
scalar tree_4_3_u10_r12_network.node[21].core_layer 	data[21] 	10240
scalar tree_4_3_u10_r12_network.node[21].content_store 	p_hit[21] 	0.1499833997344
scalar tree_4_3_u10_r12_network.node[21].content_store 	hits[21] 	1807
scalar tree_4_3_u10_r12_network.node[21].content_store 	misses[21] 	10241
scalar tree_4_3_u10_r12_network.node[21].content_store 	decision_yes[21] 	10240
scalar tree_4_3_u10_r12_network.node[21].content_store 	decision_no[21] 	0
scalar tree_4_3_u10_r12_network.node[21].content_store 	decision_ratio[21] 	1
scalar tree_4_3_u10_r12_network.node[22].core_layer 	interests[22] 	11730
scalar tree_4_3_u10_r12_network.node[22].core_layer 	data[22] 	9977
scalar tree_4_3_u10_r12_network.node[22].content_store 	p_hit[22] 	0.14936061381074
scalar tree_4_3_u10_r12_network.node[22].content_store 	hits[22] 	1752
scalar tree_4_3_u10_r12_network.node[22].content_store 	misses[22] 	9978
scalar tree_4_3_u10_r12_network.node[22].content_store 	decision_yes[22] 	9977
scalar tree_4_3_u10_r12_network.node[22].content_store 	decision_no[22] 	0
scalar tree_4_3_u10_r12_network.node[22].content_store 	decision_ratio[22] 	1
scalar tree_4_3_u10_r12_network.node[23].core_layer 	interests[23] 	12079
scalar tree_4_3_u10_r12_network.node[23].core_layer 	data[23] 	10230
scalar tree_4_3_u10_r12_network.node[23].content_store 	p_hit[23] 	0.152992797417
scalar tree_4_3_u10_r12_network.node[23].content_store 	hits[23] 	1848
scalar tree_4_3_u10_r12_network.node[23].content_store 	misses[23] 	10231
scalar tree_4_3_u10_r12_network.node[23].content_store 	decision_yes[23] 	10230
scalar tree_4_3_u10_r12_network.node[23].content_store 	decision_no[23] 	0
scalar tree_4_3_u10_r12_network.node[23].content_store 	decision_ratio[23] 	1
scalar tree_4_3_u10_r12_network.node[24].core_layer 	interests[24] 	11886
scalar tree_4_3_u10_r12_network.node[24].core_layer 	data[24] 	9980
scalar tree_4_3_u10_r12_network.node[24].content_store 	p_hit[24] 	0.16027258960121
scalar tree_4_3_u10_r12_network.node[24].content_store 	hits[24] 	1905
scalar tree_4_3_u10_r12_network.node[24].content_store 	misses[24] 	9981
scalar tree_4_3_u10_r12_network.node[24].content_store 	decision_yes[24] 	9980
scalar tree_4_3_u10_r12_network.node[24].content_store 	decision_no[24] 	0
scalar tree_4_3_u10_r12_network.node[24].content_store 	decision_ratio[24] 	1
scalar tree_4_3_u10_r12_network.node[25].core_layer 	interests[25] 	12014
scalar tree_4_3_u10_r12_network.node[25].core_layer 	data[25] 	10088
scalar tree_4_3_u10_r12_network.node[25].content_store 	p_hit[25] 	0.16014649575495
scalar tree_4_3_u10_r12_network.node[25].content_store 	hits[25] 	1924
scalar tree_4_3_u10_r12_network.node[25].content_store 	misses[25] 	10090
scalar tree_4_3_u10_r12_network.node[25].content_store 	decision_yes[25] 	10088
scalar tree_4_3_u10_r12_network.node[25].content_store 	decision_no[25] 	0
scalar tree_4_3_u10_r12_network.node[25].content_store 	decision_ratio[25] 	1
scalar tree_4_3_u10_r12_network.node[26].core_layer 	interests[26] 	11964
scalar tree_4_3_u10_r12_network.node[26].core_layer 	data[26] 	10113
scalar tree_4_3_u10_r12_network.node[26].content_store 	p_hit[26] 	0.1545469742561
scalar tree_4_3_u10_r12_network.node[26].content_store 	hits[26] 	1849
scalar tree_4_3_u10_r12_network.node[26].content_store 	misses[26] 	10115
scalar tree_4_3_u10_r12_network.node[26].content_store 	decision_yes[26] 	10113
scalar tree_4_3_u10_r12_network.node[26].content_store 	decision_no[26] 	0
scalar tree_4_3_u10_r12_network.node[26].content_store 	decision_ratio[26] 	1
scalar tree_4_3_u10_r12_network.node[27].core_layer 	interests[27] 	11898
scalar tree_4_3_u10_r12_network.node[27].core_layer 	data[27] 	10078
scalar tree_4_3_u10_r12_network.node[27].content_store 	p_hit[27] 	0.15296688519079
scalar tree_4_3_u10_r12_network.node[27].content_store 	hits[27] 	1820
scalar tree_4_3_u10_r12_network.node[27].content_store 	misses[27] 	10078
scalar tree_4_3_u10_r12_network.node[27].content_store 	decision_yes[27] 	10078
scalar tree_4_3_u10_r12_network.node[27].content_store 	decision_no[27] 	0
scalar tree_4_3_u10_r12_network.node[27].content_store 	decision_ratio[27] 	1
scalar tree_4_3_u10_r12_network.node[28].core_layer 	interests[28] 	11927
scalar tree_4_3_u10_r12_network.node[28].core_layer 	data[28] 	10008
scalar tree_4_3_u10_r12_network.node[28].content_store 	p_hit[28] 	0.16081160392387
scalar tree_4_3_u10_r12_network.node[28].content_store 	hits[28] 	1918
scalar tree_4_3_u10_r12_network.node[28].content_store 	misses[28] 	10009
scalar tree_4_3_u10_r12_network.node[28].content_store 	decision_yes[28] 	10008
scalar tree_4_3_u10_r12_network.node[28].content_store 	decision_no[28] 	0
scalar tree_4_3_u10_r12_network.node[28].content_store 	decision_ratio[28] 	1
scalar tree_4_3_u10_r12_network.node[29].core_layer 	interests[29] 	11986
scalar tree_4_3_u10_r12_network.node[29].core_layer 	data[29] 	10144
scalar tree_4_3_u10_r12_network.node[29].content_store 	p_hit[29] 	0.1535124311697
scalar tree_4_3_u10_r12_network.node[29].content_store 	hits[29] 	1840
scalar tree_4_3_u10_r12_network.node[29].content_store 	misses[29] 	10146
scalar tree_4_3_u10_r12_network.node[29].content_store 	decision_yes[29] 	10144
scalar tree_4_3_u10_r12_network.node[29].content_store 	decision_no[29] 	0
scalar tree_4_3_u10_r12_network.node[29].content_store 	decision_ratio[29] 	1
scalar tree_4_3_u10_r12_network.node[30].core_layer 	interests[30] 	12090
scalar tree_4_3_u10_r12_network.node[30].core_layer 	data[30] 	10223
scalar tree_4_3_u10_r12_network.node[30].content_store 	p_hit[30] 	0.15442514474773
scalar tree_4_3_u10_r12_network.node[30].content_store 	hits[30] 	1867
scalar tree_4_3_u10_r12_network.node[30].content_store 	misses[30] 	10223
scalar tree_4_3_u10_r12_network.node[30].content_store 	decision_yes[30] 	10223
scalar tree_4_3_u10_r12_network.node[30].content_store 	decision_no[30] 	0
scalar tree_4_3_u10_r12_network.node[30].content_store 	decision_ratio[30] 	1
scalar tree_4_3_u10_r12_network.node[31].core_layer 	interests[31] 	11851
scalar tree_4_3_u10_r12_network.node[31].core_layer 	data[31] 	9967
scalar tree_4_3_u10_r12_network.node[31].content_store 	p_hit[31] 	0.15897392625095
scalar tree_4_3_u10_r12_network.node[31].content_store 	hits[31] 	1884
scalar tree_4_3_u10_r12_network.node[31].content_store 	misses[31] 	9967
scalar tree_4_3_u10_r12_network.node[31].content_store 	decision_yes[31] 	9967
scalar tree_4_3_u10_r12_network.node[31].content_store 	decision_no[31] 	0
scalar tree_4_3_u10_r12_network.node[31].content_store 	decision_ratio[31] 	1
scalar tree_4_3_u10_r12_network.node[32].core_layer 	interests[32] 	11898
scalar tree_4_3_u10_r12_network.node[32].core_layer 	data[32] 	10057
scalar tree_4_3_u10_r12_network.node[32].content_store 	p_hit[32] 	0.15473188771222
scalar tree_4_3_u10_r12_network.node[32].content_store 	hits[32] 	1841
scalar tree_4_3_u10_r12_network.node[32].content_store 	misses[32] 	10057
scalar tree_4_3_u10_r12_network.node[32].content_store 	decision_yes[32] 	10057
scalar tree_4_3_u10_r12_network.node[32].content_store 	decision_no[32] 	0
scalar tree_4_3_u10_r12_network.node[32].content_store 	decision_ratio[32] 	1
scalar tree_4_3_u10_r12_network.node[33].core_layer 	interests[33] 	12239
scalar tree_4_3_u10_r12_network.node[33].core_layer 	data[33] 	10297
scalar tree_4_3_u10_r12_network.node[33].content_store 	p_hit[33] 	0.15842797614184
scalar tree_4_3_u10_r12_network.node[33].content_store 	hits[33] 	1939
scalar tree_4_3_u10_r12_network.node[33].content_store 	misses[33] 	10300
scalar tree_4_3_u10_r12_network.node[33].content_store 	decision_yes[33] 	10297
scalar tree_4_3_u10_r12_network.node[33].content_store 	decision_no[33] 	0
scalar tree_4_3_u10_r12_network.node[33].content_store 	decision_ratio[33] 	1
scalar tree_4_3_u10_r12_network.node[34].core_layer 	interests[34] 	12105
scalar tree_4_3_u10_r12_network.node[34].core_layer 	data[34] 	10275
scalar tree_4_3_u10_r12_network.node[34].content_store 	p_hit[34] 	0.15101197852127
scalar tree_4_3_u10_r12_network.node[34].content_store 	hits[34] 	1828
scalar tree_4_3_u10_r12_network.node[34].content_store 	misses[34] 	10277
scalar tree_4_3_u10_r12_network.node[34].content_store 	decision_yes[34] 	10275
scalar tree_4_3_u10_r12_network.node[34].content_store 	decision_no[34] 	0
scalar tree_4_3_u10_r12_network.node[34].content_store 	decision_ratio[34] 	1
scalar tree_4_3_u10_r12_network.node[35].core_layer 	interests[35] 	11958
scalar tree_4_3_u10_r12_network.node[35].core_layer 	data[35] 	10137
scalar tree_4_3_u10_r12_network.node[35].content_store 	p_hit[35] 	0.15228299046663
scalar tree_4_3_u10_r12_network.node[35].content_store 	hits[35] 	1821
scalar tree_4_3_u10_r12_network.node[35].content_store 	misses[35] 	10137
scalar tree_4_3_u10_r12_network.node[35].content_store 	decision_yes[35] 	10137
scalar tree_4_3_u10_r12_network.node[35].content_store 	decision_no[35] 	0
scalar tree_4_3_u10_r12_network.node[35].content_store 	decision_ratio[35] 	1
scalar tree_4_3_u10_r12_network.node[36].core_layer 	interests[36] 	12114
scalar tree_4_3_u10_r12_network.node[36].core_layer 	data[36] 	10177
scalar tree_4_3_u10_r12_network.node[36].content_store 	p_hit[36] 	0.15981508997854
scalar tree_4_3_u10_r12_network.node[36].content_store 	hits[36] 	1936
scalar tree_4_3_u10_r12_network.node[36].content_store 	misses[36] 	10178
scalar tree_4_3_u10_r12_network.node[36].content_store 	decision_yes[36] 	10177
scalar tree_4_3_u10_r12_network.node[36].content_store 	decision_no[36] 	0
scalar tree_4_3_u10_r12_network.node[36].content_store 	decision_ratio[36] 	1
scalar tree_4_3_u10_r12_network.node[37].core_layer 	interests[37] 	11828
scalar tree_4_3_u10_r12_network.node[37].core_layer 	data[37] 	9977
scalar tree_4_3_u10_r12_network.node[37].content_store 	p_hit[37] 	0.15649306729794
scalar tree_4_3_u10_r12_network.node[37].content_store 	hits[37] 	1851
scalar tree_4_3_u10_r12_network.node[37].content_store 	misses[37] 	9977
scalar tree_4_3_u10_r12_network.node[37].content_store 	decision_yes[37] 	9977
scalar tree_4_3_u10_r12_network.node[37].content_store 	decision_no[37] 	0
scalar tree_4_3_u10_r12_network.node[37].content_store 	decision_ratio[37] 	1
scalar tree_4_3_u10_r12_network.node[38].core_layer 	interests[38] 	12052
scalar tree_4_3_u10_r12_network.node[38].core_layer 	data[38] 	10056
scalar tree_4_3_u10_r12_network.node[38].content_store 	p_hit[38] 	0.16544971788915
scalar tree_4_3_u10_r12_network.node[38].content_store 	hits[38] 	1994
scalar tree_4_3_u10_r12_network.node[38].content_store 	misses[38] 	10058
scalar tree_4_3_u10_r12_network.node[38].content_store 	decision_yes[38] 	10056
scalar tree_4_3_u10_r12_network.node[38].content_store 	decision_no[38] 	0
scalar tree_4_3_u10_r12_network.node[38].content_store 	decision_ratio[38] 	1
scalar tree_4_3_u10_r12_network.node[39].core_layer 	interests[39] 	11979
scalar tree_4_3_u10_r12_network.node[39].core_layer 	data[39] 	10217
scalar tree_4_3_u10_r12_network.node[39].content_store 	p_hit[39] 	0.14717422155439
scalar tree_4_3_u10_r12_network.node[39].content_store 	hits[39] 	1763
scalar tree_4_3_u10_r12_network.node[39].content_store 	misses[39] 	10216
scalar tree_4_3_u10_r12_network.node[39].content_store 	decision_yes[39] 	10217
scalar tree_4_3_u10_r12_network.node[39].content_store 	decision_no[39] 	0
scalar tree_4_3_u10_r12_network.node[39].content_store 	decision_ratio[39] 	1
scalar tree_4_3_u10_r12_network.client[13] 	hdistance[13] 	3.3877721244474
scalar tree_4_3_u10_r12_network.client[13] 	downloads[13] 	11989
scalar tree_4_3_u10_r12_network.client[13] 	avg_time[13] 	0.005081320319
scalar tree_4_3_u10_r12_network.client[14] 	hdistance[14] 	3.3549237742068
scalar tree_4_3_u10_r12_network.client[14] 	downloads[14] 	12135
scalar tree_4_3_u10_r12_network.client[14] 	avg_time[14] 	0.005031808539
scalar tree_4_3_u10_r12_network.client[15] 	hdistance[15] 	3.4151582775436
scalar tree_4_3_u10_r12_network.client[15] 	downloads[15] 	12099
scalar tree_4_3_u10_r12_network.client[15] 	avg_time[15] 	0.005122380285
scalar tree_4_3_u10_r12_network.client[16] 	hdistance[16] 	3.3593388429752
scalar tree_4_3_u10_r12_network.client[16] 	downloads[16] 	12100
scalar tree_4_3_u10_r12_network.client[16] 	avg_time[16] 	0.005038764914
scalar tree_4_3_u10_r12_network.client[17] 	hdistance[17] 	3.3660840029824
scalar tree_4_3_u10_r12_network.client[17] 	downloads[17] 	12071
scalar tree_4_3_u10_r12_network.client[17] 	avg_time[17] 	0.005048686547
scalar tree_4_3_u10_r12_network.client[18] 	hdistance[18] 	3.3631087559929
scalar tree_4_3_u10_r12_network.client[18] 	downloads[18] 	11889
scalar tree_4_3_u10_r12_network.client[18] 	avg_time[18] 	0.005044306981
scalar tree_4_3_u10_r12_network.client[19] 	hdistance[19] 	3.3729146221786
scalar tree_4_3_u10_r12_network.client[19] 	downloads[19] 	12228
scalar tree_4_3_u10_r12_network.client[19] 	avg_time[19] 	0.005059036066
scalar tree_4_3_u10_r12_network.client[20] 	hdistance[20] 	3.3815930664465
scalar tree_4_3_u10_r12_network.client[20] 	downloads[20] 	12115
scalar tree_4_3_u10_r12_network.client[20] 	avg_time[20] 	0.005071868762
scalar tree_4_3_u10_r12_network.client[21] 	hdistance[21] 	3.4000166016436
scalar tree_4_3_u10_r12_network.client[21] 	downloads[21] 	12047
scalar tree_4_3_u10_r12_network.client[21] 	avg_time[21] 	0.00509940786
scalar tree_4_3_u10_r12_network.client[22] 	hdistance[22] 	3.4025066075539
scalar tree_4_3_u10_r12_network.client[22] 	downloads[22] 	11729
scalar tree_4_3_u10_r12_network.client[22] 	avg_time[22] 	0.005103225464
scalar tree_4_3_u10_r12_network.client[23] 	hdistance[23] 	3.3879781420765
scalar tree_4_3_u10_r12_network.client[23] 	downloads[23] 	12078
scalar tree_4_3_u10_r12_network.client[23] 	avg_time[23] 	0.005081969422
scalar tree_4_3_u10_r12_network.client[24] 	hdistance[24] 	3.3588557004628
scalar tree_4_3_u10_r12_network.client[24] 	downloads[24] 	11885
scalar tree_4_3_u10_r12_network.client[24] 	avg_time[24] 	0.005038047753
scalar tree_4_3_u10_r12_network.client[25] 	hdistance[25] 	3.3593073593074
scalar tree_4_3_u10_r12_network.client[25] 	downloads[25] 	12012
scalar tree_4_3_u10_r12_network.client[25] 	avg_time[25] 	0.005038595386
scalar tree_4_3_u10_r12_network.client[26] 	hdistance[26] 	3.3817087443571
scalar tree_4_3_u10_r12_network.client[26] 	downloads[26] 	11962
scalar tree_4_3_u10_r12_network.client[26] 	avg_time[26] 	0.005071777439
scalar tree_4_3_u10_r12_network.client[27] 	hdistance[27] 	3.3881324592369
scalar tree_4_3_u10_r12_network.client[27] 	downloads[27] 	11898
scalar tree_4_3_u10_r12_network.client[27] 	avg_time[27] 	0.005081944683
scalar tree_4_3_u10_r12_network.client[28] 	hdistance[28] 	3.3566996478283
scalar tree_4_3_u10_r12_network.client[28] 	downloads[28] 	11926
scalar tree_4_3_u10_r12_network.client[28] 	avg_time[28] 	0.005033842823
scalar tree_4_3_u10_r12_network.client[29] 	hdistance[29] 	3.3858477970627
scalar tree_4_3_u10_r12_network.client[29] 	downloads[29] 	11984
scalar tree_4_3_u10_r12_network.client[29] 	avg_time[29] 	0.005078520328
scalar tree_4_3_u10_r12_network.client[30] 	hdistance[30] 	3.3822994210091
scalar tree_4_3_u10_r12_network.client[30] 	downloads[30] 	12090
scalar tree_4_3_u10_r12_network.client[30] 	avg_time[30] 	0.00507344613
scalar tree_4_3_u10_r12_network.client[31] 	hdistance[31] 	3.3641042949962
scalar tree_4_3_u10_r12_network.client[31] 	downloads[31] 	11851
scalar tree_4_3_u10_r12_network.client[31] 	avg_time[31] 	0.005046072184
scalar tree_4_3_u10_r12_network.client[32] 	hdistance[32] 	3.3810724491511
scalar tree_4_3_u10_r12_network.client[32] 	downloads[32] 	11898
scalar tree_4_3_u10_r12_network.client[32] 	avg_time[32] 	0.005071124248
scalar tree_4_3_u10_r12_network.client[33] 	hdistance[33] 	3.3661327231121
scalar tree_4_3_u10_r12_network.client[33] 	downloads[33] 	12236
scalar tree_4_3_u10_r12_network.client[33] 	avg_time[33] 	0.005048913336
scalar tree_4_3_u10_r12_network.client[34] 	hdistance[34] 	3.3958522680327
scalar tree_4_3_u10_r12_network.client[34] 	downloads[34] 	12103
scalar tree_4_3_u10_r12_network.client[34] 	avg_time[34] 	0.005092994648
scalar tree_4_3_u10_r12_network.client[35] 	hdistance[35] 	3.3908680381335
scalar tree_4_3_u10_r12_network.client[35] 	downloads[35] 	11958
scalar tree_4_3_u10_r12_network.client[35] 	avg_time[35] 	0.005086258418
scalar tree_4_3_u10_r12_network.client[36] 	hdistance[36] 	3.3606868653513
scalar tree_4_3_u10_r12_network.client[36] 	downloads[36] 	12113
scalar tree_4_3_u10_r12_network.client[36] 	avg_time[36] 	0.005040803963
scalar tree_4_3_u10_r12_network.client[37] 	hdistance[37] 	3.3740277308083
scalar tree_4_3_u10_r12_network.client[37] 	downloads[37] 	11828
scalar tree_4_3_u10_r12_network.client[37] 	avg_time[37] 	0.005060415605
scalar tree_4_3_u10_r12_network.client[38] 	hdistance[38] 	3.338091286307
scalar tree_4_3_u10_r12_network.client[38] 	downloads[38] 	12050
scalar tree_4_3_u10_r12_network.client[38] 	avg_time[38] 	0.005006619792
scalar tree_4_3_u10_r12_network.client[39] 	hdistance[39] 	3.4113522537563
scalar tree_4_3_u10_r12_network.client[39] 	downloads[39] 	11980
scalar tree_4_3_u10_r12_network.client[39] 	avg_time[39] 	0.005117025391
