version 2
run General-84-20160825-09:46:03-24543
attr D lcd
attr F nrr
attr R lru
attr a 0.9
attr configname General
attr datetime 20160825-09:46:03
attr experiment General
attr inifile hw5115/scenario_C/omnetp.ini
attr iterationvars "$net=dtelecom, $rep=10, $a=0.9, $F=nrr, $D=lcd, $R=lru, $window=60, $variance=0.05, $mytime=600"
attr iterationvars2 "$net=dtelecom, $rep=10, $a=0.9, $F=nrr, $D=lcd, $R=lru, $window=60, $variance=0.05, $mytime=600, $repetition=0"
attr measurement "$net=dtelecom, $rep=10, $a=0.9, $F=nrr, $D=lcd, $R=lru, $window=60, $variance=0.05, $mytime=600"
attr mytime 600
attr net dtelecom
attr network networks.${net=dtelecom}_network
attr processid 24543
attr rep 10
attr repetition 0
attr replication #0
attr resultdir results
attr runnumber 84
attr seedset 10
attr variance 0.05
attr window 60

scalar . 	a 	0.9
scalar . 	mytime 	600
scalar . 	rep 	10
scalar . 	variance 	0.05
scalar . 	window 	60
scalar dtelecom_network.content_distribution 	repo-0 	16
scalar dtelecom_network.content_distribution 	repo-1 	23
scalar dtelecom_network.content_distribution 	repo-2 	58
scalar dtelecom_network.content_distribution 	repo-3 	28
scalar dtelecom_network.content_distribution 	repo-4 	42
scalar dtelecom_network.content_distribution 	repo-5 	46
scalar dtelecom_network.content_distribution 	repo-6 	6
scalar dtelecom_network.content_distribution 	repo-7 	18
scalar dtelecom_network.content_distribution 	repo-8 	25
scalar dtelecom_network.content_distribution 	repo-9 	10
scalar dtelecom_network.content_distribution 	repo-10 	44
scalar dtelecom_network.content_distribution 	repo-11 	54
scalar dtelecom_network.content_distribution 	repo-12 	24
scalar dtelecom_network.content_distribution 	repo-13 	31
scalar dtelecom_network.content_distribution 	repo-14 	65
scalar dtelecom_network.content_distribution 	repo-15 	27
scalar dtelecom_network.content_distribution 	client-0 	46
scalar dtelecom_network.content_distribution 	client-1 	30
scalar dtelecom_network.content_distribution 	client-2 	8
scalar dtelecom_network.content_distribution 	client-3 	49
scalar dtelecom_network.content_distribution 	client-4 	66
scalar dtelecom_network.content_distribution 	client-5 	58
scalar dtelecom_network.content_distribution 	client-6 	32
scalar dtelecom_network.content_distribution 	client-7 	40
scalar dtelecom_network.content_distribution 	client-8 	42
scalar dtelecom_network.content_distribution 	client-9 	45
scalar dtelecom_network.content_distribution 	client-10 	33
scalar dtelecom_network.content_distribution 	client-11 	28
scalar dtelecom_network.content_distribution 	client-12 	3
scalar dtelecom_network.content_distribution 	client-13 	57
scalar dtelecom_network.content_distribution 	client-14 	50
scalar dtelecom_network.content_distribution 	client-15 	17
scalar dtelecom_network.content_distribution 	client-16 	59
scalar dtelecom_network.content_distribution 	client-17 	48
scalar dtelecom_network.content_distribution 	client-18 	23
scalar dtelecom_network.content_distribution 	client-19 	22
scalar dtelecom_network.content_distribution 	client-20 	67
scalar dtelecom_network.content_distribution 	client-21 	62
scalar dtelecom_network.content_distribution 	client-22 	56
scalar dtelecom_network.content_distribution 	client-23 	55
scalar dtelecom_network.content_distribution 	client-24 	53
scalar dtelecom_network.content_distribution 	client-25 	36
scalar dtelecom_network.content_distribution 	client-26 	51
scalar dtelecom_network.content_distribution 	client-27 	37
scalar dtelecom_network.content_distribution 	client-28 	54
scalar dtelecom_network.content_distribution 	client-29 	4
scalar dtelecom_network.content_distribution 	client-30 	31
scalar dtelecom_network.content_distribution 	client-31 	9
scalar dtelecom_network.content_distribution 	repo-0_card 	6240
scalar dtelecom_network.content_distribution 	repo-0_price 	0
scalar dtelecom_network.content_distribution 	repo-1_card 	6300
scalar dtelecom_network.content_distribution 	repo-1_price 	0
scalar dtelecom_network.content_distribution 	repo-2_card 	6351
scalar dtelecom_network.content_distribution 	repo-2_price 	0
scalar dtelecom_network.content_distribution 	repo-3_card 	6069
scalar dtelecom_network.content_distribution 	repo-3_price 	0
scalar dtelecom_network.content_distribution 	repo-4_card 	6322
scalar dtelecom_network.content_distribution 	repo-4_price 	0
scalar dtelecom_network.content_distribution 	repo-5_card 	6183
scalar dtelecom_network.content_distribution 	repo-5_price 	0
scalar dtelecom_network.content_distribution 	repo-6_card 	6236
scalar dtelecom_network.content_distribution 	repo-6_price 	0
scalar dtelecom_network.content_distribution 	repo-7_card 	6223
scalar dtelecom_network.content_distribution 	repo-7_price 	0
scalar dtelecom_network.content_distribution 	repo-8_card 	6295
scalar dtelecom_network.content_distribution 	repo-8_price 	0
scalar dtelecom_network.content_distribution 	repo-9_card 	6273
scalar dtelecom_network.content_distribution 	repo-9_price 	0
scalar dtelecom_network.content_distribution 	repo-10_card 	6196
scalar dtelecom_network.content_distribution 	repo-10_price 	0
scalar dtelecom_network.content_distribution 	repo-11_card 	6130
scalar dtelecom_network.content_distribution 	repo-11_price 	0
scalar dtelecom_network.content_distribution 	repo-12_card 	6287
scalar dtelecom_network.content_distribution 	repo-12_price 	0
scalar dtelecom_network.content_distribution 	repo-13_card 	6300
scalar dtelecom_network.content_distribution 	repo-13_price 	0
scalar dtelecom_network.content_distribution 	repo-14_card 	6333
scalar dtelecom_network.content_distribution 	repo-14_price 	0
scalar dtelecom_network.content_distribution 	repo-15_card 	6262
scalar dtelecom_network.content_distribution 	repo-15_price 	0
scalar dtelecom_network.statistics 	stabilization_time 	1557
scalar dtelecom_network.statistics 	p_hit 	0.26914680448505
scalar dtelecom_network.statistics 	interests 	13161.705882353
scalar dtelecom_network.statistics 	data 	7524.2058823529
scalar dtelecom_network.statistics 	hdistance 	1.8738278326304
scalar dtelecom_network.statistics 	avg_time 	0.020983907614
scalar dtelecom_network.statistics 	downloads 	383287
scalar dtelecom_network.statistics 	total_cost 	0
scalar dtelecom_network.statistics 	total_replicas 	100000
scalar dtelecom_network.statistics 	inner_hit 	0.46105659727567
scalar dtelecom_network.node[0].core_layer 	interests[0] 	3373
scalar dtelecom_network.node[0].core_layer 	data[0] 	1071
scalar dtelecom_network.node[0].core_layer 	repo_int[0] 	206570
scalar dtelecom_network.node[0].content_store 	p_hit[0] 	0.683071449748
scalar dtelecom_network.node[0].content_store 	hits[0] 	2304
scalar dtelecom_network.node[0].content_store 	misses[0] 	1069
scalar dtelecom_network.node[0].content_store 	decision_yes[0] 	60
scalar dtelecom_network.node[0].content_store 	decision_no[0] 	1011
scalar dtelecom_network.node[0].content_store 	decision_ratio[0] 	0.056022408963585
scalar dtelecom_network.node[1].core_layer 	interests[1] 	179297
scalar dtelecom_network.node[1].core_layer 	data[1] 	172233
scalar dtelecom_network.node[1].content_store 	p_hit[1] 	0.039258883305354
scalar dtelecom_network.node[1].content_store 	hits[1] 	7039
scalar dtelecom_network.node[1].content_store 	misses[1] 	172258
scalar dtelecom_network.node[1].content_store 	decision_yes[1] 	31085
scalar dtelecom_network.node[1].content_store 	decision_no[1] 	141148
scalar dtelecom_network.node[1].content_store 	decision_ratio[1] 	0.18048225369122
scalar dtelecom_network.node[2].core_layer 	interests[2] 	3792
scalar dtelecom_network.node[2].core_layer 	data[2] 	827
scalar dtelecom_network.node[2].content_store 	p_hit[2] 	0.78190928270042
scalar dtelecom_network.node[2].content_store 	hits[2] 	2965
scalar dtelecom_network.node[2].content_store 	misses[2] 	827
scalar dtelecom_network.node[2].content_store 	decision_yes[2] 	373
scalar dtelecom_network.node[2].content_store 	decision_no[2] 	454
scalar dtelecom_network.node[2].content_store 	decision_ratio[2] 	0.45102781136638
scalar dtelecom_network.node[3].core_layer 	interests[3] 	23062
scalar dtelecom_network.node[3].core_layer 	data[3] 	9091
scalar dtelecom_network.node[3].content_store 	p_hit[3] 	0.60575839042581
scalar dtelecom_network.node[3].content_store 	hits[3] 	13970
scalar dtelecom_network.node[3].content_store 	misses[3] 	9092
scalar dtelecom_network.node[3].content_store 	decision_yes[3] 	2587
scalar dtelecom_network.node[3].content_store 	decision_no[3] 	6504
scalar dtelecom_network.node[3].content_store 	decision_ratio[3] 	0.28456715432846
scalar dtelecom_network.node[4].core_layer 	interests[4] 	51830
scalar dtelecom_network.node[4].core_layer 	data[4] 	40078
scalar dtelecom_network.node[4].content_store 	p_hit[4] 	0.2260659849508
scalar dtelecom_network.node[4].content_store 	hits[4] 	11717
scalar dtelecom_network.node[4].content_store 	misses[4] 	40113
scalar dtelecom_network.node[4].content_store 	decision_yes[4] 	9810
scalar dtelecom_network.node[4].content_store 	decision_no[4] 	30263
scalar dtelecom_network.node[4].content_store 	decision_ratio[4] 	0.24480323409777
scalar dtelecom_network.node[5].core_layer 	interests[5] 	0
scalar dtelecom_network.node[5].core_layer 	data[5] 	0
scalar dtelecom_network.node[5].content_store 	p_hit[5] 	-nan
scalar dtelecom_network.node[5].content_store 	hits[5] 	0
scalar dtelecom_network.node[5].content_store 	misses[5] 	0
scalar dtelecom_network.node[5].content_store 	decision_yes[5] 	0
scalar dtelecom_network.node[5].content_store 	decision_no[5] 	0
scalar dtelecom_network.node[5].content_store 	decision_ratio[5] 	0
scalar dtelecom_network.node[6].core_layer 	interests[6] 	11576
scalar dtelecom_network.node[6].core_layer 	repo_load[6] 	10876
scalar dtelecom_network.node[6].core_layer 	data[6] 	0
scalar dtelecom_network.node[6].content_store 	p_hit[6] 	0.06046993780235
scalar dtelecom_network.node[6].content_store 	hits[6] 	700
scalar dtelecom_network.node[6].content_store 	misses[6] 	10876
scalar dtelecom_network.node[6].content_store 	decision_yes[6] 	10876
scalar dtelecom_network.node[6].content_store 	decision_no[6] 	0
scalar dtelecom_network.node[6].content_store 	decision_ratio[6] 	1
scalar dtelecom_network.node[7].core_layer 	interests[7] 	0
scalar dtelecom_network.node[7].core_layer 	data[7] 	0
scalar dtelecom_network.node[7].content_store 	p_hit[7] 	-nan
scalar dtelecom_network.node[7].content_store 	hits[7] 	0
scalar dtelecom_network.node[7].content_store 	misses[7] 	0
scalar dtelecom_network.node[7].content_store 	decision_yes[7] 	0
scalar dtelecom_network.node[7].content_store 	decision_no[7] 	0
scalar dtelecom_network.node[7].content_store 	decision_ratio[7] 	0
scalar dtelecom_network.node[8].core_layer 	interests[8] 	13272
scalar dtelecom_network.node[8].core_layer 	data[8] 	8964
scalar dtelecom_network.node[8].content_store 	p_hit[8] 	0.32444243520193
scalar dtelecom_network.node[8].content_store 	hits[8] 	4306
scalar dtelecom_network.node[8].content_store 	misses[8] 	8966
scalar dtelecom_network.node[8].content_store 	decision_yes[8] 	1180
scalar dtelecom_network.node[8].content_store 	decision_no[8] 	7784
scalar dtelecom_network.node[8].content_store 	decision_ratio[8] 	0.13163766175814
scalar dtelecom_network.node[9].core_layer 	interests[9] 	14643
scalar dtelecom_network.node[9].core_layer 	data[9] 	9426
scalar dtelecom_network.node[9].content_store 	p_hit[9] 	0.35621115891552
scalar dtelecom_network.node[9].content_store 	hits[9] 	5216
scalar dtelecom_network.node[9].content_store 	misses[9] 	9427
scalar dtelecom_network.node[9].content_store 	decision_yes[9] 	1805
scalar dtelecom_network.node[9].content_store 	decision_no[9] 	7621
scalar dtelecom_network.node[9].content_store 	decision_ratio[9] 	0.19149161892637
scalar dtelecom_network.node[10].core_layer 	interests[10] 	13744
scalar dtelecom_network.node[10].core_layer 	repo_load[10] 	12760
scalar dtelecom_network.node[10].core_layer 	data[10] 	0
scalar dtelecom_network.node[10].content_store 	p_hit[10] 	0.071594877764843
scalar dtelecom_network.node[10].content_store 	hits[10] 	984
scalar dtelecom_network.node[10].content_store 	misses[10] 	12760
scalar dtelecom_network.node[10].content_store 	decision_yes[10] 	12760
scalar dtelecom_network.node[10].content_store 	decision_no[10] 	0
scalar dtelecom_network.node[10].content_store 	decision_ratio[10] 	1
scalar dtelecom_network.node[11].core_layer 	interests[11] 	0
scalar dtelecom_network.node[11].core_layer 	data[11] 	0
scalar dtelecom_network.node[11].content_store 	p_hit[11] 	-nan
scalar dtelecom_network.node[11].content_store 	hits[11] 	0
scalar dtelecom_network.node[11].content_store 	misses[11] 	0
scalar dtelecom_network.node[11].content_store 	decision_yes[11] 	0
scalar dtelecom_network.node[11].content_store 	decision_no[11] 	0
scalar dtelecom_network.node[11].content_store 	decision_ratio[11] 	0
scalar dtelecom_network.node[12].core_layer 	interests[12] 	0
scalar dtelecom_network.node[12].core_layer 	data[12] 	0
scalar dtelecom_network.node[12].content_store 	p_hit[12] 	-nan
scalar dtelecom_network.node[12].content_store 	hits[12] 	0
scalar dtelecom_network.node[12].content_store 	misses[12] 	0
scalar dtelecom_network.node[12].content_store 	decision_yes[12] 	0
scalar dtelecom_network.node[12].content_store 	decision_no[12] 	0
scalar dtelecom_network.node[12].content_store 	decision_ratio[12] 	0
scalar dtelecom_network.node[13].core_layer 	interests[13] 	0
scalar dtelecom_network.node[13].core_layer 	data[13] 	0
scalar dtelecom_network.node[13].content_store 	p_hit[13] 	-nan
scalar dtelecom_network.node[13].content_store 	hits[13] 	0
scalar dtelecom_network.node[13].content_store 	misses[13] 	0
scalar dtelecom_network.node[13].content_store 	decision_yes[13] 	0
scalar dtelecom_network.node[13].content_store 	decision_no[13] 	0
scalar dtelecom_network.node[13].content_store 	decision_ratio[13] 	0
scalar dtelecom_network.node[14].core_layer 	interests[14] 	0
scalar dtelecom_network.node[14].core_layer 	data[14] 	0
scalar dtelecom_network.node[14].content_store 	p_hit[14] 	-nan
scalar dtelecom_network.node[14].content_store 	hits[14] 	0
scalar dtelecom_network.node[14].content_store 	misses[14] 	0
scalar dtelecom_network.node[14].content_store 	decision_yes[14] 	0
scalar dtelecom_network.node[14].content_store 	decision_no[14] 	0
scalar dtelecom_network.node[14].content_store 	decision_ratio[14] 	0
scalar dtelecom_network.node[15].core_layer 	interests[15] 	0
scalar dtelecom_network.node[15].core_layer 	data[15] 	0
scalar dtelecom_network.node[15].content_store 	p_hit[15] 	-nan
scalar dtelecom_network.node[15].content_store 	hits[15] 	0
scalar dtelecom_network.node[15].content_store 	misses[15] 	0
scalar dtelecom_network.node[15].content_store 	decision_yes[15] 	0
scalar dtelecom_network.node[15].content_store 	decision_no[15] 	0
scalar dtelecom_network.node[15].content_store 	decision_ratio[15] 	0
scalar dtelecom_network.node[16].core_layer 	interests[16] 	13838
scalar dtelecom_network.node[16].core_layer 	repo_load[16] 	12789
scalar dtelecom_network.node[16].core_layer 	data[16] 	0
scalar dtelecom_network.node[16].content_store 	p_hit[16] 	0.075805752276341
scalar dtelecom_network.node[16].content_store 	hits[16] 	1049
scalar dtelecom_network.node[16].content_store 	misses[16] 	12789
scalar dtelecom_network.node[16].content_store 	decision_yes[16] 	12789
scalar dtelecom_network.node[16].content_store 	decision_no[16] 	0
scalar dtelecom_network.node[16].content_store 	decision_ratio[16] 	1
scalar dtelecom_network.node[17].core_layer 	interests[17] 	13605
scalar dtelecom_network.node[17].core_layer 	data[17] 	9145
scalar dtelecom_network.node[17].content_store 	p_hit[17] 	0.32782065417126
scalar dtelecom_network.node[17].content_store 	hits[17] 	4460
scalar dtelecom_network.node[17].content_store 	misses[17] 	9145
scalar dtelecom_network.node[17].content_store 	decision_yes[17] 	1550
scalar dtelecom_network.node[17].content_store 	decision_no[17] 	7595
scalar dtelecom_network.node[17].content_store 	decision_ratio[17] 	0.16949152542373
scalar dtelecom_network.node[18].core_layer 	interests[18] 	13454
scalar dtelecom_network.node[18].core_layer 	repo_load[18] 	12470
scalar dtelecom_network.node[18].core_layer 	data[18] 	0
scalar dtelecom_network.node[18].content_store 	p_hit[18] 	0.073138100193251
scalar dtelecom_network.node[18].content_store 	hits[18] 	984
scalar dtelecom_network.node[18].content_store 	misses[18] 	12470
scalar dtelecom_network.node[18].content_store 	decision_yes[18] 	12470
scalar dtelecom_network.node[18].content_store 	decision_no[18] 	0
scalar dtelecom_network.node[18].content_store 	decision_ratio[18] 	1
scalar dtelecom_network.node[19].core_layer 	interests[19] 	0
scalar dtelecom_network.node[19].core_layer 	data[19] 	0
scalar dtelecom_network.node[19].content_store 	p_hit[19] 	-nan
scalar dtelecom_network.node[19].content_store 	hits[19] 	0
scalar dtelecom_network.node[19].content_store 	misses[19] 	0
scalar dtelecom_network.node[19].content_store 	decision_yes[19] 	0
scalar dtelecom_network.node[19].content_store 	decision_no[19] 	0
scalar dtelecom_network.node[19].content_store 	decision_ratio[19] 	0
scalar dtelecom_network.node[20].core_layer 	interests[20] 	0
scalar dtelecom_network.node[20].core_layer 	data[20] 	0
scalar dtelecom_network.node[20].content_store 	p_hit[20] 	-nan
scalar dtelecom_network.node[20].content_store 	hits[20] 	0
scalar dtelecom_network.node[20].content_store 	misses[20] 	0
scalar dtelecom_network.node[20].content_store 	decision_yes[20] 	0
scalar dtelecom_network.node[20].content_store 	decision_no[20] 	0
scalar dtelecom_network.node[20].content_store 	decision_ratio[20] 	0
scalar dtelecom_network.node[21].core_layer 	interests[21] 	0
scalar dtelecom_network.node[21].core_layer 	data[21] 	0
scalar dtelecom_network.node[21].content_store 	p_hit[21] 	-nan
scalar dtelecom_network.node[21].content_store 	hits[21] 	0
scalar dtelecom_network.node[21].content_store 	misses[21] 	0
scalar dtelecom_network.node[21].content_store 	decision_yes[21] 	0
scalar dtelecom_network.node[21].content_store 	decision_no[21] 	0
scalar dtelecom_network.node[21].content_store 	decision_ratio[21] 	0
scalar dtelecom_network.node[22].core_layer 	interests[22] 	13237
scalar dtelecom_network.node[22].core_layer 	data[22] 	8920
scalar dtelecom_network.node[22].content_store 	p_hit[22] 	0.32605575281408
scalar dtelecom_network.node[22].content_store 	hits[22] 	4316
scalar dtelecom_network.node[22].content_store 	misses[22] 	8921
scalar dtelecom_network.node[22].content_store 	decision_yes[22] 	1213
scalar dtelecom_network.node[22].content_store 	decision_no[22] 	7707
scalar dtelecom_network.node[22].content_store 	decision_ratio[22] 	0.1359865470852
scalar dtelecom_network.node[23].core_layer 	interests[23] 	37648
scalar dtelecom_network.node[23].core_layer 	repo_load[23] 	13848
scalar dtelecom_network.node[23].core_layer 	data[23] 	19858
scalar dtelecom_network.node[23].content_store 	p_hit[23] 	0.10452082447939
scalar dtelecom_network.node[23].content_store 	hits[23] 	3935
scalar dtelecom_network.node[23].content_store 	misses[23] 	33713
scalar dtelecom_network.node[23].content_store 	decision_yes[23] 	19702
scalar dtelecom_network.node[23].content_store 	decision_no[23] 	14004
scalar dtelecom_network.node[23].content_store 	decision_ratio[23] 	0.58452501038391
scalar dtelecom_network.node[24].core_layer 	interests[24] 	14485
scalar dtelecom_network.node[24].core_layer 	repo_load[24] 	13402
scalar dtelecom_network.node[24].core_layer 	data[24] 	0
scalar dtelecom_network.node[24].content_store 	p_hit[24] 	0.074767000345185
scalar dtelecom_network.node[24].content_store 	hits[24] 	1083
scalar dtelecom_network.node[24].content_store 	misses[24] 	13402
scalar dtelecom_network.node[24].content_store 	decision_yes[24] 	13402
scalar dtelecom_network.node[24].content_store 	decision_no[24] 	0
scalar dtelecom_network.node[24].content_store 	decision_ratio[24] 	1
scalar dtelecom_network.node[25].core_layer 	interests[25] 	13399
scalar dtelecom_network.node[25].core_layer 	repo_load[25] 	12582
scalar dtelecom_network.node[25].core_layer 	data[25] 	0
scalar dtelecom_network.node[25].content_store 	p_hit[25] 	0.060974699604448
scalar dtelecom_network.node[25].content_store 	hits[25] 	817
scalar dtelecom_network.node[25].content_store 	misses[25] 	12582
scalar dtelecom_network.node[25].content_store 	decision_yes[25] 	12582
scalar dtelecom_network.node[25].content_store 	decision_no[25] 	0
scalar dtelecom_network.node[25].content_store 	decision_ratio[25] 	1
scalar dtelecom_network.node[26].core_layer 	interests[26] 	4709
scalar dtelecom_network.node[26].core_layer 	data[26] 	1692
scalar dtelecom_network.node[26].content_store 	p_hit[26] 	0.64068804417074
scalar dtelecom_network.node[26].content_store 	hits[26] 	3017
scalar dtelecom_network.node[26].content_store 	misses[26] 	1692
scalar dtelecom_network.node[26].content_store 	decision_yes[26] 	120
scalar dtelecom_network.node[26].content_store 	decision_no[26] 	1572
scalar dtelecom_network.node[26].content_store 	decision_ratio[26] 	0.070921985815603
scalar dtelecom_network.node[27].core_layer 	interests[27] 	14053
scalar dtelecom_network.node[27].core_layer 	repo_load[27] 	13003
scalar dtelecom_network.node[27].core_layer 	data[27] 	0
scalar dtelecom_network.node[27].content_store 	p_hit[27] 	0.074717142247207
scalar dtelecom_network.node[27].content_store 	hits[27] 	1050
scalar dtelecom_network.node[27].content_store 	misses[27] 	13003
scalar dtelecom_network.node[27].content_store 	decision_yes[27] 	13003
scalar dtelecom_network.node[27].content_store 	decision_no[27] 	0
scalar dtelecom_network.node[27].content_store 	decision_ratio[27] 	1
scalar dtelecom_network.node[28].core_layer 	interests[28] 	25298
scalar dtelecom_network.node[28].core_layer 	repo_load[28] 	13020
scalar dtelecom_network.node[28].core_layer 	data[28] 	9738
scalar dtelecom_network.node[28].content_store 	p_hit[28] 	0.10004743457981
scalar dtelecom_network.node[28].content_store 	hits[28] 	2531
scalar dtelecom_network.node[28].content_store 	misses[28] 	22767
scalar dtelecom_network.node[28].content_store 	decision_yes[28] 	15583
scalar dtelecom_network.node[28].content_store 	decision_no[28] 	7175
scalar dtelecom_network.node[28].content_store 	decision_ratio[28] 	0.68472625010985
scalar dtelecom_network.node[29].core_layer 	interests[29] 	0
scalar dtelecom_network.node[29].core_layer 	data[29] 	0
scalar dtelecom_network.node[29].content_store 	p_hit[29] 	-nan
scalar dtelecom_network.node[29].content_store 	hits[29] 	0
scalar dtelecom_network.node[29].content_store 	misses[29] 	0
scalar dtelecom_network.node[29].content_store 	decision_yes[29] 	0
scalar dtelecom_network.node[29].content_store 	decision_no[29] 	0
scalar dtelecom_network.node[29].content_store 	decision_ratio[29] 	0
scalar dtelecom_network.node[30].core_layer 	interests[30] 	13272
scalar dtelecom_network.node[30].core_layer 	data[30] 	9008
scalar dtelecom_network.node[30].content_store 	p_hit[30] 	0.32120253164557
scalar dtelecom_network.node[30].content_store 	hits[30] 	4263
scalar dtelecom_network.node[30].content_store 	misses[30] 	9009
scalar dtelecom_network.node[30].content_store 	decision_yes[30] 	984
scalar dtelecom_network.node[30].content_store 	decision_no[30] 	8024
scalar dtelecom_network.node[30].content_store 	decision_ratio[30] 	0.10923623445826
scalar dtelecom_network.node[31].core_layer 	interests[31] 	25600
scalar dtelecom_network.node[31].core_layer 	repo_load[31] 	13203
scalar dtelecom_network.node[31].core_layer 	data[31] 	9808
scalar dtelecom_network.node[31].content_store 	p_hit[31] 	0.1008984375
scalar dtelecom_network.node[31].content_store 	hits[31] 	2583
scalar dtelecom_network.node[31].content_store 	misses[31] 	23017
scalar dtelecom_network.node[31].content_store 	decision_yes[31] 	15664
scalar dtelecom_network.node[31].content_store 	decision_no[31] 	7347
scalar dtelecom_network.node[31].content_store 	decision_ratio[31] 	0.68071791751771
scalar dtelecom_network.node[32].core_layer 	interests[32] 	13275
scalar dtelecom_network.node[32].core_layer 	data[32] 	9110
scalar dtelecom_network.node[32].content_store 	p_hit[32] 	0.31367231638418
scalar dtelecom_network.node[32].content_store 	hits[32] 	4164
scalar dtelecom_network.node[32].content_store 	misses[32] 	9111
scalar dtelecom_network.node[32].content_store 	decision_yes[32] 	1234
scalar dtelecom_network.node[32].content_store 	decision_no[32] 	7876
scalar dtelecom_network.node[32].content_store 	decision_ratio[32] 	0.13545554335895
scalar dtelecom_network.node[33].core_layer 	interests[33] 	14061
scalar dtelecom_network.node[33].core_layer 	data[33] 	9095
scalar dtelecom_network.node[33].content_store 	p_hit[33] 	0.35310433112865
scalar dtelecom_network.node[33].content_store 	hits[33] 	4965
scalar dtelecom_network.node[33].content_store 	misses[33] 	9096
scalar dtelecom_network.node[33].content_store 	decision_yes[33] 	1686
scalar dtelecom_network.node[33].content_store 	decision_no[33] 	7409
scalar dtelecom_network.node[33].content_store 	decision_ratio[33] 	0.18537658053876
scalar dtelecom_network.node[34].core_layer 	interests[34] 	0
scalar dtelecom_network.node[34].core_layer 	data[34] 	0
scalar dtelecom_network.node[34].content_store 	p_hit[34] 	-nan
scalar dtelecom_network.node[34].content_store 	hits[34] 	0
scalar dtelecom_network.node[34].content_store 	misses[34] 	0
scalar dtelecom_network.node[34].content_store 	decision_yes[34] 	0
scalar dtelecom_network.node[34].content_store 	decision_no[34] 	0
scalar dtelecom_network.node[34].content_store 	decision_ratio[34] 	0
scalar dtelecom_network.node[35].core_layer 	interests[35] 	0
scalar dtelecom_network.node[35].core_layer 	data[35] 	0
scalar dtelecom_network.node[35].content_store 	p_hit[35] 	-nan
scalar dtelecom_network.node[35].content_store 	hits[35] 	0
scalar dtelecom_network.node[35].content_store 	misses[35] 	0
scalar dtelecom_network.node[35].content_store 	decision_yes[35] 	0
scalar dtelecom_network.node[35].content_store 	decision_no[35] 	0
scalar dtelecom_network.node[35].content_store 	decision_ratio[35] 	0
scalar dtelecom_network.node[36].core_layer 	interests[36] 	13320
scalar dtelecom_network.node[36].core_layer 	data[36] 	8916
scalar dtelecom_network.node[36].content_store 	p_hit[36] 	0.33063063063063
scalar dtelecom_network.node[36].content_store 	hits[36] 	4404
scalar dtelecom_network.node[36].content_store 	misses[36] 	8916
scalar dtelecom_network.node[36].content_store 	decision_yes[36] 	1181
scalar dtelecom_network.node[36].content_store 	decision_no[36] 	7735
scalar dtelecom_network.node[36].content_store 	decision_ratio[36] 	0.13245850157021
scalar dtelecom_network.node[37].core_layer 	interests[37] 	13593
scalar dtelecom_network.node[37].core_layer 	data[37] 	8987
scalar dtelecom_network.node[37].content_store 	p_hit[37] 	0.33885087912896
scalar dtelecom_network.node[37].content_store 	hits[37] 	4606
scalar dtelecom_network.node[37].content_store 	misses[37] 	8987
scalar dtelecom_network.node[37].content_store 	decision_yes[37] 	1397
scalar dtelecom_network.node[37].content_store 	decision_no[37] 	7590
scalar dtelecom_network.node[37].content_store 	decision_ratio[37] 	0.15544675642595
scalar dtelecom_network.node[38].core_layer 	interests[38] 	0
scalar dtelecom_network.node[38].core_layer 	data[38] 	0
scalar dtelecom_network.node[38].content_store 	p_hit[38] 	-nan
scalar dtelecom_network.node[38].content_store 	hits[38] 	0
scalar dtelecom_network.node[38].content_store 	misses[38] 	0
scalar dtelecom_network.node[38].content_store 	decision_yes[38] 	0
scalar dtelecom_network.node[38].content_store 	decision_no[38] 	0
scalar dtelecom_network.node[38].content_store 	decision_ratio[38] 	0
scalar dtelecom_network.node[39].core_layer 	interests[39] 	0
scalar dtelecom_network.node[39].core_layer 	data[39] 	0
scalar dtelecom_network.node[39].content_store 	p_hit[39] 	-nan
scalar dtelecom_network.node[39].content_store 	hits[39] 	0
scalar dtelecom_network.node[39].content_store 	misses[39] 	0
scalar dtelecom_network.node[39].content_store 	decision_yes[39] 	0
scalar dtelecom_network.node[39].content_store 	decision_no[39] 	0
scalar dtelecom_network.node[39].content_store 	decision_ratio[39] 	0
scalar dtelecom_network.node[40].core_layer 	interests[40] 	15597
scalar dtelecom_network.node[40].core_layer 	data[40] 	9114
scalar dtelecom_network.node[40].content_store 	p_hit[40] 	0.4156568570879
scalar dtelecom_network.node[40].content_store 	hits[40] 	6483
scalar dtelecom_network.node[40].content_store 	misses[40] 	9114
scalar dtelecom_network.node[40].content_store 	decision_yes[40] 	1665
scalar dtelecom_network.node[40].content_store 	decision_no[40] 	7449
scalar dtelecom_network.node[40].content_store 	decision_ratio[40] 	0.18268597761685
scalar dtelecom_network.node[41].core_layer 	interests[41] 	0
scalar dtelecom_network.node[41].core_layer 	data[41] 	0
scalar dtelecom_network.node[41].content_store 	p_hit[41] 	-nan
scalar dtelecom_network.node[41].content_store 	hits[41] 	0
scalar dtelecom_network.node[41].content_store 	misses[41] 	0
scalar dtelecom_network.node[41].content_store 	decision_yes[41] 	0
scalar dtelecom_network.node[41].content_store 	decision_no[41] 	0
scalar dtelecom_network.node[41].content_store 	decision_ratio[41] 	0
scalar dtelecom_network.node[42].core_layer 	interests[42] 	25819
scalar dtelecom_network.node[42].core_layer 	repo_load[42] 	13583
scalar dtelecom_network.node[42].core_layer 	data[42] 	9797
scalar dtelecom_network.node[42].content_store 	p_hit[42] 	0.094194198071188
scalar dtelecom_network.node[42].content_store 	hits[42] 	2432
scalar dtelecom_network.node[42].content_store 	misses[42] 	23387
scalar dtelecom_network.node[42].content_store 	decision_yes[42] 	16103
scalar dtelecom_network.node[42].content_store 	decision_no[42] 	7277
scalar dtelecom_network.node[42].content_store 	decision_ratio[42] 	0.68875106928999
scalar dtelecom_network.node[43].core_layer 	interests[43] 	0
scalar dtelecom_network.node[43].core_layer 	data[43] 	0
scalar dtelecom_network.node[43].content_store 	p_hit[43] 	-nan
scalar dtelecom_network.node[43].content_store 	hits[43] 	0
scalar dtelecom_network.node[43].content_store 	misses[43] 	0
scalar dtelecom_network.node[43].content_store 	decision_yes[43] 	0
scalar dtelecom_network.node[43].content_store 	decision_no[43] 	0
scalar dtelecom_network.node[43].content_store 	decision_ratio[43] 	0
scalar dtelecom_network.node[44].core_layer 	interests[44] 	12868
scalar dtelecom_network.node[44].core_layer 	repo_load[44] 	12045
scalar dtelecom_network.node[44].core_layer 	data[44] 	0
scalar dtelecom_network.node[44].content_store 	p_hit[44] 	0.063957102890892
scalar dtelecom_network.node[44].content_store 	hits[44] 	823
scalar dtelecom_network.node[44].content_store 	misses[44] 	12045
scalar dtelecom_network.node[44].content_store 	decision_yes[44] 	12045
scalar dtelecom_network.node[44].content_store 	decision_no[44] 	0
scalar dtelecom_network.node[44].content_store 	decision_ratio[44] 	1
scalar dtelecom_network.node[45].core_layer 	interests[45] 	14279
scalar dtelecom_network.node[45].core_layer 	data[45] 	9080
scalar dtelecom_network.node[45].content_store 	p_hit[45] 	0.36389102878353
scalar dtelecom_network.node[45].content_store 	hits[45] 	5196
scalar dtelecom_network.node[45].content_store 	misses[45] 	9083
scalar dtelecom_network.node[45].content_store 	decision_yes[45] 	1335
scalar dtelecom_network.node[45].content_store 	decision_no[45] 	7745
scalar dtelecom_network.node[45].content_store 	decision_ratio[45] 	0.14702643171806
scalar dtelecom_network.node[46].core_layer 	interests[46] 	25836
scalar dtelecom_network.node[46].core_layer 	repo_load[46] 	13582
scalar dtelecom_network.node[46].core_layer 	data[46] 	9700
scalar dtelecom_network.node[46].content_store 	p_hit[46] 	0.098699489084998
scalar dtelecom_network.node[46].content_store 	hits[46] 	2550
scalar dtelecom_network.node[46].content_store 	misses[46] 	23286
scalar dtelecom_network.node[46].content_store 	decision_yes[46] 	16036
scalar dtelecom_network.node[46].content_store 	decision_no[46] 	7246
scalar dtelecom_network.node[46].content_store 	decision_ratio[46] 	0.68877244223005
scalar dtelecom_network.node[47].core_layer 	interests[47] 	0
scalar dtelecom_network.node[47].core_layer 	data[47] 	0
scalar dtelecom_network.node[47].content_store 	p_hit[47] 	-nan
scalar dtelecom_network.node[47].content_store 	hits[47] 	0
scalar dtelecom_network.node[47].content_store 	misses[47] 	0
scalar dtelecom_network.node[47].content_store 	decision_yes[47] 	0
scalar dtelecom_network.node[47].content_store 	decision_no[47] 	0
scalar dtelecom_network.node[47].content_store 	decision_ratio[47] 	0
scalar dtelecom_network.node[48].core_layer 	interests[48] 	13533
scalar dtelecom_network.node[48].core_layer 	data[48] 	9033
scalar dtelecom_network.node[48].content_store 	p_hit[48] 	0.33259439887682
scalar dtelecom_network.node[48].content_store 	hits[48] 	4501
scalar dtelecom_network.node[48].content_store 	misses[48] 	9032
scalar dtelecom_network.node[48].content_store 	decision_yes[48] 	1166
scalar dtelecom_network.node[48].content_store 	decision_no[48] 	7867
scalar dtelecom_network.node[48].content_store 	decision_ratio[48] 	0.12908225395771
scalar dtelecom_network.node[49].core_layer 	interests[49] 	13501
scalar dtelecom_network.node[49].core_layer 	data[49] 	9040
scalar dtelecom_network.node[49].content_store 	p_hit[49] 	0.33049403747871
scalar dtelecom_network.node[49].content_store 	hits[49] 	4462
scalar dtelecom_network.node[49].content_store 	misses[49] 	9039
scalar dtelecom_network.node[49].content_store 	decision_yes[49] 	1121
scalar dtelecom_network.node[49].content_store 	decision_no[49] 	7919
scalar dtelecom_network.node[49].content_store 	decision_ratio[49] 	0.12400442477876
scalar dtelecom_network.node[50].core_layer 	interests[50] 	13224
scalar dtelecom_network.node[50].core_layer 	data[50] 	9190
scalar dtelecom_network.node[50].content_store 	p_hit[50] 	0.30505142165759
scalar dtelecom_network.node[50].content_store 	hits[50] 	4034
scalar dtelecom_network.node[50].content_store 	misses[50] 	9190
scalar dtelecom_network.node[50].content_store 	decision_yes[50] 	1224
scalar dtelecom_network.node[50].content_store 	decision_no[50] 	7966
scalar dtelecom_network.node[50].content_store 	decision_ratio[50] 	0.13318824809576
scalar dtelecom_network.node[51].core_layer 	interests[51] 	14099
scalar dtelecom_network.node[51].core_layer 	data[51] 	9003
scalar dtelecom_network.node[51].content_store 	p_hit[51] 	0.3613022200156
scalar dtelecom_network.node[51].content_store 	hits[51] 	5094
scalar dtelecom_network.node[51].content_store 	misses[51] 	9005
scalar dtelecom_network.node[51].content_store 	decision_yes[51] 	1357
scalar dtelecom_network.node[51].content_store 	decision_no[51] 	7646
scalar dtelecom_network.node[51].content_store 	decision_ratio[51] 	0.15072753526602
scalar dtelecom_network.node[52].core_layer 	interests[52] 	0
scalar dtelecom_network.node[52].core_layer 	data[52] 	0
scalar dtelecom_network.node[52].content_store 	p_hit[52] 	-nan
scalar dtelecom_network.node[52].content_store 	hits[52] 	0
scalar dtelecom_network.node[52].content_store 	misses[52] 	0
scalar dtelecom_network.node[52].content_store 	decision_yes[52] 	0
scalar dtelecom_network.node[52].content_store 	decision_no[52] 	0
scalar dtelecom_network.node[52].content_store 	decision_ratio[52] 	0
scalar dtelecom_network.node[53].core_layer 	interests[53] 	13611
scalar dtelecom_network.node[53].core_layer 	data[53] 	9139
scalar dtelecom_network.node[53].content_store 	p_hit[53] 	0.32848431415767
scalar dtelecom_network.node[53].content_store 	hits[53] 	4471
scalar dtelecom_network.node[53].content_store 	misses[53] 	9140
scalar dtelecom_network.node[53].content_store 	decision_yes[53] 	1117
scalar dtelecom_network.node[53].content_store 	decision_no[53] 	8022
scalar dtelecom_network.node[53].content_store 	decision_ratio[53] 	0.12222343801291
scalar dtelecom_network.node[54].core_layer 	interests[54] 	25708
scalar dtelecom_network.node[54].core_layer 	repo_load[54] 	13330
scalar dtelecom_network.node[54].core_layer 	data[54] 	9745
scalar dtelecom_network.node[54].content_store 	p_hit[54] 	0.10234168352264
scalar dtelecom_network.node[54].content_store 	hits[54] 	2631
scalar dtelecom_network.node[54].content_store 	misses[54] 	23077
scalar dtelecom_network.node[54].content_store 	decision_yes[54] 	15637
scalar dtelecom_network.node[54].content_store 	decision_no[54] 	7438
scalar dtelecom_network.node[54].content_store 	decision_ratio[54] 	0.67765980498375
scalar dtelecom_network.node[55].core_layer 	interests[55] 	13572
scalar dtelecom_network.node[55].core_layer 	data[55] 	8878
scalar dtelecom_network.node[55].content_store 	p_hit[55] 	0.34593280282935
scalar dtelecom_network.node[55].content_store 	hits[55] 	4695
scalar dtelecom_network.node[55].content_store 	misses[55] 	8877
scalar dtelecom_network.node[55].content_store 	decision_yes[55] 	1426
scalar dtelecom_network.node[55].content_store 	decision_no[55] 	7452
scalar dtelecom_network.node[55].content_store 	decision_ratio[55] 	0.16062176165803
scalar dtelecom_network.node[56].core_layer 	interests[56] 	13435
scalar dtelecom_network.node[56].core_layer 	data[56] 	8956
scalar dtelecom_network.node[56].content_store 	p_hit[56] 	0.33330852251582
scalar dtelecom_network.node[56].content_store 	hits[56] 	4478
scalar dtelecom_network.node[56].content_store 	misses[56] 	8957
scalar dtelecom_network.node[56].content_store 	decision_yes[56] 	1157
scalar dtelecom_network.node[56].content_store 	decision_no[56] 	7799
scalar dtelecom_network.node[56].content_store 	decision_ratio[56] 	0.12918713711478
scalar dtelecom_network.node[57].core_layer 	interests[57] 	13056
scalar dtelecom_network.node[57].core_layer 	data[57] 	9071
scalar dtelecom_network.node[57].content_store 	p_hit[57] 	0.30530024509804
scalar dtelecom_network.node[57].content_store 	hits[57] 	3986
scalar dtelecom_network.node[57].content_store 	misses[57] 	9070
scalar dtelecom_network.node[57].content_store 	decision_yes[57] 	1207
scalar dtelecom_network.node[57].content_store 	decision_no[57] 	7864
scalar dtelecom_network.node[57].content_store 	decision_ratio[57] 	0.1330614044758
scalar dtelecom_network.node[58].core_layer 	interests[58] 	25724
scalar dtelecom_network.node[58].core_layer 	repo_load[58] 	13283
scalar dtelecom_network.node[58].core_layer 	data[58] 	9960
scalar dtelecom_network.node[58].content_store 	p_hit[58] 	0.096213652620121
scalar dtelecom_network.node[58].content_store 	hits[58] 	2475
scalar dtelecom_network.node[58].content_store 	misses[58] 	23249
scalar dtelecom_network.node[58].content_store 	decision_yes[58] 	15914
scalar dtelecom_network.node[58].content_store 	decision_no[58] 	7329
scalar dtelecom_network.node[58].content_store 	decision_ratio[58] 	0.68467925827131
scalar dtelecom_network.node[59].core_layer 	interests[59] 	16553
scalar dtelecom_network.node[59].core_layer 	data[59] 	8940
scalar dtelecom_network.node[59].content_store 	p_hit[59] 	0.4597353953966
scalar dtelecom_network.node[59].content_store 	hits[59] 	7610
scalar dtelecom_network.node[59].content_store 	misses[59] 	8943
scalar dtelecom_network.node[59].content_store 	decision_yes[59] 	1732
scalar dtelecom_network.node[59].content_store 	decision_no[59] 	7208
scalar dtelecom_network.node[59].content_store 	decision_ratio[59] 	0.19373601789709
scalar dtelecom_network.node[60].core_layer 	interests[60] 	0
scalar dtelecom_network.node[60].core_layer 	data[60] 	0
scalar dtelecom_network.node[60].content_store 	p_hit[60] 	-nan
scalar dtelecom_network.node[60].content_store 	hits[60] 	0
scalar dtelecom_network.node[60].content_store 	misses[60] 	0
scalar dtelecom_network.node[60].content_store 	decision_yes[60] 	0
scalar dtelecom_network.node[60].content_store 	decision_no[60] 	0
scalar dtelecom_network.node[60].content_store 	decision_ratio[60] 	0
scalar dtelecom_network.node[61].core_layer 	interests[61] 	0
scalar dtelecom_network.node[61].core_layer 	data[61] 	0
scalar dtelecom_network.node[61].content_store 	p_hit[61] 	-nan
scalar dtelecom_network.node[61].content_store 	hits[61] 	0
scalar dtelecom_network.node[61].content_store 	misses[61] 	0
scalar dtelecom_network.node[61].content_store 	decision_yes[61] 	0
scalar dtelecom_network.node[61].content_store 	decision_no[61] 	0
scalar dtelecom_network.node[61].content_store 	decision_ratio[61] 	0
scalar dtelecom_network.node[62].core_layer 	interests[62] 	13568
scalar dtelecom_network.node[62].core_layer 	data[62] 	9052
scalar dtelecom_network.node[62].content_store 	p_hit[62] 	0.33291568396226
scalar dtelecom_network.node[62].content_store 	hits[62] 	4517
scalar dtelecom_network.node[62].content_store 	misses[62] 	9051
scalar dtelecom_network.node[62].content_store 	decision_yes[62] 	290
scalar dtelecom_network.node[62].content_store 	decision_no[62] 	8762
scalar dtelecom_network.node[62].content_store 	decision_ratio[62] 	0.032037118868758
scalar dtelecom_network.node[63].core_layer 	interests[63] 	0
scalar dtelecom_network.node[63].core_layer 	data[63] 	0
scalar dtelecom_network.node[63].content_store 	p_hit[63] 	-nan
scalar dtelecom_network.node[63].content_store 	hits[63] 	0
scalar dtelecom_network.node[63].content_store 	misses[63] 	0
scalar dtelecom_network.node[63].content_store 	decision_yes[63] 	0
scalar dtelecom_network.node[63].content_store 	decision_no[63] 	0
scalar dtelecom_network.node[63].content_store 	decision_ratio[63] 	0
scalar dtelecom_network.node[64].core_layer 	interests[64] 	0
scalar dtelecom_network.node[64].core_layer 	data[64] 	0
scalar dtelecom_network.node[64].content_store 	p_hit[64] 	-nan
scalar dtelecom_network.node[64].content_store 	hits[64] 	0
scalar dtelecom_network.node[64].content_store 	misses[64] 	0
scalar dtelecom_network.node[64].content_store 	decision_yes[64] 	0
scalar dtelecom_network.node[64].content_store 	decision_no[64] 	0
scalar dtelecom_network.node[64].content_store 	decision_ratio[64] 	0
scalar dtelecom_network.node[65].core_layer 	interests[65] 	13665
scalar dtelecom_network.node[65].core_layer 	repo_load[65] 	12794
scalar dtelecom_network.node[65].core_layer 	data[65] 	99
scalar dtelecom_network.node[65].content_store 	p_hit[65] 	0.056494694474936
scalar dtelecom_network.node[65].content_store 	hits[65] 	772
scalar dtelecom_network.node[65].content_store 	misses[65] 	12893
scalar dtelecom_network.node[65].content_store 	decision_yes[65] 	12893
scalar dtelecom_network.node[65].content_store 	decision_no[65] 	0
scalar dtelecom_network.node[65].content_store 	decision_ratio[65] 	1
scalar dtelecom_network.node[66].core_layer 	interests[66] 	13125
scalar dtelecom_network.node[66].core_layer 	data[66] 	9038
scalar dtelecom_network.node[66].content_store 	p_hit[66] 	0.31131428571429
scalar dtelecom_network.node[66].content_store 	hits[66] 	4086
scalar dtelecom_network.node[66].content_store 	misses[66] 	9039
scalar dtelecom_network.node[66].content_store 	decision_yes[66] 	354
scalar dtelecom_network.node[66].content_store 	decision_no[66] 	8684
scalar dtelecom_network.node[66].content_store 	decision_ratio[66] 	0.039167957512724
scalar dtelecom_network.node[67].core_layer 	interests[67] 	12787
scalar dtelecom_network.node[67].core_layer 	data[67] 	8844
scalar dtelecom_network.node[67].content_store 	p_hit[67] 	0.30804723547353
scalar dtelecom_network.node[67].content_store 	hits[67] 	3939
scalar dtelecom_network.node[67].content_store 	misses[67] 	8848
scalar dtelecom_network.node[67].content_store 	decision_yes[67] 	338
scalar dtelecom_network.node[67].content_store 	decision_no[67] 	8506
scalar dtelecom_network.node[67].content_store 	decision_ratio[67] 	0.038218000904568
scalar dtelecom_network.client[3] 	hdistance[3] 	1.3405255646041
scalar dtelecom_network.client[3] 	downloads[3] 	11911
scalar dtelecom_network.client[3] 	avg_time[3] 	0.007942298551
scalar dtelecom_network.client[4] 	hdistance[4] 	1.3908824759515
scalar dtelecom_network.client[4] 	downloads[4] 	11955
scalar dtelecom_network.client[4] 	avg_time[4] 	0.051069937482
scalar dtelecom_network.client[8] 	hdistance[8] 	1.9365278474661
scalar dtelecom_network.client[8] 	downloads[8] 	11958
scalar dtelecom_network.client[8] 	avg_time[8] 	0.012372637148
scalar dtelecom_network.client[9] 	hdistance[9] 	1.8385171486214
scalar dtelecom_network.client[9] 	downloads[9] 	11896
scalar dtelecom_network.client[9] 	avg_time[9] 	0.013080437537
scalar dtelecom_network.client[17] 	hdistance[17] 	1.9119372160264
scalar dtelecom_network.client[17] 	downloads[17] 	12105
scalar dtelecom_network.client[17] 	avg_time[17] 	0.011392957587
scalar dtelecom_network.client[22] 	hdistance[22] 	1.9094514767932
scalar dtelecom_network.client[22] 	downloads[22] 	11850
scalar dtelecom_network.client[22] 	avg_time[22] 	0.012229536793
scalar dtelecom_network.client[23] 	hdistance[23] 	1.7562463923477
scalar dtelecom_network.client[23] 	downloads[23] 	12127
scalar dtelecom_network.client[23] 	avg_time[23] 	0.011379474562
scalar dtelecom_network.client[28] 	hdistance[28] 	1.9548256353964
scalar dtelecom_network.client[28] 	downloads[28] 	11843
scalar dtelecom_network.client[28] 	avg_time[28] 	0.017592619131
scalar dtelecom_network.client[30] 	hdistance[30] 	1.9188965288708
scalar dtelecom_network.client[30] 	downloads[30] 	12071
scalar dtelecom_network.client[30] 	avg_time[30] 	0.011886835619
scalar dtelecom_network.client[31] 	hdistance[31] 	1.9234124653972
scalar dtelecom_network.client[31] 	downloads[31] 	11921
scalar dtelecom_network.client[31] 	avg_time[31] 	0.017883407865
scalar dtelecom_network.client[32] 	hdistance[32] 	1.9216892509768
scalar dtelecom_network.client[32] 	downloads[32] 	12029
scalar dtelecom_network.client[32] 	avg_time[32] 	0.010713137504
scalar dtelecom_network.client[33] 	hdistance[33] 	1.8275543615146
scalar dtelecom_network.client[33] 	downloads[33] 	11911
scalar dtelecom_network.client[33] 	avg_time[33] 	0.011556253707
scalar dtelecom_network.client[36] 	hdistance[36] 	1.9051015271019
scalar dtelecom_network.client[36] 	downloads[36] 	11918
scalar dtelecom_network.client[36] 	avg_time[36] 	0.011787316575
scalar dtelecom_network.client[37] 	hdistance[37] 	1.8506314292883
scalar dtelecom_network.client[37] 	downloads[37] 	11957
scalar dtelecom_network.client[37] 	avg_time[37] 	0.012557635837
scalar dtelecom_network.client[40] 	hdistance[40] 	1.7605389320549
scalar dtelecom_network.client[40] 	downloads[40] 	12098
scalar dtelecom_network.client[40] 	avg_time[40] 	0.012615753037
scalar dtelecom_network.client[42] 	hdistance[42] 	1.9939485627837
scalar dtelecom_network.client[42] 	downloads[42] 	11898
scalar dtelecom_network.client[42] 	avg_time[42] 	0.016346891191
scalar dtelecom_network.client[45] 	hdistance[45] 	1.8645348837209
scalar dtelecom_network.client[45] 	downloads[45] 	12040
scalar dtelecom_network.client[45] 	avg_time[45] 	0.012857000049
scalar dtelecom_network.client[46] 	hdistance[46] 	1.9455563093623
scalar dtelecom_network.client[46] 	downloads[46] 	11792
scalar dtelecom_network.client[46] 	avg_time[46] 	0.014991137329
scalar dtelecom_network.client[48] 	hdistance[48] 	1.9259808770195
scalar dtelecom_network.client[48] 	downloads[48] 	12132
scalar dtelecom_network.client[48] 	avg_time[48] 	0.012283315012
scalar dtelecom_network.client[49] 	hdistance[49] 	1.9051064537591
scalar dtelecom_network.client[49] 	downloads[49] 	12024
scalar dtelecom_network.client[49] 	avg_time[49] 	0.01171648417
scalar dtelecom_network.client[50] 	hdistance[50] 	1.9345484672742
scalar dtelecom_network.client[50] 	downloads[50] 	12070
scalar dtelecom_network.client[50] 	avg_time[50] 	0.011166006057
scalar dtelecom_network.client[51] 	hdistance[51] 	1.7971670438354
scalar dtelecom_network.client[51] 	downloads[51] 	11931
scalar dtelecom_network.client[51] 	avg_time[51] 	0.011235024662
scalar dtelecom_network.client[53] 	hdistance[53] 	1.9167148163434
scalar dtelecom_network.client[53] 	downloads[53] 	12115
scalar dtelecom_network.client[53] 	avg_time[53] 	0.011482389161
scalar dtelecom_network.client[54] 	hdistance[54] 	1.880163224517
scalar dtelecom_network.client[54] 	downloads[54] 	12008
scalar dtelecom_network.client[54] 	avg_time[54] 	0.01392689552
scalar dtelecom_network.client[55] 	hdistance[55] 	1.8700134093195
scalar dtelecom_network.client[55] 	downloads[55] 	11932
scalar dtelecom_network.client[55] 	avg_time[55] 	0.01571177574
scalar dtelecom_network.client[56] 	hdistance[56] 	1.88887012329
scalar dtelecom_network.client[56] 	downloads[56] 	11842
scalar dtelecom_network.client[56] 	avg_time[56] 	0.011372040366
scalar dtelecom_network.client[57] 	hdistance[57] 	1.935337968004
scalar dtelecom_network.client[57] 	downloads[57] 	11939
scalar dtelecom_network.client[57] 	avg_time[57] 	0.010811492194
scalar dtelecom_network.client[58] 	hdistance[58] 	1.9505508158701
scalar dtelecom_network.client[58] 	downloads[58] 	12073
scalar dtelecom_network.client[58] 	avg_time[58] 	0.017032584102
scalar dtelecom_network.client[59] 	hdistance[59] 	1.718084214058
scalar dtelecom_network.client[59] 	downloads[59] 	11922
scalar dtelecom_network.client[59] 	avg_time[59] 	0.055406043014
scalar dtelecom_network.client[62] 	hdistance[62] 	2.2077278731836
scalar dtelecom_network.client[62] 	downloads[62] 	12112
scalar dtelecom_network.client[62] 	avg_time[62] 	0.05239339339
scalar dtelecom_network.client[66] 	hdistance[66] 	2.0352153426469
scalar dtelecom_network.client[66] 	downloads[66] 	12097
scalar dtelecom_network.client[66] 	avg_time[66] 	0.090650043545
scalar dtelecom_network.client[67] 	hdistance[67] 	2.0462320067739
scalar dtelecom_network.client[67] 	downloads[67] 	11810
scalar dtelecom_network.client[67] 	avg_time[67] 	0.076042289237
