version 2
run General-12-20160824-12:20:45-24543
attr D lcd
attr F nrr
attr R lru
attr a 0.9
attr configname General
attr datetime 20160824-12:20:45
attr experiment General
attr inifile hw5115/scenario_C/omnetp.ini
attr iterationvars "$net=dtelecom, $rep=2, $a=0.9, $F=nrr, $D=lcd, $R=lru, $window=60, $variance=0.05, $mytime=600"
attr iterationvars2 "$net=dtelecom, $rep=2, $a=0.9, $F=nrr, $D=lcd, $R=lru, $window=60, $variance=0.05, $mytime=600, $repetition=0"
attr measurement "$net=dtelecom, $rep=2, $a=0.9, $F=nrr, $D=lcd, $R=lru, $window=60, $variance=0.05, $mytime=600"
attr mytime 600
attr net dtelecom
attr network networks.${net=dtelecom}_network
attr processid 24543
attr rep 2
attr repetition 0
attr replication #0
attr resultdir results
attr runnumber 12
attr seedset 2
attr variance 0.05
attr window 60

scalar . 	a 	0.9
scalar . 	mytime 	600
scalar . 	rep 	2
scalar . 	variance 	0.05
scalar . 	window 	60
scalar dtelecom_network.content_distribution 	repo-0 	47
scalar dtelecom_network.content_distribution 	repo-1 	25
scalar dtelecom_network.content_distribution 	repo-2 	67
scalar dtelecom_network.content_distribution 	repo-3 	23
scalar dtelecom_network.content_distribution 	repo-4 	57
scalar dtelecom_network.content_distribution 	repo-5 	14
scalar dtelecom_network.content_distribution 	repo-6 	42
scalar dtelecom_network.content_distribution 	repo-7 	8
scalar dtelecom_network.content_distribution 	repo-8 	39
scalar dtelecom_network.content_distribution 	repo-9 	48
scalar dtelecom_network.content_distribution 	repo-10 	7
scalar dtelecom_network.content_distribution 	repo-11 	44
scalar dtelecom_network.content_distribution 	repo-12 	0
scalar dtelecom_network.content_distribution 	repo-13 	55
scalar dtelecom_network.content_distribution 	repo-14 	6
scalar dtelecom_network.content_distribution 	repo-15 	19
scalar dtelecom_network.content_distribution 	client-0 	46
scalar dtelecom_network.content_distribution 	client-1 	30
scalar dtelecom_network.content_distribution 	client-2 	8
scalar dtelecom_network.content_distribution 	client-3 	49
scalar dtelecom_network.content_distribution 	client-4 	66
scalar dtelecom_network.content_distribution 	client-5 	58
scalar dtelecom_network.content_distribution 	client-6 	32
scalar dtelecom_network.content_distribution 	client-7 	40
scalar dtelecom_network.content_distribution 	client-8 	42
scalar dtelecom_network.content_distribution 	client-9 	45
scalar dtelecom_network.content_distribution 	client-10 	33
scalar dtelecom_network.content_distribution 	client-11 	28
scalar dtelecom_network.content_distribution 	client-12 	3
scalar dtelecom_network.content_distribution 	client-13 	57
scalar dtelecom_network.content_distribution 	client-14 	50
scalar dtelecom_network.content_distribution 	client-15 	17
scalar dtelecom_network.content_distribution 	client-16 	59
scalar dtelecom_network.content_distribution 	client-17 	48
scalar dtelecom_network.content_distribution 	client-18 	23
scalar dtelecom_network.content_distribution 	client-19 	22
scalar dtelecom_network.content_distribution 	client-20 	67
scalar dtelecom_network.content_distribution 	client-21 	62
scalar dtelecom_network.content_distribution 	client-22 	56
scalar dtelecom_network.content_distribution 	client-23 	55
scalar dtelecom_network.content_distribution 	client-24 	53
scalar dtelecom_network.content_distribution 	client-25 	36
scalar dtelecom_network.content_distribution 	client-26 	51
scalar dtelecom_network.content_distribution 	client-27 	37
scalar dtelecom_network.content_distribution 	client-28 	54
scalar dtelecom_network.content_distribution 	client-29 	4
scalar dtelecom_network.content_distribution 	client-30 	31
scalar dtelecom_network.content_distribution 	client-31 	9
scalar dtelecom_network.content_distribution 	repo-0_card 	6237
scalar dtelecom_network.content_distribution 	repo-0_price 	0
scalar dtelecom_network.content_distribution 	repo-1_card 	6125
scalar dtelecom_network.content_distribution 	repo-1_price 	0
scalar dtelecom_network.content_distribution 	repo-2_card 	6218
scalar dtelecom_network.content_distribution 	repo-2_price 	0
scalar dtelecom_network.content_distribution 	repo-3_card 	6258
scalar dtelecom_network.content_distribution 	repo-3_price 	0
scalar dtelecom_network.content_distribution 	repo-4_card 	6179
scalar dtelecom_network.content_distribution 	repo-4_price 	0
scalar dtelecom_network.content_distribution 	repo-5_card 	6255
scalar dtelecom_network.content_distribution 	repo-5_price 	0
scalar dtelecom_network.content_distribution 	repo-6_card 	6348
scalar dtelecom_network.content_distribution 	repo-6_price 	0
scalar dtelecom_network.content_distribution 	repo-7_card 	6286
scalar dtelecom_network.content_distribution 	repo-7_price 	0
scalar dtelecom_network.content_distribution 	repo-8_card 	6393
scalar dtelecom_network.content_distribution 	repo-8_price 	0
scalar dtelecom_network.content_distribution 	repo-9_card 	6213
scalar dtelecom_network.content_distribution 	repo-9_price 	0
scalar dtelecom_network.content_distribution 	repo-10_card 	6263
scalar dtelecom_network.content_distribution 	repo-10_price 	0
scalar dtelecom_network.content_distribution 	repo-11_card 	6216
scalar dtelecom_network.content_distribution 	repo-11_price 	0
scalar dtelecom_network.content_distribution 	repo-12_card 	6289
scalar dtelecom_network.content_distribution 	repo-12_price 	0
scalar dtelecom_network.content_distribution 	repo-13_card 	6209
scalar dtelecom_network.content_distribution 	repo-13_price 	0
scalar dtelecom_network.content_distribution 	repo-14_card 	6400
scalar dtelecom_network.content_distribution 	repo-14_price 	0
scalar dtelecom_network.content_distribution 	repo-15_card 	6111
scalar dtelecom_network.content_distribution 	repo-15_price 	0
scalar dtelecom_network.statistics 	stabilization_time 	1804.3
scalar dtelecom_network.statistics 	p_hit 	0.27351433631143
scalar dtelecom_network.statistics 	interests 	13228.352941176
scalar dtelecom_network.statistics 	data 	7588.1029411765
scalar dtelecom_network.statistics 	hdistance 	1.8866112995733
scalar dtelecom_network.statistics 	avg_time 	0.022478418686
scalar dtelecom_network.statistics 	downloads 	383468
scalar dtelecom_network.statistics 	total_cost 	0
scalar dtelecom_network.statistics 	total_replicas 	100000
scalar dtelecom_network.statistics 	inner_hit 	0.45918042704998
scalar dtelecom_network.node[0].core_layer 	interests[0] 	14349
scalar dtelecom_network.node[0].core_layer 	repo_load[0] 	12198
scalar dtelecom_network.node[0].core_layer 	data[0] 	1196
scalar dtelecom_network.node[0].core_layer 	repo_int[0] 	207387
scalar dtelecom_network.node[0].content_store 	p_hit[0] 	0.066555160638372
scalar dtelecom_network.node[0].content_store 	hits[0] 	955
scalar dtelecom_network.node[0].content_store 	misses[0] 	13394
scalar dtelecom_network.node[0].content_store 	decision_yes[0] 	12267
scalar dtelecom_network.node[0].content_store 	decision_no[0] 	1127
scalar dtelecom_network.node[0].content_store 	decision_ratio[0] 	0.91585784679707
scalar dtelecom_network.node[1].core_layer 	interests[1] 	181034
scalar dtelecom_network.node[1].core_layer 	data[1] 	173748
scalar dtelecom_network.node[1].content_store 	p_hit[1] 	0.040169249975143
scalar dtelecom_network.node[1].content_store 	hits[1] 	7272
scalar dtelecom_network.node[1].content_store 	misses[1] 	173762
scalar dtelecom_network.node[1].content_store 	decision_yes[1] 	29768
scalar dtelecom_network.node[1].content_store 	decision_no[1] 	143977
scalar dtelecom_network.node[1].content_store 	decision_ratio[1] 	0.17133154910933
scalar dtelecom_network.node[2].core_layer 	interests[2] 	5808
scalar dtelecom_network.node[2].core_layer 	data[2] 	2461
scalar dtelecom_network.node[2].content_store 	p_hit[2] 	0.5762741046832
scalar dtelecom_network.node[2].content_store 	hits[2] 	3347
scalar dtelecom_network.node[2].content_store 	misses[2] 	2461
scalar dtelecom_network.node[2].content_store 	decision_yes[2] 	288
scalar dtelecom_network.node[2].content_store 	decision_no[2] 	2173
scalar dtelecom_network.node[2].content_store 	decision_ratio[2] 	0.11702559934986
scalar dtelecom_network.node[3].core_layer 	interests[3] 	22893
scalar dtelecom_network.node[3].core_layer 	data[3] 	9216
scalar dtelecom_network.node[3].content_store 	p_hit[3] 	0.59743152928843
scalar dtelecom_network.node[3].content_store 	hits[3] 	13677
scalar dtelecom_network.node[3].content_store 	misses[3] 	9216
scalar dtelecom_network.node[3].content_store 	decision_yes[3] 	2671
scalar dtelecom_network.node[3].content_store 	decision_no[3] 	6545
scalar dtelecom_network.node[3].content_store 	decision_ratio[3] 	0.28982204861111
scalar dtelecom_network.node[4].core_layer 	interests[4] 	53686
scalar dtelecom_network.node[4].core_layer 	data[4] 	41626
scalar dtelecom_network.node[4].content_store 	p_hit[4] 	0.22381999031405
scalar dtelecom_network.node[4].content_store 	hits[4] 	12016
scalar dtelecom_network.node[4].content_store 	misses[4] 	41670
scalar dtelecom_network.node[4].content_store 	decision_yes[4] 	11128
scalar dtelecom_network.node[4].content_store 	decision_no[4] 	30496
scalar dtelecom_network.node[4].content_store 	decision_ratio[4] 	0.26734576206035
scalar dtelecom_network.node[5].core_layer 	interests[5] 	0
scalar dtelecom_network.node[5].core_layer 	data[5] 	0
scalar dtelecom_network.node[5].content_store 	p_hit[5] 	-nan
scalar dtelecom_network.node[5].content_store 	hits[5] 	0
scalar dtelecom_network.node[5].content_store 	misses[5] 	0
scalar dtelecom_network.node[5].content_store 	decision_yes[5] 	0
scalar dtelecom_network.node[5].content_store 	decision_no[5] 	0
scalar dtelecom_network.node[5].content_store 	decision_ratio[5] 	0
scalar dtelecom_network.node[6].core_layer 	interests[6] 	13439
scalar dtelecom_network.node[6].core_layer 	repo_load[6] 	12545
scalar dtelecom_network.node[6].core_layer 	data[6] 	0
scalar dtelecom_network.node[6].content_store 	p_hit[6] 	0.066522806756455
scalar dtelecom_network.node[6].content_store 	hits[6] 	894
scalar dtelecom_network.node[6].content_store 	misses[6] 	12545
scalar dtelecom_network.node[6].content_store 	decision_yes[6] 	12545
scalar dtelecom_network.node[6].content_store 	decision_no[6] 	0
scalar dtelecom_network.node[6].content_store 	decision_ratio[6] 	1
scalar dtelecom_network.node[7].core_layer 	interests[7] 	14117
scalar dtelecom_network.node[7].core_layer 	repo_load[7] 	13075
scalar dtelecom_network.node[7].core_layer 	data[7] 	0
scalar dtelecom_network.node[7].content_store 	p_hit[7] 	0.073811716370334
scalar dtelecom_network.node[7].content_store 	hits[7] 	1042
scalar dtelecom_network.node[7].content_store 	misses[7] 	13075
scalar dtelecom_network.node[7].content_store 	decision_yes[7] 	13075
scalar dtelecom_network.node[7].content_store 	decision_no[7] 	0
scalar dtelecom_network.node[7].content_store 	decision_ratio[7] 	1
scalar dtelecom_network.node[8].core_layer 	interests[8] 	25913
scalar dtelecom_network.node[8].core_layer 	repo_load[8] 	13731
scalar dtelecom_network.node[8].core_layer 	data[8] 	9661
scalar dtelecom_network.node[8].content_store 	p_hit[8] 	0.097171303978698
scalar dtelecom_network.node[8].content_store 	hits[8] 	2518
scalar dtelecom_network.node[8].content_store 	misses[8] 	23395
scalar dtelecom_network.node[8].content_store 	decision_yes[8] 	16038
scalar dtelecom_network.node[8].content_store 	decision_no[8] 	7354
scalar dtelecom_network.node[8].content_store 	decision_ratio[8] 	0.68561901504788
scalar dtelecom_network.node[9].core_layer 	interests[9] 	14955
scalar dtelecom_network.node[9].core_layer 	data[9] 	9467
scalar dtelecom_network.node[9].content_store 	p_hit[9] 	0.36676696756937
scalar dtelecom_network.node[9].content_store 	hits[9] 	5485
scalar dtelecom_network.node[9].content_store 	misses[9] 	9470
scalar dtelecom_network.node[9].content_store 	decision_yes[9] 	1726
scalar dtelecom_network.node[9].content_store 	decision_no[9] 	7741
scalar dtelecom_network.node[9].content_store 	decision_ratio[9] 	0.18231752403084
scalar dtelecom_network.node[10].core_layer 	interests[10] 	0
scalar dtelecom_network.node[10].core_layer 	data[10] 	0
scalar dtelecom_network.node[10].content_store 	p_hit[10] 	-nan
scalar dtelecom_network.node[10].content_store 	hits[10] 	0
scalar dtelecom_network.node[10].content_store 	misses[10] 	0
scalar dtelecom_network.node[10].content_store 	decision_yes[10] 	0
scalar dtelecom_network.node[10].content_store 	decision_no[10] 	0
scalar dtelecom_network.node[10].content_store 	decision_ratio[10] 	0
scalar dtelecom_network.node[11].core_layer 	interests[11] 	0
scalar dtelecom_network.node[11].core_layer 	data[11] 	0
scalar dtelecom_network.node[11].content_store 	p_hit[11] 	-nan
scalar dtelecom_network.node[11].content_store 	hits[11] 	0
scalar dtelecom_network.node[11].content_store 	misses[11] 	0
scalar dtelecom_network.node[11].content_store 	decision_yes[11] 	0
scalar dtelecom_network.node[11].content_store 	decision_no[11] 	0
scalar dtelecom_network.node[11].content_store 	decision_ratio[11] 	0
scalar dtelecom_network.node[12].core_layer 	interests[12] 	0
scalar dtelecom_network.node[12].core_layer 	data[12] 	0
scalar dtelecom_network.node[12].content_store 	p_hit[12] 	-nan
scalar dtelecom_network.node[12].content_store 	hits[12] 	0
scalar dtelecom_network.node[12].content_store 	misses[12] 	0
scalar dtelecom_network.node[12].content_store 	decision_yes[12] 	0
scalar dtelecom_network.node[12].content_store 	decision_no[12] 	0
scalar dtelecom_network.node[12].content_store 	decision_ratio[12] 	0
scalar dtelecom_network.node[13].core_layer 	interests[13] 	0
scalar dtelecom_network.node[13].core_layer 	data[13] 	0
scalar dtelecom_network.node[13].content_store 	p_hit[13] 	-nan
scalar dtelecom_network.node[13].content_store 	hits[13] 	0
scalar dtelecom_network.node[13].content_store 	misses[13] 	0
scalar dtelecom_network.node[13].content_store 	decision_yes[13] 	0
scalar dtelecom_network.node[13].content_store 	decision_no[13] 	0
scalar dtelecom_network.node[13].content_store 	decision_ratio[13] 	0
scalar dtelecom_network.node[14].core_layer 	interests[14] 	14243
scalar dtelecom_network.node[14].core_layer 	repo_load[14] 	13146
scalar dtelecom_network.node[14].core_layer 	data[14] 	0
scalar dtelecom_network.node[14].content_store 	p_hit[14] 	0.077020290669101
scalar dtelecom_network.node[14].content_store 	hits[14] 	1097
scalar dtelecom_network.node[14].content_store 	misses[14] 	13146
scalar dtelecom_network.node[14].content_store 	decision_yes[14] 	13146
scalar dtelecom_network.node[14].content_store 	decision_no[14] 	0
scalar dtelecom_network.node[14].content_store 	decision_ratio[14] 	1
scalar dtelecom_network.node[15].core_layer 	interests[15] 	0
scalar dtelecom_network.node[15].core_layer 	data[15] 	0
scalar dtelecom_network.node[15].content_store 	p_hit[15] 	-nan
scalar dtelecom_network.node[15].content_store 	hits[15] 	0
scalar dtelecom_network.node[15].content_store 	misses[15] 	0
scalar dtelecom_network.node[15].content_store 	decision_yes[15] 	0
scalar dtelecom_network.node[15].content_store 	decision_no[15] 	0
scalar dtelecom_network.node[15].content_store 	decision_ratio[15] 	0
scalar dtelecom_network.node[16].core_layer 	interests[16] 	0
scalar dtelecom_network.node[16].core_layer 	data[16] 	0
scalar dtelecom_network.node[16].content_store 	p_hit[16] 	-nan
scalar dtelecom_network.node[16].content_store 	hits[16] 	0
scalar dtelecom_network.node[16].content_store 	misses[16] 	0
scalar dtelecom_network.node[16].content_store 	decision_yes[16] 	0
scalar dtelecom_network.node[16].content_store 	decision_no[16] 	0
scalar dtelecom_network.node[16].content_store 	decision_ratio[16] 	0
scalar dtelecom_network.node[17].core_layer 	interests[17] 	14183
scalar dtelecom_network.node[17].core_layer 	data[17] 	9782
scalar dtelecom_network.node[17].content_store 	p_hit[17] 	0.310160050765
scalar dtelecom_network.node[17].content_store 	hits[17] 	4399
scalar dtelecom_network.node[17].content_store 	misses[17] 	9784
scalar dtelecom_network.node[17].content_store 	decision_yes[17] 	1614
scalar dtelecom_network.node[17].content_store 	decision_no[17] 	8168
scalar dtelecom_network.node[17].content_store 	decision_ratio[17] 	0.16499693314251
scalar dtelecom_network.node[18].core_layer 	interests[18] 	0
scalar dtelecom_network.node[18].core_layer 	data[18] 	0
scalar dtelecom_network.node[18].content_store 	p_hit[18] 	-nan
scalar dtelecom_network.node[18].content_store 	hits[18] 	0
scalar dtelecom_network.node[18].content_store 	misses[18] 	0
scalar dtelecom_network.node[18].content_store 	decision_yes[18] 	0
scalar dtelecom_network.node[18].content_store 	decision_no[18] 	0
scalar dtelecom_network.node[18].content_store 	decision_ratio[18] 	0
scalar dtelecom_network.node[19].core_layer 	interests[19] 	13552
scalar dtelecom_network.node[19].core_layer 	repo_load[19] 	12532
scalar dtelecom_network.node[19].core_layer 	data[19] 	0
scalar dtelecom_network.node[19].content_store 	p_hit[19] 	0.075265643447462
scalar dtelecom_network.node[19].content_store 	hits[19] 	1020
scalar dtelecom_network.node[19].content_store 	misses[19] 	12532
scalar dtelecom_network.node[19].content_store 	decision_yes[19] 	12532
scalar dtelecom_network.node[19].content_store 	decision_no[19] 	0
scalar dtelecom_network.node[19].content_store 	decision_ratio[19] 	1
scalar dtelecom_network.node[20].core_layer 	interests[20] 	0
scalar dtelecom_network.node[20].core_layer 	data[20] 	0
scalar dtelecom_network.node[20].content_store 	p_hit[20] 	-nan
scalar dtelecom_network.node[20].content_store 	hits[20] 	0
scalar dtelecom_network.node[20].content_store 	misses[20] 	0
scalar dtelecom_network.node[20].content_store 	decision_yes[20] 	0
scalar dtelecom_network.node[20].content_store 	decision_no[20] 	0
scalar dtelecom_network.node[20].content_store 	decision_ratio[20] 	0
scalar dtelecom_network.node[21].core_layer 	interests[21] 	0
scalar dtelecom_network.node[21].core_layer 	data[21] 	0
scalar dtelecom_network.node[21].content_store 	p_hit[21] 	-nan
scalar dtelecom_network.node[21].content_store 	hits[21] 	0
scalar dtelecom_network.node[21].content_store 	misses[21] 	0
scalar dtelecom_network.node[21].content_store 	decision_yes[21] 	0
scalar dtelecom_network.node[21].content_store 	decision_no[21] 	0
scalar dtelecom_network.node[21].content_store 	decision_ratio[21] 	0
scalar dtelecom_network.node[22].core_layer 	interests[22] 	13390
scalar dtelecom_network.node[22].core_layer 	data[22] 	9011
scalar dtelecom_network.node[22].content_store 	p_hit[22] 	0.3268857356236
scalar dtelecom_network.node[22].content_store 	hits[22] 	4377
scalar dtelecom_network.node[22].content_store 	misses[22] 	9013
scalar dtelecom_network.node[22].content_store 	decision_yes[22] 	1174
scalar dtelecom_network.node[22].content_store 	decision_no[22] 	7837
scalar dtelecom_network.node[22].content_store 	decision_ratio[22] 	0.13028520696926
scalar dtelecom_network.node[23].core_layer 	interests[23] 	35463
scalar dtelecom_network.node[23].core_layer 	repo_load[23] 	13086
scalar dtelecom_network.node[23].core_layer 	data[23] 	18866
scalar dtelecom_network.node[23].content_store 	p_hit[23] 	0.098891802723966
scalar dtelecom_network.node[23].content_store 	hits[23] 	3507
scalar dtelecom_network.node[23].content_store 	misses[23] 	31956
scalar dtelecom_network.node[23].content_store 	decision_yes[23] 	18159
scalar dtelecom_network.node[23].content_store 	decision_no[23] 	13793
scalar dtelecom_network.node[23].content_store 	decision_ratio[23] 	0.56832123184777
scalar dtelecom_network.node[24].core_layer 	interests[24] 	0
scalar dtelecom_network.node[24].core_layer 	data[24] 	0
scalar dtelecom_network.node[24].content_store 	p_hit[24] 	-nan
scalar dtelecom_network.node[24].content_store 	hits[24] 	0
scalar dtelecom_network.node[24].content_store 	misses[24] 	0
scalar dtelecom_network.node[24].content_store 	decision_yes[24] 	0
scalar dtelecom_network.node[24].content_store 	decision_no[24] 	0
scalar dtelecom_network.node[24].content_store 	decision_ratio[24] 	0
scalar dtelecom_network.node[25].core_layer 	interests[25] 	11961
scalar dtelecom_network.node[25].core_layer 	repo_load[25] 	11302
scalar dtelecom_network.node[25].core_layer 	data[25] 	0
scalar dtelecom_network.node[25].content_store 	p_hit[25] 	0.055095727781958
scalar dtelecom_network.node[25].content_store 	hits[25] 	659
scalar dtelecom_network.node[25].content_store 	misses[25] 	11302
scalar dtelecom_network.node[25].content_store 	decision_yes[25] 	11302
scalar dtelecom_network.node[25].content_store 	decision_no[25] 	0
scalar dtelecom_network.node[25].content_store 	decision_ratio[25] 	1
scalar dtelecom_network.node[26].core_layer 	interests[26] 	2903
scalar dtelecom_network.node[26].core_layer 	data[26] 	772
scalar dtelecom_network.node[26].content_store 	p_hit[26] 	0.73406820530486
scalar dtelecom_network.node[26].content_store 	hits[26] 	2131
scalar dtelecom_network.node[26].content_store 	misses[26] 	772
scalar dtelecom_network.node[26].content_store 	decision_yes[26] 	59
scalar dtelecom_network.node[26].content_store 	decision_no[26] 	713
scalar dtelecom_network.node[26].content_store 	decision_ratio[26] 	0.076424870466321
scalar dtelecom_network.node[27].core_layer 	interests[27] 	0
scalar dtelecom_network.node[27].core_layer 	data[27] 	0
scalar dtelecom_network.node[27].content_store 	p_hit[27] 	-nan
scalar dtelecom_network.node[27].content_store 	hits[27] 	0
scalar dtelecom_network.node[27].content_store 	misses[27] 	0
scalar dtelecom_network.node[27].content_store 	decision_yes[27] 	0
scalar dtelecom_network.node[27].content_store 	decision_no[27] 	0
scalar dtelecom_network.node[27].content_store 	decision_ratio[27] 	0
scalar dtelecom_network.node[28].core_layer 	interests[28] 	13915
scalar dtelecom_network.node[28].core_layer 	data[28] 	9074
scalar dtelecom_network.node[28].content_store 	p_hit[28] 	0.34782608695652
scalar dtelecom_network.node[28].content_store 	hits[28] 	4840
scalar dtelecom_network.node[28].content_store 	misses[28] 	9075
scalar dtelecom_network.node[28].content_store 	decision_yes[28] 	1457
scalar dtelecom_network.node[28].content_store 	decision_no[28] 	7617
scalar dtelecom_network.node[28].content_store 	decision_ratio[28] 	0.16056865770333
scalar dtelecom_network.node[29].core_layer 	interests[29] 	0
scalar dtelecom_network.node[29].core_layer 	data[29] 	0
scalar dtelecom_network.node[29].content_store 	p_hit[29] 	-nan
scalar dtelecom_network.node[29].content_store 	hits[29] 	0
scalar dtelecom_network.node[29].content_store 	misses[29] 	0
scalar dtelecom_network.node[29].content_store 	decision_yes[29] 	0
scalar dtelecom_network.node[29].content_store 	decision_no[29] 	0
scalar dtelecom_network.node[29].content_store 	decision_ratio[29] 	0
scalar dtelecom_network.node[30].core_layer 	interests[30] 	13146
scalar dtelecom_network.node[30].core_layer 	data[30] 	8913
scalar dtelecom_network.node[30].content_store 	p_hit[30] 	0.32192301840864
scalar dtelecom_network.node[30].content_store 	hits[30] 	4232
scalar dtelecom_network.node[30].content_store 	misses[30] 	8914
scalar dtelecom_network.node[30].content_store 	decision_yes[30] 	1036
scalar dtelecom_network.node[30].content_store 	decision_no[30] 	7877
scalar dtelecom_network.node[30].content_store 	decision_ratio[30] 	0.11623471334007
scalar dtelecom_network.node[31].core_layer 	interests[31] 	13472
scalar dtelecom_network.node[31].core_layer 	data[31] 	8918
scalar dtelecom_network.node[31].content_store 	p_hit[31] 	0.33796021377672
scalar dtelecom_network.node[31].content_store 	hits[31] 	4553
scalar dtelecom_network.node[31].content_store 	misses[31] 	8919
scalar dtelecom_network.node[31].content_store 	decision_yes[31] 	1314
scalar dtelecom_network.node[31].content_store 	decision_no[31] 	7604
scalar dtelecom_network.node[31].content_store 	decision_ratio[31] 	0.1473424534649
scalar dtelecom_network.node[32].core_layer 	interests[32] 	13105
scalar dtelecom_network.node[32].core_layer 	data[32] 	8964
scalar dtelecom_network.node[32].content_store 	p_hit[32] 	0.31598626478443
scalar dtelecom_network.node[32].content_store 	hits[32] 	4141
scalar dtelecom_network.node[32].content_store 	misses[32] 	8964
scalar dtelecom_network.node[32].content_store 	decision_yes[32] 	1193
scalar dtelecom_network.node[32].content_store 	decision_no[32] 	7771
scalar dtelecom_network.node[32].content_store 	decision_ratio[32] 	0.13308790718429
scalar dtelecom_network.node[33].core_layer 	interests[33] 	13855
scalar dtelecom_network.node[33].core_layer 	data[33] 	8968
scalar dtelecom_network.node[33].content_store 	p_hit[33] 	0.35265247203176
scalar dtelecom_network.node[33].content_store 	hits[33] 	4886
scalar dtelecom_network.node[33].content_store 	misses[33] 	8969
scalar dtelecom_network.node[33].content_store 	decision_yes[33] 	1525
scalar dtelecom_network.node[33].content_store 	decision_no[33] 	7443
scalar dtelecom_network.node[33].content_store 	decision_ratio[33] 	0.17004906333631
scalar dtelecom_network.node[34].core_layer 	interests[34] 	0
scalar dtelecom_network.node[34].core_layer 	data[34] 	0
scalar dtelecom_network.node[34].content_store 	p_hit[34] 	-nan
scalar dtelecom_network.node[34].content_store 	hits[34] 	0
scalar dtelecom_network.node[34].content_store 	misses[34] 	0
scalar dtelecom_network.node[34].content_store 	decision_yes[34] 	0
scalar dtelecom_network.node[34].content_store 	decision_no[34] 	0
scalar dtelecom_network.node[34].content_store 	decision_ratio[34] 	0
scalar dtelecom_network.node[35].core_layer 	interests[35] 	0
scalar dtelecom_network.node[35].core_layer 	data[35] 	0
scalar dtelecom_network.node[35].content_store 	p_hit[35] 	-nan
scalar dtelecom_network.node[35].content_store 	hits[35] 	0
scalar dtelecom_network.node[35].content_store 	misses[35] 	0
scalar dtelecom_network.node[35].content_store 	decision_yes[35] 	0
scalar dtelecom_network.node[35].content_store 	decision_no[35] 	0
scalar dtelecom_network.node[35].content_store 	decision_ratio[35] 	0
scalar dtelecom_network.node[36].core_layer 	interests[36] 	13400
scalar dtelecom_network.node[36].core_layer 	data[36] 	8973
scalar dtelecom_network.node[36].content_store 	p_hit[36] 	0.33037313432836
scalar dtelecom_network.node[36].content_store 	hits[36] 	4427
scalar dtelecom_network.node[36].content_store 	misses[36] 	8973
scalar dtelecom_network.node[36].content_store 	decision_yes[36] 	1181
scalar dtelecom_network.node[36].content_store 	decision_no[36] 	7792
scalar dtelecom_network.node[36].content_store 	decision_ratio[36] 	0.13161707344255
scalar dtelecom_network.node[37].core_layer 	interests[37] 	13723
scalar dtelecom_network.node[37].core_layer 	data[37] 	9020
scalar dtelecom_network.node[37].content_store 	p_hit[37] 	0.34234496830139
scalar dtelecom_network.node[37].content_store 	hits[37] 	4698
scalar dtelecom_network.node[37].content_store 	misses[37] 	9025
scalar dtelecom_network.node[37].content_store 	decision_yes[37] 	1297
scalar dtelecom_network.node[37].content_store 	decision_no[37] 	7723
scalar dtelecom_network.node[37].content_store 	decision_ratio[37] 	0.14379157427938
scalar dtelecom_network.node[38].core_layer 	interests[38] 	0
scalar dtelecom_network.node[38].core_layer 	data[38] 	0
scalar dtelecom_network.node[38].content_store 	p_hit[38] 	-nan
scalar dtelecom_network.node[38].content_store 	hits[38] 	0
scalar dtelecom_network.node[38].content_store 	misses[38] 	0
scalar dtelecom_network.node[38].content_store 	decision_yes[38] 	0
scalar dtelecom_network.node[38].content_store 	decision_no[38] 	0
scalar dtelecom_network.node[38].content_store 	decision_ratio[38] 	0
scalar dtelecom_network.node[39].core_layer 	interests[39] 	14343
scalar dtelecom_network.node[39].core_layer 	repo_load[39] 	13334
scalar dtelecom_network.node[39].core_layer 	data[39] 	0
scalar dtelecom_network.node[39].content_store 	p_hit[39] 	0.070347904901346
scalar dtelecom_network.node[39].content_store 	hits[39] 	1009
scalar dtelecom_network.node[39].content_store 	misses[39] 	13334
scalar dtelecom_network.node[39].content_store 	decision_yes[39] 	13334
scalar dtelecom_network.node[39].content_store 	decision_no[39] 	0
scalar dtelecom_network.node[39].content_store 	decision_ratio[39] 	1
scalar dtelecom_network.node[40].core_layer 	interests[40] 	16145
scalar dtelecom_network.node[40].core_layer 	data[40] 	9480
scalar dtelecom_network.node[40].content_store 	p_hit[40] 	0.41282130690616
scalar dtelecom_network.node[40].content_store 	hits[40] 	6665
scalar dtelecom_network.node[40].content_store 	misses[40] 	9480
scalar dtelecom_network.node[40].content_store 	decision_yes[40] 	1697
scalar dtelecom_network.node[40].content_store 	decision_no[40] 	7783
scalar dtelecom_network.node[40].content_store 	decision_ratio[40] 	0.17900843881857
scalar dtelecom_network.node[41].core_layer 	interests[41] 	0
scalar dtelecom_network.node[41].core_layer 	data[41] 	0
scalar dtelecom_network.node[41].content_store 	p_hit[41] 	-nan
scalar dtelecom_network.node[41].content_store 	hits[41] 	0
scalar dtelecom_network.node[41].content_store 	misses[41] 	0
scalar dtelecom_network.node[41].content_store 	decision_yes[41] 	0
scalar dtelecom_network.node[41].content_store 	decision_no[41] 	0
scalar dtelecom_network.node[41].content_store 	decision_ratio[41] 	0
scalar dtelecom_network.node[42].core_layer 	interests[42] 	26255
scalar dtelecom_network.node[42].core_layer 	repo_load[42] 	13707
scalar dtelecom_network.node[42].core_layer 	data[42] 	10107
scalar dtelecom_network.node[42].content_store 	p_hit[42] 	0.092706151209293
scalar dtelecom_network.node[42].content_store 	hits[42] 	2434
scalar dtelecom_network.node[42].content_store 	misses[42] 	23821
scalar dtelecom_network.node[42].content_store 	decision_yes[42] 	16356
scalar dtelecom_network.node[42].content_store 	decision_no[42] 	7458
scalar dtelecom_network.node[42].content_store 	decision_ratio[42] 	0.68682287729907
scalar dtelecom_network.node[43].core_layer 	interests[43] 	0
scalar dtelecom_network.node[43].core_layer 	data[43] 	0
scalar dtelecom_network.node[43].content_store 	p_hit[43] 	-nan
scalar dtelecom_network.node[43].content_store 	hits[43] 	0
scalar dtelecom_network.node[43].content_store 	misses[43] 	0
scalar dtelecom_network.node[43].content_store 	decision_yes[43] 	0
scalar dtelecom_network.node[43].content_store 	decision_no[43] 	0
scalar dtelecom_network.node[43].content_store 	decision_ratio[43] 	0
scalar dtelecom_network.node[44].core_layer 	interests[44] 	12269
scalar dtelecom_network.node[44].core_layer 	repo_load[44] 	11596
scalar dtelecom_network.node[44].core_layer 	data[44] 	0
scalar dtelecom_network.node[44].content_store 	p_hit[44] 	0.054853696307768
scalar dtelecom_network.node[44].content_store 	hits[44] 	673
scalar dtelecom_network.node[44].content_store 	misses[44] 	11596
scalar dtelecom_network.node[44].content_store 	decision_yes[44] 	11596
scalar dtelecom_network.node[44].content_store 	decision_no[44] 	0
scalar dtelecom_network.node[44].content_store 	decision_ratio[44] 	1
scalar dtelecom_network.node[45].core_layer 	interests[45] 	13826
scalar dtelecom_network.node[45].core_layer 	data[45] 	9026
scalar dtelecom_network.node[45].content_store 	p_hit[45] 	0.3470996672935
scalar dtelecom_network.node[45].content_store 	hits[45] 	4799
scalar dtelecom_network.node[45].content_store 	misses[45] 	9027
scalar dtelecom_network.node[45].content_store 	decision_yes[45] 	1404
scalar dtelecom_network.node[45].content_store 	decision_no[45] 	7622
scalar dtelecom_network.node[45].content_store 	decision_ratio[45] 	0.15555063150897
scalar dtelecom_network.node[46].core_layer 	interests[46] 	13695
scalar dtelecom_network.node[46].core_layer 	data[46] 	9011
scalar dtelecom_network.node[46].content_store 	p_hit[46] 	0.34194961664841
scalar dtelecom_network.node[46].content_store 	hits[46] 	4683
scalar dtelecom_network.node[46].content_store 	misses[46] 	9012
scalar dtelecom_network.node[46].content_store 	decision_yes[46] 	1276
scalar dtelecom_network.node[46].content_store 	decision_no[46] 	7735
scalar dtelecom_network.node[46].content_store 	decision_ratio[46] 	0.14160470536012
scalar dtelecom_network.node[47].core_layer 	interests[47] 	15056
scalar dtelecom_network.node[47].core_layer 	repo_load[47] 	13867
scalar dtelecom_network.node[47].core_layer 	data[47] 	0
scalar dtelecom_network.node[47].content_store 	p_hit[47] 	0.078971838469713
scalar dtelecom_network.node[47].content_store 	hits[47] 	1189
scalar dtelecom_network.node[47].content_store 	misses[47] 	13867
scalar dtelecom_network.node[47].content_store 	decision_yes[47] 	13867
scalar dtelecom_network.node[47].content_store 	decision_no[47] 	0
scalar dtelecom_network.node[47].content_store 	decision_ratio[47] 	1
scalar dtelecom_network.node[48].core_layer 	interests[48] 	25814
scalar dtelecom_network.node[48].core_layer 	repo_load[48] 	13398
scalar dtelecom_network.node[48].core_layer 	data[48] 	10003
scalar dtelecom_network.node[48].content_store 	p_hit[48] 	0.093476408150616
scalar dtelecom_network.node[48].content_store 	hits[48] 	2413
scalar dtelecom_network.node[48].content_store 	misses[48] 	23401
scalar dtelecom_network.node[48].content_store 	decision_yes[48] 	15784
scalar dtelecom_network.node[48].content_store 	decision_no[48] 	7617
scalar dtelecom_network.node[48].content_store 	decision_ratio[48] 	0.67450108969702
scalar dtelecom_network.node[49].core_layer 	interests[49] 	13584
scalar dtelecom_network.node[49].core_layer 	data[49] 	9117
scalar dtelecom_network.node[49].content_store 	p_hit[49] 	0.3287691401649
scalar dtelecom_network.node[49].content_store 	hits[49] 	4466
scalar dtelecom_network.node[49].content_store 	misses[49] 	9118
scalar dtelecom_network.node[49].content_store 	decision_yes[49] 	1104
scalar dtelecom_network.node[49].content_store 	decision_no[49] 	8013
scalar dtelecom_network.node[49].content_store 	decision_ratio[49] 	0.12109246462652
scalar dtelecom_network.node[50].core_layer 	interests[50] 	13155
scalar dtelecom_network.node[50].core_layer 	data[50] 	8970
scalar dtelecom_network.node[50].content_store 	p_hit[50] 	0.31812998859749
scalar dtelecom_network.node[50].content_store 	hits[50] 	4185
scalar dtelecom_network.node[50].content_store 	misses[50] 	8970
scalar dtelecom_network.node[50].content_store 	decision_yes[50] 	1277
scalar dtelecom_network.node[50].content_store 	decision_no[50] 	7693
scalar dtelecom_network.node[50].content_store 	decision_ratio[50] 	0.14236343366778
scalar dtelecom_network.node[51].core_layer 	interests[51] 	14512
scalar dtelecom_network.node[51].core_layer 	data[51] 	9010
scalar dtelecom_network.node[51].content_store 	p_hit[51] 	0.37906560088203
scalar dtelecom_network.node[51].content_store 	hits[51] 	5501
scalar dtelecom_network.node[51].content_store 	misses[51] 	9011
scalar dtelecom_network.node[51].content_store 	decision_yes[51] 	1320
scalar dtelecom_network.node[51].content_store 	decision_no[51] 	7690
scalar dtelecom_network.node[51].content_store 	decision_ratio[51] 	0.1465038845727
scalar dtelecom_network.node[52].core_layer 	interests[52] 	0
scalar dtelecom_network.node[52].core_layer 	data[52] 	0
scalar dtelecom_network.node[52].content_store 	p_hit[52] 	-nan
scalar dtelecom_network.node[52].content_store 	hits[52] 	0
scalar dtelecom_network.node[52].content_store 	misses[52] 	0
scalar dtelecom_network.node[52].content_store 	decision_yes[52] 	0
scalar dtelecom_network.node[52].content_store 	decision_no[52] 	0
scalar dtelecom_network.node[52].content_store 	decision_ratio[52] 	0
scalar dtelecom_network.node[53].core_layer 	interests[53] 	13512
scalar dtelecom_network.node[53].core_layer 	data[53] 	8923
scalar dtelecom_network.node[53].content_store 	p_hit[53] 	0.3397720544701
scalar dtelecom_network.node[53].content_store 	hits[53] 	4591
scalar dtelecom_network.node[53].content_store 	misses[53] 	8921
scalar dtelecom_network.node[53].content_store 	decision_yes[53] 	1092
scalar dtelecom_network.node[53].content_store 	decision_no[53] 	7831
scalar dtelecom_network.node[53].content_store 	decision_ratio[53] 	0.12238036534798
scalar dtelecom_network.node[54].core_layer 	interests[54] 	13675
scalar dtelecom_network.node[54].core_layer 	data[54] 	8946
scalar dtelecom_network.node[54].content_store 	p_hit[54] 	0.34566727605119
scalar dtelecom_network.node[54].content_store 	hits[54] 	4727
scalar dtelecom_network.node[54].content_store 	misses[54] 	8948
scalar dtelecom_network.node[54].content_store 	decision_yes[54] 	1326
scalar dtelecom_network.node[54].content_store 	decision_no[54] 	7620
scalar dtelecom_network.node[54].content_store 	decision_ratio[54] 	0.14822266934943
scalar dtelecom_network.node[55].core_layer 	interests[55] 	25988
scalar dtelecom_network.node[55].core_layer 	repo_load[55] 	13531
scalar dtelecom_network.node[55].core_layer 	data[55] 	9887
scalar dtelecom_network.node[55].content_store 	p_hit[55] 	0.098660920424811
scalar dtelecom_network.node[55].content_store 	hits[55] 	2564
scalar dtelecom_network.node[55].content_store 	misses[55] 	23424
scalar dtelecom_network.node[55].content_store 	decision_yes[55] 	16199
scalar dtelecom_network.node[55].content_store 	decision_no[55] 	7219
scalar dtelecom_network.node[55].content_store 	decision_ratio[55] 	0.69173285506875
scalar dtelecom_network.node[56].core_layer 	interests[56] 	13420
scalar dtelecom_network.node[56].core_layer 	data[56] 	9010
scalar dtelecom_network.node[56].content_store 	p_hit[56] 	0.32861400894188
scalar dtelecom_network.node[56].content_store 	hits[56] 	4410
scalar dtelecom_network.node[56].content_store 	misses[56] 	9010
scalar dtelecom_network.node[56].content_store 	decision_yes[56] 	1167
scalar dtelecom_network.node[56].content_store 	decision_no[56] 	7843
scalar dtelecom_network.node[56].content_store 	decision_ratio[56] 	0.12952275249723
scalar dtelecom_network.node[57].core_layer 	interests[57] 	25655
scalar dtelecom_network.node[57].core_layer 	repo_load[57] 	13399
scalar dtelecom_network.node[57].core_layer 	data[57] 	9791
scalar dtelecom_network.node[57].content_store 	p_hit[57] 	0.095926719937634
scalar dtelecom_network.node[57].content_store 	hits[57] 	2461
scalar dtelecom_network.node[57].content_store 	misses[57] 	23194
scalar dtelecom_network.node[57].content_store 	decision_yes[57] 	15770
scalar dtelecom_network.node[57].content_store 	decision_no[57] 	7420
scalar dtelecom_network.node[57].content_store 	decision_ratio[57] 	0.68003449762829
scalar dtelecom_network.node[58].core_layer 	interests[58] 	13646
scalar dtelecom_network.node[58].core_layer 	data[58] 	9038
scalar dtelecom_network.node[58].content_store 	p_hit[58] 	0.33760809028287
scalar dtelecom_network.node[58].content_store 	hits[58] 	4607
scalar dtelecom_network.node[58].content_store 	misses[58] 	9039
scalar dtelecom_network.node[58].content_store 	decision_yes[58] 	1391
scalar dtelecom_network.node[58].content_store 	decision_no[58] 	7647
scalar dtelecom_network.node[58].content_store 	decision_ratio[58] 	0.15390573135649
scalar dtelecom_network.node[59].core_layer 	interests[59] 	15815
scalar dtelecom_network.node[59].core_layer 	data[59] 	9145
scalar dtelecom_network.node[59].content_store 	p_hit[59] 	0.42168827062915
scalar dtelecom_network.node[59].content_store 	hits[59] 	6669
scalar dtelecom_network.node[59].content_store 	misses[59] 	9146
scalar dtelecom_network.node[59].content_store 	decision_yes[59] 	1852
scalar dtelecom_network.node[59].content_store 	decision_no[59] 	7293
scalar dtelecom_network.node[59].content_store 	decision_ratio[59] 	0.20251503553855
scalar dtelecom_network.node[60].core_layer 	interests[60] 	0
scalar dtelecom_network.node[60].core_layer 	data[60] 	0
scalar dtelecom_network.node[60].content_store 	p_hit[60] 	-nan
scalar dtelecom_network.node[60].content_store 	hits[60] 	0
scalar dtelecom_network.node[60].content_store 	misses[60] 	0
scalar dtelecom_network.node[60].content_store 	decision_yes[60] 	0
scalar dtelecom_network.node[60].content_store 	decision_no[60] 	0
scalar dtelecom_network.node[60].content_store 	decision_ratio[60] 	0
scalar dtelecom_network.node[61].core_layer 	interests[61] 	0
scalar dtelecom_network.node[61].core_layer 	data[61] 	0
scalar dtelecom_network.node[61].content_store 	p_hit[61] 	-nan
scalar dtelecom_network.node[61].content_store 	hits[61] 	0
scalar dtelecom_network.node[61].content_store 	misses[61] 	0
scalar dtelecom_network.node[61].content_store 	decision_yes[61] 	0
scalar dtelecom_network.node[61].content_store 	decision_no[61] 	0
scalar dtelecom_network.node[61].content_store 	decision_ratio[61] 	0
scalar dtelecom_network.node[62].core_layer 	interests[62] 	12822
scalar dtelecom_network.node[62].core_layer 	data[62] 	9020
scalar dtelecom_network.node[62].content_store 	p_hit[62] 	0.29652160349399
scalar dtelecom_network.node[62].content_store 	hits[62] 	3802
scalar dtelecom_network.node[62].content_store 	misses[62] 	9020
scalar dtelecom_network.node[62].content_store 	decision_yes[62] 	616
scalar dtelecom_network.node[62].content_store 	decision_no[62] 	8404
scalar dtelecom_network.node[62].content_store 	decision_ratio[62] 	0.068292682926829
scalar dtelecom_network.node[63].core_layer 	interests[63] 	0
scalar dtelecom_network.node[63].core_layer 	data[63] 	0
scalar dtelecom_network.node[63].content_store 	p_hit[63] 	-nan
scalar dtelecom_network.node[63].content_store 	hits[63] 	0
scalar dtelecom_network.node[63].content_store 	misses[63] 	0
scalar dtelecom_network.node[63].content_store 	decision_yes[63] 	0
scalar dtelecom_network.node[63].content_store 	decision_no[63] 	0
scalar dtelecom_network.node[63].content_store 	decision_ratio[63] 	0
scalar dtelecom_network.node[64].core_layer 	interests[64] 	0
scalar dtelecom_network.node[64].core_layer 	data[64] 	0
scalar dtelecom_network.node[64].content_store 	p_hit[64] 	-nan
scalar dtelecom_network.node[64].content_store 	hits[64] 	0
scalar dtelecom_network.node[64].content_store 	misses[64] 	0
scalar dtelecom_network.node[64].content_store 	decision_yes[64] 	0
scalar dtelecom_network.node[64].content_store 	decision_no[64] 	0
scalar dtelecom_network.node[64].content_store 	decision_ratio[64] 	0
scalar dtelecom_network.node[65].core_layer 	interests[65] 	1625
scalar dtelecom_network.node[65].core_layer 	data[65] 	29
scalar dtelecom_network.node[65].content_store 	p_hit[65] 	0.98215384615385
scalar dtelecom_network.node[65].content_store 	hits[65] 	1596
scalar dtelecom_network.node[65].content_store 	misses[65] 	29
scalar dtelecom_network.node[65].content_store 	decision_yes[65] 	29
scalar dtelecom_network.node[65].content_store 	decision_no[65] 	0
scalar dtelecom_network.node[65].content_store 	decision_ratio[65] 	1
scalar dtelecom_network.node[66].core_layer 	interests[66] 	13253
scalar dtelecom_network.node[66].core_layer 	data[66] 	8967
scalar dtelecom_network.node[66].content_store 	p_hit[66] 	0.32302120274655
scalar dtelecom_network.node[66].content_store 	hits[66] 	4281
scalar dtelecom_network.node[66].content_store 	misses[66] 	8972
scalar dtelecom_network.node[66].content_store 	decision_yes[66] 	311
scalar dtelecom_network.node[66].content_store 	decision_no[66] 	8656
scalar dtelecom_network.node[66].content_store 	decision_ratio[66] 	0.034682725549236
scalar dtelecom_network.node[67].core_layer 	interests[67] 	24958
scalar dtelecom_network.node[67].core_layer 	repo_load[67] 	12940
scalar dtelecom_network.node[67].core_layer 	data[67] 	9875
scalar dtelecom_network.node[67].content_store 	p_hit[67] 	0.085343376873147
scalar dtelecom_network.node[67].content_store 	hits[67] 	2130
scalar dtelecom_network.node[67].content_store 	misses[67] 	22828
scalar dtelecom_network.node[67].content_store 	decision_yes[67] 	13992
scalar dtelecom_network.node[67].content_store 	decision_no[67] 	8823
scalar dtelecom_network.node[67].content_store 	decision_ratio[67] 	0.61328073635766
scalar dtelecom_network.client[3] 	hdistance[3] 	1.3246476565061
scalar dtelecom_network.client[3] 	downloads[3] 	12204
scalar dtelecom_network.client[3] 	avg_time[3] 	0.0093145274
scalar dtelecom_network.client[4] 	hdistance[4] 	1.3810003356831
scalar dtelecom_network.client[4] 	downloads[4] 	11916
scalar dtelecom_network.client[4] 	avg_time[4] 	0.051434187842
scalar dtelecom_network.client[8] 	hdistance[8] 	1.994265474785
scalar dtelecom_network.client[8] 	downloads[8] 	11858
scalar dtelecom_network.client[8] 	avg_time[8] 	0.015063452776
scalar dtelecom_network.client[9] 	hdistance[9] 	1.8070615796519
scalar dtelecom_network.client[9] 	downloads[9] 	11952
scalar dtelecom_network.client[9] 	avg_time[9] 	0.014353232187
scalar dtelecom_network.client[17] 	hdistance[17] 	1.8401182432432
scalar dtelecom_network.client[17] 	downloads[17] 	11840
scalar dtelecom_network.client[17] 	avg_time[17] 	0.012552739425
scalar dtelecom_network.client[22] 	hdistance[22] 	1.9170287433155
scalar dtelecom_network.client[22] 	downloads[22] 	11968
scalar dtelecom_network.client[22] 	avg_time[22] 	0.013071509585
scalar dtelecom_network.client[23] 	hdistance[23] 	1.8665782713185
scalar dtelecom_network.client[23] 	downloads[23] 	12067
scalar dtelecom_network.client[23] 	avg_time[23] 	0.012966812981
scalar dtelecom_network.client[28] 	hdistance[28] 	1.9038381135546
scalar dtelecom_network.client[28] 	downloads[28] 	11959
scalar dtelecom_network.client[28] 	avg_time[28] 	0.015864639744
scalar dtelecom_network.client[30] 	hdistance[30] 	1.9103187919463
scalar dtelecom_network.client[30] 	downloads[30] 	11920
scalar dtelecom_network.client[30] 	avg_time[30] 	0.013179888938
scalar dtelecom_network.client[31] 	hdistance[31] 	1.8814497860559
scalar dtelecom_network.client[31] 	downloads[31] 	11919
scalar dtelecom_network.client[31] 	avg_time[31] 	0.015334089506
scalar dtelecom_network.client[32] 	hdistance[32] 	1.9121877365632
scalar dtelecom_network.client[32] 	downloads[32] 	11889
scalar dtelecom_network.client[32] 	avg_time[32] 	0.01184932598
scalar dtelecom_network.client[33] 	hdistance[33] 	1.834772304046
scalar dtelecom_network.client[33] 	downloads[33] 	11814
scalar dtelecom_network.client[33] 	avg_time[33] 	0.012923752425
scalar dtelecom_network.client[36] 	hdistance[36] 	1.9008174841508
scalar dtelecom_network.client[36] 	downloads[36] 	11988
scalar dtelecom_network.client[36] 	avg_time[36] 	0.01338881777
scalar dtelecom_network.client[37] 	hdistance[37] 	1.8620775554264
scalar dtelecom_network.client[37] 	downloads[37] 	12043
scalar dtelecom_network.client[37] 	avg_time[37] 	0.013787441968
scalar dtelecom_network.client[40] 	hdistance[40] 	1.7110493515243
scalar dtelecom_network.client[40] 	downloads[40] 	11874
scalar dtelecom_network.client[40] 	avg_time[40] 	0.013997155798
scalar dtelecom_network.client[42] 	hdistance[42] 	1.9951575837163
scalar dtelecom_network.client[42] 	downloads[42] 	12184
scalar dtelecom_network.client[42] 	avg_time[42] 	0.017800509404
scalar dtelecom_network.client[45] 	hdistance[45] 	1.8809701802475
scalar dtelecom_network.client[45] 	downloads[45] 	12039
scalar dtelecom_network.client[45] 	avg_time[45] 	0.013822629002
scalar dtelecom_network.client[46] 	hdistance[46] 	1.8913895140452
scalar dtelecom_network.client[46] 	downloads[46] 	11997
scalar dtelecom_network.client[46] 	avg_time[46] 	0.01503620905
scalar dtelecom_network.client[48] 	hdistance[48] 	2.009374229093
scalar dtelecom_network.client[48] 	downloads[48] 	12161
scalar dtelecom_network.client[48] 	avg_time[48] 	0.015367354286
scalar dtelecom_network.client[49] 	hdistance[49] 	1.9354972605014
scalar dtelecom_network.client[49] 	downloads[49] 	12046
scalar dtelecom_network.client[49] 	avg_time[49] 	0.012950537187
scalar dtelecom_network.client[50] 	hdistance[50] 	1.894181665969
scalar dtelecom_network.client[50] 	downloads[50] 	11945
scalar dtelecom_network.client[50] 	avg_time[50] 	0.012966694698
scalar dtelecom_network.client[51] 	hdistance[51] 	1.8212234706617
scalar dtelecom_network.client[51] 	downloads[51] 	12015
scalar dtelecom_network.client[51] 	avg_time[51] 	0.013165000039
scalar dtelecom_network.client[53] 	hdistance[53] 	1.9142257658414
scalar dtelecom_network.client[53] 	downloads[53] 	11915
scalar dtelecom_network.client[53] 	avg_time[53] 	0.012515389975
scalar dtelecom_network.client[54] 	hdistance[54] 	1.8334732247776
scalar dtelecom_network.client[54] 	downloads[54] 	11914
scalar dtelecom_network.client[54] 	avg_time[54] 	0.013852389203
scalar dtelecom_network.client[55] 	hdistance[55] 	1.9231845875185
scalar dtelecom_network.client[55] 	downloads[55] 	12146
scalar dtelecom_network.client[55] 	avg_time[55] 	0.019634315805
scalar dtelecom_network.client[56] 	hdistance[56] 	1.8766711229947
scalar dtelecom_network.client[56] 	downloads[56] 	11968
scalar dtelecom_network.client[56] 	avg_time[56] 	0.013020171186
scalar dtelecom_network.client[57] 	hdistance[57] 	1.9690366007573
scalar dtelecom_network.client[57] 	downloads[57] 	11885
scalar dtelecom_network.client[57] 	avg_time[57] 	0.01381486038
scalar dtelecom_network.client[58] 	hdistance[58] 	1.8895266616754
scalar dtelecom_network.client[58] 	downloads[58] 	12021
scalar dtelecom_network.client[58] 	avg_time[58] 	0.015605430038
scalar dtelecom_network.client[59] 	hdistance[59] 	1.8717501453609
scalar dtelecom_network.client[59] 	downloads[59] 	12039
scalar dtelecom_network.client[59] 	avg_time[59] 	0.058056779813
scalar dtelecom_network.client[62] 	hdistance[62] 	2.4249462721111
scalar dtelecom_network.client[62] 	downloads[62] 	12098
scalar dtelecom_network.client[62] 	avg_time[62] 	0.058256644053
scalar dtelecom_network.client[66] 	hdistance[66] 	2.0220994475138
scalar dtelecom_network.client[66] 	downloads[66] 	12127
scalar dtelecom_network.client[66] 	avg_time[66] 	0.091106696829
scalar dtelecom_network.client[67] 	hdistance[67] 	2.1716424257889
scalar dtelecom_network.client[67] 	downloads[67] 	11757
scalar dtelecom_network.client[67] 	avg_time[67] 	0.083256212685
