version 2
run General-197-20160819-10:09:10-13837
attr a 0.9
attr cd fix0.1
attr configname General
attr cr lru
attr datetime 20160819-10:09:10
attr experiment General
attr fsize 1
attr inifile hw5115/scenario_A/NRR-FIX0.1.ini
attr iterationvars "$name=tree_4_3, $un=09, $rep=18, $cd=fix0.1, $cr=lru, $fsize=1, $a=0.9, $sl=nrr, $ttl=1000, $variance=0.05"
attr iterationvars2 "$name=tree_4_3, $un=09, $rep=18, $cd=fix0.1, $cr=lru, $fsize=1, $a=0.9, $sl=nrr, $ttl=1000, $variance=0.05, $repetition=0"
attr measurement "$name=tree_4_3, $un=09, $rep=18, $cd=fix0.1, $cr=lru, $fsize=1, $a=0.9, $sl=nrr, $ttl=1000, $variance=0.05"
attr name tree_4_3
attr network networks.${name}_u${un}_r${rep}_network
attr processid 13837
attr rep 18
attr repetition 0
attr replication #0
attr resultdir results
attr runnumber 197
attr seedset 18
attr sl nrr
attr ttl 1000
attr un 09
attr variance 0.05

scalar . 	a 	0.9
scalar . 	fsize 	1
scalar . 	rep 	18
scalar . 	ttl 	1000
scalar . 	un 	09
scalar . 	variance 	0.05
scalar tree_4_3_u09_r18_network.content_distribution 	repo-0 	0
scalar tree_4_3_u09_r18_network.content_distribution 	client-0 	13
scalar tree_4_3_u09_r18_network.content_distribution 	client-1 	14
scalar tree_4_3_u09_r18_network.content_distribution 	client-2 	15
scalar tree_4_3_u09_r18_network.content_distribution 	client-3 	16
scalar tree_4_3_u09_r18_network.content_distribution 	client-4 	17
scalar tree_4_3_u09_r18_network.content_distribution 	client-5 	18
scalar tree_4_3_u09_r18_network.content_distribution 	client-6 	19
scalar tree_4_3_u09_r18_network.content_distribution 	client-7 	20
scalar tree_4_3_u09_r18_network.content_distribution 	client-8 	21
scalar tree_4_3_u09_r18_network.content_distribution 	client-9 	22
scalar tree_4_3_u09_r18_network.content_distribution 	client-10 	23
scalar tree_4_3_u09_r18_network.content_distribution 	client-11 	24
scalar tree_4_3_u09_r18_network.content_distribution 	client-12 	25
scalar tree_4_3_u09_r18_network.content_distribution 	client-13 	26
scalar tree_4_3_u09_r18_network.content_distribution 	client-14 	27
scalar tree_4_3_u09_r18_network.content_distribution 	client-15 	28
scalar tree_4_3_u09_r18_network.content_distribution 	client-16 	29
scalar tree_4_3_u09_r18_network.content_distribution 	client-17 	30
scalar tree_4_3_u09_r18_network.content_distribution 	client-18 	31
scalar tree_4_3_u09_r18_network.content_distribution 	client-19 	32
scalar tree_4_3_u09_r18_network.content_distribution 	client-20 	33
scalar tree_4_3_u09_r18_network.content_distribution 	client-21 	34
scalar tree_4_3_u09_r18_network.content_distribution 	client-22 	35
scalar tree_4_3_u09_r18_network.content_distribution 	client-23 	36
scalar tree_4_3_u09_r18_network.content_distribution 	client-24 	37
scalar tree_4_3_u09_r18_network.content_distribution 	client-25 	38
scalar tree_4_3_u09_r18_network.content_distribution 	client-26 	39
scalar tree_4_3_u09_r18_network.content_distribution 	repo-0_card 	100000
scalar tree_4_3_u09_r18_network.content_distribution 	repo-0_price 	0
scalar tree_4_3_u09_r18_network.statistics 	stabilization_time 	589.8
scalar tree_4_3_u09_r18_network.statistics 	p_hit 	0.23246591562725
scalar tree_4_3_u09_r18_network.statistics 	interests 	26181.275
scalar tree_4_3_u09_r18_network.statistics 	data 	18078.525
scalar tree_4_3_u09_r18_network.statistics 	hdistance 	2.7888241067716
scalar tree_4_3_u09_r18_network.statistics 	avg_time 	0.004462418799
scalar tree_4_3_u09_r18_network.statistics 	downloads 	324101
scalar tree_4_3_u09_r18_network.statistics 	total_cost 	0
scalar tree_4_3_u09_r18_network.statistics 	total_replicas 	100000
scalar tree_4_3_u09_r18_network.statistics 	inner_hit 	0.44242381233011
scalar tree_4_3_u09_r18_network.node[0].core_layer 	interests[0] 	181621
scalar tree_4_3_u09_r18_network.node[0].core_layer 	repo_load[0] 	180711
scalar tree_4_3_u09_r18_network.node[0].core_layer 	data[0] 	0
scalar tree_4_3_u09_r18_network.node[0].core_layer 	repo_int[0] 	180711
scalar tree_4_3_u09_r18_network.node[0].content_store 	p_hit[0] 	0.0050104338154729
scalar tree_4_3_u09_r18_network.node[0].content_store 	hits[0] 	910
scalar tree_4_3_u09_r18_network.node[0].content_store 	misses[0] 	180711
scalar tree_4_3_u09_r18_network.node[0].content_store 	decision_yes[0] 	18257
scalar tree_4_3_u09_r18_network.node[0].content_store 	decision_no[0] 	162454
scalar tree_4_3_u09_r18_network.node[0].content_store 	decision_ratio[0] 	0.10102871435607
scalar tree_4_3_u09_r18_network.node[1].core_layer 	interests[1] 	141106
scalar tree_4_3_u09_r18_network.node[1].core_layer 	data[1] 	140008
scalar tree_4_3_u09_r18_network.node[1].content_store 	p_hit[1] 	0.0077742973367539
scalar tree_4_3_u09_r18_network.node[1].content_store 	hits[1] 	1097
scalar tree_4_3_u09_r18_network.node[1].content_store 	misses[1] 	140009
scalar tree_4_3_u09_r18_network.node[1].content_store 	decision_yes[1] 	14054
scalar tree_4_3_u09_r18_network.node[1].content_store 	decision_no[1] 	125952
scalar tree_4_3_u09_r18_network.node[1].content_store 	decision_ratio[1] 	0.10038141222519
scalar tree_4_3_u09_r18_network.node[2].core_layer 	interests[2] 	52021
scalar tree_4_3_u09_r18_network.node[2].core_layer 	data[2] 	50186
scalar tree_4_3_u09_r18_network.node[2].content_store 	p_hit[2] 	0.035235770169739
scalar tree_4_3_u09_r18_network.node[2].content_store 	hits[2] 	1833
scalar tree_4_3_u09_r18_network.node[2].content_store 	misses[2] 	50188
scalar tree_4_3_u09_r18_network.node[2].content_store 	decision_yes[2] 	5082
scalar tree_4_3_u09_r18_network.node[2].content_store 	decision_no[2] 	45103
scalar tree_4_3_u09_r18_network.node[2].content_store 	decision_ratio[2] 	0.10126531832221
scalar tree_4_3_u09_r18_network.node[3].core_layer 	interests[3] 	20604
scalar tree_4_3_u09_r18_network.node[3].core_layer 	data[3] 	18476
scalar tree_4_3_u09_r18_network.node[3].content_store 	p_hit[3] 	0.10328091632693
scalar tree_4_3_u09_r18_network.node[3].content_store 	hits[3] 	2128
scalar tree_4_3_u09_r18_network.node[3].content_store 	misses[3] 	18476
scalar tree_4_3_u09_r18_network.node[3].content_store 	decision_yes[3] 	1805
scalar tree_4_3_u09_r18_network.node[3].content_store 	decision_no[3] 	16671
scalar tree_4_3_u09_r18_network.node[3].content_store 	decision_ratio[3] 	0.097694306126867
scalar tree_4_3_u09_r18_network.node[4].core_layer 	interests[4] 	44977
scalar tree_4_3_u09_r18_network.node[4].core_layer 	data[4] 	42987
scalar tree_4_3_u09_r18_network.node[4].content_store 	p_hit[4] 	0.044178135491473
scalar tree_4_3_u09_r18_network.node[4].content_store 	hits[4] 	1987
scalar tree_4_3_u09_r18_network.node[4].content_store 	misses[4] 	42990
scalar tree_4_3_u09_r18_network.node[4].content_store 	decision_yes[4] 	4289
scalar tree_4_3_u09_r18_network.node[4].content_store 	decision_no[4] 	38698
scalar tree_4_3_u09_r18_network.node[4].content_store 	decision_ratio[4] 	0.099774350385
scalar tree_4_3_u09_r18_network.node[5].core_layer 	interests[5] 	32947
scalar tree_4_3_u09_r18_network.node[5].core_layer 	data[5] 	29597
scalar tree_4_3_u09_r18_network.node[5].content_store 	p_hit[5] 	0.10164810149634
scalar tree_4_3_u09_r18_network.node[5].content_store 	hits[5] 	3349
scalar tree_4_3_u09_r18_network.node[5].content_store 	misses[5] 	29598
scalar tree_4_3_u09_r18_network.node[5].content_store 	decision_yes[5] 	2918
scalar tree_4_3_u09_r18_network.node[5].content_store 	decision_no[5] 	26679
scalar tree_4_3_u09_r18_network.node[5].content_store 	decision_ratio[5] 	0.098591073419603
scalar tree_4_3_u09_r18_network.node[6].core_layer 	interests[6] 	18064
scalar tree_4_3_u09_r18_network.node[6].core_layer 	data[6] 	12919
scalar tree_4_3_u09_r18_network.node[6].content_store 	p_hit[6] 	0.28476527900797
scalar tree_4_3_u09_r18_network.node[6].content_store 	hits[6] 	5144
scalar tree_4_3_u09_r18_network.node[6].content_store 	misses[6] 	12920
scalar tree_4_3_u09_r18_network.node[6].content_store 	decision_yes[6] 	1234
scalar tree_4_3_u09_r18_network.node[6].content_store 	decision_no[6] 	11685
scalar tree_4_3_u09_r18_network.node[6].content_store 	decision_ratio[6] 	0.09551822896509
scalar tree_4_3_u09_r18_network.node[7].core_layer 	interests[7] 	48930
scalar tree_4_3_u09_r18_network.node[7].core_layer 	data[7] 	46378
scalar tree_4_3_u09_r18_network.node[7].content_store 	p_hit[7] 	0.052135704067035
scalar tree_4_3_u09_r18_network.node[7].content_store 	hits[7] 	2551
scalar tree_4_3_u09_r18_network.node[7].content_store 	misses[7] 	46379
scalar tree_4_3_u09_r18_network.node[7].content_store 	decision_yes[7] 	4674
scalar tree_4_3_u09_r18_network.node[7].content_store 	decision_no[7] 	41704
scalar tree_4_3_u09_r18_network.node[7].content_store 	decision_ratio[7] 	0.1007805424986
scalar tree_4_3_u09_r18_network.node[8].core_layer 	interests[8] 	30304
scalar tree_4_3_u09_r18_network.node[8].core_layer 	data[8] 	27830
scalar tree_4_3_u09_r18_network.node[8].content_store 	p_hit[8] 	0.081639387539599
scalar tree_4_3_u09_r18_network.node[8].content_store 	hits[8] 	2474
scalar tree_4_3_u09_r18_network.node[8].content_store 	misses[8] 	27830
scalar tree_4_3_u09_r18_network.node[8].content_store 	decision_yes[8] 	2720
scalar tree_4_3_u09_r18_network.node[8].content_store 	decision_no[8] 	25110
scalar tree_4_3_u09_r18_network.node[8].content_store 	decision_ratio[8] 	0.097736255839023
scalar tree_4_3_u09_r18_network.node[9].core_layer 	interests[9] 	15092
scalar tree_4_3_u09_r18_network.node[9].core_layer 	data[9] 	10881
scalar tree_4_3_u09_r18_network.node[9].content_store 	p_hit[9] 	0.27902199840975
scalar tree_4_3_u09_r18_network.node[9].content_store 	hits[9] 	4211
scalar tree_4_3_u09_r18_network.node[9].content_store 	misses[9] 	10881
scalar tree_4_3_u09_r18_network.node[9].content_store 	decision_yes[9] 	1077
scalar tree_4_3_u09_r18_network.node[9].content_store 	decision_no[9] 	9804
scalar tree_4_3_u09_r18_network.node[9].content_store 	decision_ratio[9] 	0.098979873173422
scalar tree_4_3_u09_r18_network.node[10].core_layer 	interests[10] 	47959
scalar tree_4_3_u09_r18_network.node[10].core_layer 	data[10] 	45418
scalar tree_4_3_u09_r18_network.node[10].content_store 	p_hit[10] 	0.052941053816802
scalar tree_4_3_u09_r18_network.node[10].content_store 	hits[10] 	2539
scalar tree_4_3_u09_r18_network.node[10].content_store 	misses[10] 	45420
scalar tree_4_3_u09_r18_network.node[10].content_store 	decision_yes[10] 	4601
scalar tree_4_3_u09_r18_network.node[10].content_store 	decision_no[10] 	40817
scalar tree_4_3_u09_r18_network.node[10].content_store 	decision_ratio[10] 	0.10130344797217
scalar tree_4_3_u09_r18_network.node[11].core_layer 	interests[11] 	24054
scalar tree_4_3_u09_r18_network.node[11].core_layer 	data[11] 	20493
scalar tree_4_3_u09_r18_network.node[11].content_store 	p_hit[11] 	0.14804190571215
scalar tree_4_3_u09_r18_network.node[11].content_store 	hits[11] 	3561
scalar tree_4_3_u09_r18_network.node[11].content_store 	misses[11] 	20493
scalar tree_4_3_u09_r18_network.node[11].content_store 	decision_yes[11] 	2063
scalar tree_4_3_u09_r18_network.node[11].content_store 	decision_no[11] 	18429
scalar tree_4_3_u09_r18_network.node[11].content_store 	decision_ratio[11] 	0.10067343353504
scalar tree_4_3_u09_r18_network.node[12].core_layer 	interests[12] 	22816
scalar tree_4_3_u09_r18_network.node[12].core_layer 	data[12] 	19875
scalar tree_4_3_u09_r18_network.node[12].content_store 	p_hit[12] 	0.1289007713885
scalar tree_4_3_u09_r18_network.node[12].content_store 	hits[12] 	2941
scalar tree_4_3_u09_r18_network.node[12].content_store 	misses[12] 	19875
scalar tree_4_3_u09_r18_network.node[12].content_store 	decision_yes[12] 	2018
scalar tree_4_3_u09_r18_network.node[12].content_store 	decision_no[12] 	17857
scalar tree_4_3_u09_r18_network.node[12].content_store 	decision_ratio[12] 	0.10153459119497
scalar tree_4_3_u09_r18_network.node[13].core_layer 	interests[13] 	13185
scalar tree_4_3_u09_r18_network.node[13].core_layer 	data[13] 	9756
scalar tree_4_3_u09_r18_network.node[13].content_store 	p_hit[13] 	0.26006825938567
scalar tree_4_3_u09_r18_network.node[13].content_store 	hits[13] 	3429
scalar tree_4_3_u09_r18_network.node[13].content_store 	misses[13] 	9756
scalar tree_4_3_u09_r18_network.node[13].content_store 	decision_yes[13] 	988
scalar tree_4_3_u09_r18_network.node[13].content_store 	decision_no[13] 	8768
scalar tree_4_3_u09_r18_network.node[13].content_store 	decision_ratio[13] 	0.10127101271013
scalar tree_4_3_u09_r18_network.node[14].core_layer 	interests[14] 	14001
scalar tree_4_3_u09_r18_network.node[14].core_layer 	data[14] 	9398
scalar tree_4_3_u09_r18_network.node[14].content_store 	p_hit[14] 	0.3287622312692
scalar tree_4_3_u09_r18_network.node[14].content_store 	hits[14] 	4603
scalar tree_4_3_u09_r18_network.node[14].content_store 	misses[14] 	9398
scalar tree_4_3_u09_r18_network.node[14].content_store 	decision_yes[14] 	925
scalar tree_4_3_u09_r18_network.node[14].content_store 	decision_no[14] 	8473
scalar tree_4_3_u09_r18_network.node[14].content_store 	decision_ratio[14] 	0.098425196850394
scalar tree_4_3_u09_r18_network.node[15].core_layer 	interests[15] 	13838
scalar tree_4_3_u09_r18_network.node[15].core_layer 	data[15] 	9575
scalar tree_4_3_u09_r18_network.node[15].content_store 	p_hit[15] 	0.30806474924122
scalar tree_4_3_u09_r18_network.node[15].content_store 	hits[15] 	4263
scalar tree_4_3_u09_r18_network.node[15].content_store 	misses[15] 	9575
scalar tree_4_3_u09_r18_network.node[15].content_store 	decision_yes[15] 	997
scalar tree_4_3_u09_r18_network.node[15].content_store 	decision_no[15] 	8578
scalar tree_4_3_u09_r18_network.node[15].content_store 	decision_ratio[15] 	0.10412532637076
scalar tree_4_3_u09_r18_network.node[16].core_layer 	interests[16] 	13923
scalar tree_4_3_u09_r18_network.node[16].core_layer 	data[16] 	9464
scalar tree_4_3_u09_r18_network.node[16].content_store 	p_hit[16] 	0.3202614379085
scalar tree_4_3_u09_r18_network.node[16].content_store 	hits[16] 	4459
scalar tree_4_3_u09_r18_network.node[16].content_store 	misses[16] 	9464
scalar tree_4_3_u09_r18_network.node[16].content_store 	decision_yes[16] 	908
scalar tree_4_3_u09_r18_network.node[16].content_store 	decision_no[16] 	8556
scalar tree_4_3_u09_r18_network.node[16].content_store 	decision_ratio[16] 	0.095942519019442
scalar tree_4_3_u09_r18_network.node[17].core_layer 	interests[17] 	13056
scalar tree_4_3_u09_r18_network.node[17].core_layer 	data[17] 	9418
scalar tree_4_3_u09_r18_network.node[17].content_store 	p_hit[17] 	0.27864583333333
scalar tree_4_3_u09_r18_network.node[17].content_store 	hits[17] 	3638
scalar tree_4_3_u09_r18_network.node[17].content_store 	misses[17] 	9418
scalar tree_4_3_u09_r18_network.node[17].content_store 	decision_yes[17] 	903
scalar tree_4_3_u09_r18_network.node[17].content_store 	decision_no[17] 	8515
scalar tree_4_3_u09_r18_network.node[17].content_store 	decision_ratio[17] 	0.095880229348057
scalar tree_4_3_u09_r18_network.node[18].core_layer 	interests[18] 	13955
scalar tree_4_3_u09_r18_network.node[18].core_layer 	data[18] 	9582
scalar tree_4_3_u09_r18_network.node[18].content_store 	p_hit[18] 	0.3133643855249
scalar tree_4_3_u09_r18_network.node[18].content_store 	hits[18] 	4373
scalar tree_4_3_u09_r18_network.node[18].content_store 	misses[18] 	9582
scalar tree_4_3_u09_r18_network.node[18].content_store 	decision_yes[18] 	1004
scalar tree_4_3_u09_r18_network.node[18].content_store 	decision_no[18] 	8578
scalar tree_4_3_u09_r18_network.node[18].content_store 	decision_ratio[18] 	0.1047797954498
scalar tree_4_3_u09_r18_network.node[19].core_layer 	interests[19] 	13730
scalar tree_4_3_u09_r18_network.node[19].core_layer 	data[19] 	9525
scalar tree_4_3_u09_r18_network.node[19].content_store 	p_hit[19] 	0.30626365622724
scalar tree_4_3_u09_r18_network.node[19].content_store 	hits[19] 	4205
scalar tree_4_3_u09_r18_network.node[19].content_store 	misses[19] 	9525
scalar tree_4_3_u09_r18_network.node[19].content_store 	decision_yes[19] 	993
scalar tree_4_3_u09_r18_network.node[19].content_store 	decision_no[19] 	8532
scalar tree_4_3_u09_r18_network.node[19].content_store 	decision_ratio[19] 	0.10425196850394
scalar tree_4_3_u09_r18_network.node[20].core_layer 	interests[20] 	14047
scalar tree_4_3_u09_r18_network.node[20].core_layer 	data[20] 	9515
scalar tree_4_3_u09_r18_network.node[20].content_store 	p_hit[20] 	0.32255997721934
scalar tree_4_3_u09_r18_network.node[20].content_store 	hits[20] 	4531
scalar tree_4_3_u09_r18_network.node[20].content_store 	misses[20] 	9516
scalar tree_4_3_u09_r18_network.node[20].content_store 	decision_yes[20] 	905
scalar tree_4_3_u09_r18_network.node[20].content_store 	decision_no[20] 	8610
scalar tree_4_3_u09_r18_network.node[20].content_store 	decision_ratio[20] 	0.095112979506043
scalar tree_4_3_u09_r18_network.node[21].core_layer 	interests[21] 	12913
scalar tree_4_3_u09_r18_network.node[21].core_layer 	data[21] 	9499
scalar tree_4_3_u09_r18_network.node[21].content_store 	p_hit[21] 	0.26438472856811
scalar tree_4_3_u09_r18_network.node[21].content_store 	hits[21] 	3414
scalar tree_4_3_u09_r18_network.node[21].content_store 	misses[21] 	9499
scalar tree_4_3_u09_r18_network.node[21].content_store 	decision_yes[21] 	925
scalar tree_4_3_u09_r18_network.node[21].content_store 	decision_no[21] 	8574
scalar tree_4_3_u09_r18_network.node[21].content_store 	decision_ratio[21] 	0.097378671439099
scalar tree_4_3_u09_r18_network.node[22].core_layer 	interests[22] 	13346
scalar tree_4_3_u09_r18_network.node[22].core_layer 	data[22] 	9623
scalar tree_4_3_u09_r18_network.node[22].content_store 	p_hit[22] 	0.27895998801139
scalar tree_4_3_u09_r18_network.node[22].content_store 	hits[22] 	3723
scalar tree_4_3_u09_r18_network.node[22].content_store 	misses[22] 	9623
scalar tree_4_3_u09_r18_network.node[22].content_store 	decision_yes[22] 	977
scalar tree_4_3_u09_r18_network.node[22].content_store 	decision_no[22] 	8646
scalar tree_4_3_u09_r18_network.node[22].content_store 	decision_ratio[22] 	0.1015275901486
scalar tree_4_3_u09_r18_network.node[23].core_layer 	interests[23] 	14251
scalar tree_4_3_u09_r18_network.node[23].core_layer 	data[23] 	9804
scalar tree_4_3_u09_r18_network.node[23].content_store 	p_hit[23] 	0.31204827731387
scalar tree_4_3_u09_r18_network.node[23].content_store 	hits[23] 	4447
scalar tree_4_3_u09_r18_network.node[23].content_store 	misses[23] 	9804
scalar tree_4_3_u09_r18_network.node[23].content_store 	decision_yes[23] 	996
scalar tree_4_3_u09_r18_network.node[23].content_store 	decision_no[23] 	8808
scalar tree_4_3_u09_r18_network.node[23].content_store 	decision_ratio[23] 	0.1015911872705
scalar tree_4_3_u09_r18_network.node[24].core_layer 	interests[24] 	13836
scalar tree_4_3_u09_r18_network.node[24].core_layer 	data[24] 	9608
scalar tree_4_3_u09_r18_network.node[24].content_store 	p_hit[24] 	0.30557964729691
scalar tree_4_3_u09_r18_network.node[24].content_store 	hits[24] 	4228
scalar tree_4_3_u09_r18_network.node[24].content_store 	misses[24] 	9608
scalar tree_4_3_u09_r18_network.node[24].content_store 	decision_yes[24] 	944
scalar tree_4_3_u09_r18_network.node[24].content_store 	decision_no[24] 	8664
scalar tree_4_3_u09_r18_network.node[24].content_store 	decision_ratio[24] 	0.098251457119067
scalar tree_4_3_u09_r18_network.node[25].core_layer 	interests[25] 	13877
scalar tree_4_3_u09_r18_network.node[25].core_layer 	data[25] 	9579
scalar tree_4_3_u09_r18_network.node[25].content_store 	p_hit[25] 	0.30972112127982
scalar tree_4_3_u09_r18_network.node[25].content_store 	hits[25] 	4298
scalar tree_4_3_u09_r18_network.node[25].content_store 	misses[25] 	9579
scalar tree_4_3_u09_r18_network.node[25].content_store 	decision_yes[25] 	977
scalar tree_4_3_u09_r18_network.node[25].content_store 	decision_no[25] 	8602
scalar tree_4_3_u09_r18_network.node[25].content_store 	decision_ratio[25] 	0.10199394508821
scalar tree_4_3_u09_r18_network.node[26].core_layer 	interests[26] 	12952
scalar tree_4_3_u09_r18_network.node[26].core_layer 	data[26] 	9622
scalar tree_4_3_u09_r18_network.node[26].content_store 	p_hit[26] 	0.25710315009265
scalar tree_4_3_u09_r18_network.node[26].content_store 	hits[26] 	3330
scalar tree_4_3_u09_r18_network.node[26].content_store 	misses[26] 	9622
scalar tree_4_3_u09_r18_network.node[26].content_store 	decision_yes[26] 	940
scalar tree_4_3_u09_r18_network.node[26].content_store 	decision_no[26] 	8682
scalar tree_4_3_u09_r18_network.node[26].content_store 	decision_ratio[26] 	0.097692787362295
scalar tree_4_3_u09_r18_network.node[27].core_layer 	interests[27] 	13543
scalar tree_4_3_u09_r18_network.node[27].core_layer 	data[27] 	9472
scalar tree_4_3_u09_r18_network.node[27].content_store 	p_hit[27] 	0.3005980949568
scalar tree_4_3_u09_r18_network.node[27].content_store 	hits[27] 	4071
scalar tree_4_3_u09_r18_network.node[27].content_store 	misses[27] 	9472
scalar tree_4_3_u09_r18_network.node[27].content_store 	decision_yes[27] 	928
scalar tree_4_3_u09_r18_network.node[27].content_store 	decision_no[27] 	8544
scalar tree_4_3_u09_r18_network.node[27].content_store 	decision_ratio[27] 	0.097972972972973
scalar tree_4_3_u09_r18_network.node[28].core_layer 	interests[28] 	13906
scalar tree_4_3_u09_r18_network.node[28].core_layer 	data[28] 	9563
scalar tree_4_3_u09_r18_network.node[28].content_store 	p_hit[28] 	0.31223932115634
scalar tree_4_3_u09_r18_network.node[28].content_store 	hits[28] 	4342
scalar tree_4_3_u09_r18_network.node[28].content_store 	misses[28] 	9564
scalar tree_4_3_u09_r18_network.node[28].content_store 	decision_yes[28] 	922
scalar tree_4_3_u09_r18_network.node[28].content_store 	decision_no[28] 	8641
scalar tree_4_3_u09_r18_network.node[28].content_store 	decision_ratio[28] 	0.096413259437415
scalar tree_4_3_u09_r18_network.node[29].core_layer 	interests[29] 	13502
scalar tree_4_3_u09_r18_network.node[29].core_layer 	data[29] 	9516
scalar tree_4_3_u09_r18_network.node[29].content_store 	p_hit[29] 	0.29521552362613
scalar tree_4_3_u09_r18_network.node[29].content_store 	hits[29] 	3986
scalar tree_4_3_u09_r18_network.node[29].content_store 	misses[29] 	9516
scalar tree_4_3_u09_r18_network.node[29].content_store 	decision_yes[29] 	954
scalar tree_4_3_u09_r18_network.node[29].content_store 	decision_no[29] 	8562
scalar tree_4_3_u09_r18_network.node[29].content_store 	decision_ratio[29] 	0.10025220680958
scalar tree_4_3_u09_r18_network.node[30].core_layer 	interests[30] 	12832
scalar tree_4_3_u09_r18_network.node[30].core_layer 	data[30] 	9527
scalar tree_4_3_u09_r18_network.node[30].content_store 	p_hit[30] 	0.25755922693267
scalar tree_4_3_u09_r18_network.node[30].content_store 	hits[30] 	3305
scalar tree_4_3_u09_r18_network.node[30].content_store 	misses[30] 	9527
scalar tree_4_3_u09_r18_network.node[30].content_store 	decision_yes[30] 	933
scalar tree_4_3_u09_r18_network.node[30].content_store 	decision_no[30] 	8594
scalar tree_4_3_u09_r18_network.node[30].content_store 	decision_ratio[30] 	0.09793219271544
scalar tree_4_3_u09_r18_network.node[31].core_layer 	interests[31] 	13157
scalar tree_4_3_u09_r18_network.node[31].core_layer 	data[31] 	9607
scalar tree_4_3_u09_r18_network.node[31].content_store 	p_hit[31] 	0.26981834764764
scalar tree_4_3_u09_r18_network.node[31].content_store 	hits[31] 	3550
scalar tree_4_3_u09_r18_network.node[31].content_store 	misses[31] 	9607
scalar tree_4_3_u09_r18_network.node[31].content_store 	decision_yes[31] 	983
scalar tree_4_3_u09_r18_network.node[31].content_store 	decision_no[31] 	8624
scalar tree_4_3_u09_r18_network.node[31].content_store 	decision_ratio[31] 	0.10232122410742
scalar tree_4_3_u09_r18_network.node[32].core_layer 	interests[32] 	14016
scalar tree_4_3_u09_r18_network.node[32].core_layer 	data[32] 	9655
scalar tree_4_3_u09_r18_network.node[32].content_store 	p_hit[32] 	0.31107305936073
scalar tree_4_3_u09_r18_network.node[32].content_store 	hits[32] 	4360
scalar tree_4_3_u09_r18_network.node[32].content_store 	misses[32] 	9656
scalar tree_4_3_u09_r18_network.node[32].content_store 	decision_yes[32] 	976
scalar tree_4_3_u09_r18_network.node[32].content_store 	decision_no[32] 	8679
scalar tree_4_3_u09_r18_network.node[32].content_store 	decision_ratio[32] 	0.10108751941999
scalar tree_4_3_u09_r18_network.node[33].core_layer 	interests[33] 	13953
scalar tree_4_3_u09_r18_network.node[33].core_layer 	data[33] 	9368
scalar tree_4_3_u09_r18_network.node[33].content_store 	p_hit[33] 	0.32860316777754
scalar tree_4_3_u09_r18_network.node[33].content_store 	hits[33] 	4585
scalar tree_4_3_u09_r18_network.node[33].content_store 	misses[33] 	9368
scalar tree_4_3_u09_r18_network.node[33].content_store 	decision_yes[33] 	940
scalar tree_4_3_u09_r18_network.node[33].content_store 	decision_no[33] 	8428
scalar tree_4_3_u09_r18_network.node[33].content_store 	decision_ratio[33] 	0.10034158838599
scalar tree_4_3_u09_r18_network.node[34].core_layer 	interests[34] 	14232
scalar tree_4_3_u09_r18_network.node[34].core_layer 	data[34] 	9588
scalar tree_4_3_u09_r18_network.node[34].content_store 	p_hit[34] 	0.32616638560989
scalar tree_4_3_u09_r18_network.node[34].content_store 	hits[34] 	4642
scalar tree_4_3_u09_r18_network.node[34].content_store 	misses[34] 	9590
scalar tree_4_3_u09_r18_network.node[34].content_store 	decision_yes[34] 	913
scalar tree_4_3_u09_r18_network.node[34].content_store 	decision_no[34] 	8675
scalar tree_4_3_u09_r18_network.node[34].content_store 	decision_ratio[34] 	0.095223195661243
scalar tree_4_3_u09_r18_network.node[35].core_layer 	interests[35] 	13130
scalar tree_4_3_u09_r18_network.node[35].core_layer 	data[35] 	9703
scalar tree_4_3_u09_r18_network.node[35].content_store 	p_hit[35] 	0.26100533130236
scalar tree_4_3_u09_r18_network.node[35].content_store 	hits[35] 	3427
scalar tree_4_3_u09_r18_network.node[35].content_store 	misses[35] 	9703
scalar tree_4_3_u09_r18_network.node[35].content_store 	decision_yes[35] 	998
scalar tree_4_3_u09_r18_network.node[35].content_store 	decision_no[35] 	8705
scalar tree_4_3_u09_r18_network.node[35].content_store 	decision_ratio[35] 	0.10285478717922
scalar tree_4_3_u09_r18_network.node[36].core_layer 	interests[36] 	14096
scalar tree_4_3_u09_r18_network.node[36].core_layer 	data[36] 	9524
scalar tree_4_3_u09_r18_network.node[36].content_store 	p_hit[36] 	0.32420544835414
scalar tree_4_3_u09_r18_network.node[36].content_store 	hits[36] 	4570
scalar tree_4_3_u09_r18_network.node[36].content_store 	misses[36] 	9526
scalar tree_4_3_u09_r18_network.node[36].content_store 	decision_yes[36] 	901
scalar tree_4_3_u09_r18_network.node[36].content_store 	decision_no[36] 	8623
scalar tree_4_3_u09_r18_network.node[36].content_store 	decision_ratio[36] 	0.094603107937841
scalar tree_4_3_u09_r18_network.node[37].core_layer 	interests[37] 	14042
scalar tree_4_3_u09_r18_network.node[37].core_layer 	data[37] 	9546
scalar tree_4_3_u09_r18_network.node[37].content_store 	p_hit[37] 	0.32018231021222
scalar tree_4_3_u09_r18_network.node[37].content_store 	hits[37] 	4496
scalar tree_4_3_u09_r18_network.node[37].content_store 	misses[37] 	9546
scalar tree_4_3_u09_r18_network.node[37].content_store 	decision_yes[37] 	939
scalar tree_4_3_u09_r18_network.node[37].content_store 	decision_no[37] 	8607
scalar tree_4_3_u09_r18_network.node[37].content_store 	decision_ratio[37] 	0.098365807668133
scalar tree_4_3_u09_r18_network.node[38].core_layer 	interests[38] 	12844
scalar tree_4_3_u09_r18_network.node[38].core_layer 	data[38] 	9557
scalar tree_4_3_u09_r18_network.node[38].content_store 	p_hit[38] 	0.25591715976331
scalar tree_4_3_u09_r18_network.node[38].content_store 	hits[38] 	3287
scalar tree_4_3_u09_r18_network.node[38].content_store 	misses[38] 	9557
scalar tree_4_3_u09_r18_network.node[38].content_store 	decision_yes[38] 	917
scalar tree_4_3_u09_r18_network.node[38].content_store 	decision_no[38] 	8640
scalar tree_4_3_u09_r18_network.node[38].content_store 	decision_ratio[38] 	0.095950612116773
scalar tree_4_3_u09_r18_network.node[39].core_layer 	interests[39] 	12593
scalar tree_4_3_u09_r18_network.node[39].core_layer 	data[39] 	9499
scalar tree_4_3_u09_r18_network.node[39].content_store 	p_hit[39] 	0.24569205113952
scalar tree_4_3_u09_r18_network.node[39].content_store 	hits[39] 	3094
scalar tree_4_3_u09_r18_network.node[39].content_store 	misses[39] 	9499
scalar tree_4_3_u09_r18_network.node[39].content_store 	decision_yes[39] 	937
scalar tree_4_3_u09_r18_network.node[39].content_store 	decision_no[39] 	8562
scalar tree_4_3_u09_r18_network.node[39].content_store 	decision_ratio[39] 	0.098641962311822
scalar tree_4_3_u09_r18_network.client[13] 	hdistance[13] 	2.8867582914986
scalar tree_4_3_u09_r18_network.client[13] 	downloads[13] 	12151
scalar tree_4_3_u09_r18_network.client[13] 	avg_time[13] 	0.004627530804
scalar tree_4_3_u09_r18_network.client[14] 	hdistance[14] 	2.7503785966683
scalar tree_4_3_u09_r18_network.client[14] 	downloads[14] 	11886
scalar tree_4_3_u09_r18_network.client[14] 	avg_time[14] 	0.00441005932
scalar tree_4_3_u09_r18_network.client[15] 	hdistance[15] 	2.7467042533787
scalar tree_4_3_u09_r18_network.client[15] 	downloads[15] 	12061
scalar tree_4_3_u09_r18_network.client[15] 	avg_time[15] 	0.004389020311
scalar tree_4_3_u09_r18_network.client[16] 	hdistance[16] 	2.773704912545
scalar tree_4_3_u09_r18_network.client[16] 	downloads[16] 	11949
scalar tree_4_3_u09_r18_network.client[16] 	avg_time[16] 	0.00443997029
scalar tree_4_3_u09_r18_network.client[17] 	hdistance[17] 	2.8294841537424
scalar tree_4_3_u09_r18_network.client[17] 	downloads[17] 	11864
scalar tree_4_3_u09_r18_network.client[17] 	avg_time[17] 	0.004567427912
scalar tree_4_3_u09_r18_network.client[18] 	hdistance[18] 	2.7088205813565
scalar tree_4_3_u09_r18_network.client[18] 	downloads[18] 	11972
scalar tree_4_3_u09_r18_network.client[18] 	avg_time[18] 	0.00434847675
scalar tree_4_3_u09_r18_network.client[19] 	hdistance[19] 	2.752063331649
scalar tree_4_3_u09_r18_network.client[19] 	downloads[19] 	11874
scalar tree_4_3_u09_r18_network.client[19] 	avg_time[19] 	0.004396325166
scalar tree_4_3_u09_r18_network.client[20] 	hdistance[20] 	2.7301893114425
scalar tree_4_3_u09_r18_network.client[20] 	downloads[20] 	11938
scalar tree_4_3_u09_r18_network.client[20] 	avg_time[20] 	0.004375875108
scalar tree_4_3_u09_r18_network.client[21] 	hdistance[21] 	2.8148830972932
scalar tree_4_3_u09_r18_network.client[21] 	downloads[21] 	11933
scalar tree_4_3_u09_r18_network.client[21] 	avg_time[21] 	0.004512770318
scalar tree_4_3_u09_r18_network.client[22] 	hdistance[22] 	2.8591901349775
scalar tree_4_3_u09_r18_network.client[22] 	downloads[22] 	12002
scalar tree_4_3_u09_r18_network.client[22] 	avg_time[22] 	0.004608836755
scalar tree_4_3_u09_r18_network.client[23] 	hdistance[23] 	2.773552642293
scalar tree_4_3_u09_r18_network.client[23] 	downloads[23] 	12281
scalar tree_4_3_u09_r18_network.client[23] 	avg_time[23] 	0.004443120463
scalar tree_4_3_u09_r18_network.client[24] 	hdistance[24] 	2.7653035729158
scalar tree_4_3_u09_r18_network.client[24] 	downloads[24] 	12007
scalar tree_4_3_u09_r18_network.client[24] 	avg_time[24] 	0.004415254736
scalar tree_4_3_u09_r18_network.client[25] 	hdistance[25] 	2.7739617280856
scalar tree_4_3_u09_r18_network.client[25] 	downloads[25] 	11967
scalar tree_4_3_u09_r18_network.client[25] 	avg_time[25] 	0.004453413202
scalar tree_4_3_u09_r18_network.client[26] 	hdistance[26] 	2.8830843695235
scalar tree_4_3_u09_r18_network.client[26] 	downloads[26] 	11983
scalar tree_4_3_u09_r18_network.client[26] 	avg_time[26] 	0.004609694104
scalar tree_4_3_u09_r18_network.client[27] 	hdistance[27] 	2.7585175336546
scalar tree_4_3_u09_r18_network.client[27] 	downloads[27] 	12034
scalar tree_4_3_u09_r18_network.client[27] 	avg_time[27] 	0.004363633388
scalar tree_4_3_u09_r18_network.client[28] 	hdistance[28] 	2.7571083131827
scalar tree_4_3_u09_r18_network.client[28] 	downloads[28] 	11993
scalar tree_4_3_u09_r18_network.client[28] 	avg_time[28] 	0.004407898226
scalar tree_4_3_u09_r18_network.client[29] 	hdistance[29] 	2.7697620236312
scalar tree_4_3_u09_r18_network.client[29] 	downloads[29] 	12018
scalar tree_4_3_u09_r18_network.client[29] 	avg_time[29] 	0.004374768168
scalar tree_4_3_u09_r18_network.client[30] 	hdistance[30] 	2.8255456884389
scalar tree_4_3_u09_r18_network.client[30] 	downloads[30] 	12049
scalar tree_4_3_u09_r18_network.client[30] 	avg_time[30] 	0.004503441253
scalar tree_4_3_u09_r18_network.client[31] 	hdistance[31] 	2.8526897938663
scalar tree_4_3_u09_r18_network.client[31] 	downloads[31] 	11934
scalar tree_4_3_u09_r18_network.client[31] 	avg_time[31] 	0.004594433092
scalar tree_4_3_u09_r18_network.client[32] 	hdistance[32] 	2.7627301376679
scalar tree_4_3_u09_r18_network.client[32] 	downloads[32] 	12058
scalar tree_4_3_u09_r18_network.client[32] 	avg_time[32] 	0.004444205232
scalar tree_4_3_u09_r18_network.client[33] 	hdistance[33] 	2.7098755186722
scalar tree_4_3_u09_r18_network.client[33] 	downloads[33] 	12050
scalar tree_4_3_u09_r18_network.client[33] 	avg_time[33] 	0.004326150254
scalar tree_4_3_u09_r18_network.client[34] 	hdistance[34] 	2.7568215644121
scalar tree_4_3_u09_r18_network.client[34] 	downloads[34] 	12094
scalar tree_4_3_u09_r18_network.client[34] 	avg_time[34] 	0.004428681106
scalar tree_4_3_u09_r18_network.client[35] 	hdistance[35] 	2.8642744413988
scalar tree_4_3_u09_r18_network.client[35] 	downloads[35] 	12039
scalar tree_4_3_u09_r18_network.client[35] 	avg_time[35] 	0.004630281914
scalar tree_4_3_u09_r18_network.client[36] 	hdistance[36] 	2.7463743957326
scalar tree_4_3_u09_r18_network.client[36] 	downloads[36] 	11998
scalar tree_4_3_u09_r18_network.client[36] 	avg_time[36] 	0.004391073934
scalar tree_4_3_u09_r18_network.client[37] 	hdistance[37] 	2.7524054412741
scalar tree_4_3_u09_r18_network.client[37] 	downloads[37] 	12056
scalar tree_4_3_u09_r18_network.client[37] 	avg_time[37] 	0.004397490951
scalar tree_4_3_u09_r18_network.client[38] 	hdistance[38] 	2.8280355216201
scalar tree_4_3_u09_r18_network.client[38] 	downloads[38] 	12049
scalar tree_4_3_u09_r18_network.client[38] 	avg_time[38] 	0.004493813907
scalar tree_4_3_u09_r18_network.client[39] 	hdistance[39] 	2.8660315319113
scalar tree_4_3_u09_r18_network.client[39] 	downloads[39] 	11861
scalar tree_4_3_u09_r18_network.client[39] 	avg_time[39] 	0.004531660911
