version 2
run General-199-20160819-10:11:10-13837
attr a 0.9
attr cd fix0.1
attr configname General
attr cr lru
attr datetime 20160819-10:11:10
attr experiment General
attr fsize 1
attr inifile hw5115/scenario_A/NRR-FIX0.1.ini
attr iterationvars "$name=tree_4_3, $un=09, $rep=20, $cd=fix0.1, $cr=lru, $fsize=1, $a=0.9, $sl=nrr, $ttl=1000, $variance=0.05"
attr iterationvars2 "$name=tree_4_3, $un=09, $rep=20, $cd=fix0.1, $cr=lru, $fsize=1, $a=0.9, $sl=nrr, $ttl=1000, $variance=0.05, $repetition=0"
attr measurement "$name=tree_4_3, $un=09, $rep=20, $cd=fix0.1, $cr=lru, $fsize=1, $a=0.9, $sl=nrr, $ttl=1000, $variance=0.05"
attr name tree_4_3
attr network networks.${name}_u${un}_r${rep}_network
attr processid 13837
attr rep 20
attr repetition 0
attr replication #0
attr resultdir results
attr runnumber 199
attr seedset 20
attr sl nrr
attr ttl 1000
attr un 09
attr variance 0.05

scalar . 	a 	0.9
scalar . 	fsize 	1
scalar . 	rep 	20
scalar . 	ttl 	1000
scalar . 	un 	09
scalar . 	variance 	0.05
scalar tree_4_3_u09_r20_network.content_distribution 	repo-0 	0
scalar tree_4_3_u09_r20_network.content_distribution 	client-0 	13
scalar tree_4_3_u09_r20_network.content_distribution 	client-1 	14
scalar tree_4_3_u09_r20_network.content_distribution 	client-2 	15
scalar tree_4_3_u09_r20_network.content_distribution 	client-3 	16
scalar tree_4_3_u09_r20_network.content_distribution 	client-4 	17
scalar tree_4_3_u09_r20_network.content_distribution 	client-5 	18
scalar tree_4_3_u09_r20_network.content_distribution 	client-6 	19
scalar tree_4_3_u09_r20_network.content_distribution 	client-7 	20
scalar tree_4_3_u09_r20_network.content_distribution 	client-8 	21
scalar tree_4_3_u09_r20_network.content_distribution 	client-9 	22
scalar tree_4_3_u09_r20_network.content_distribution 	client-10 	23
scalar tree_4_3_u09_r20_network.content_distribution 	client-11 	24
scalar tree_4_3_u09_r20_network.content_distribution 	client-12 	25
scalar tree_4_3_u09_r20_network.content_distribution 	client-13 	26
scalar tree_4_3_u09_r20_network.content_distribution 	client-14 	27
scalar tree_4_3_u09_r20_network.content_distribution 	client-15 	28
scalar tree_4_3_u09_r20_network.content_distribution 	client-16 	29
scalar tree_4_3_u09_r20_network.content_distribution 	client-17 	30
scalar tree_4_3_u09_r20_network.content_distribution 	client-18 	31
scalar tree_4_3_u09_r20_network.content_distribution 	client-19 	32
scalar tree_4_3_u09_r20_network.content_distribution 	client-20 	33
scalar tree_4_3_u09_r20_network.content_distribution 	client-21 	34
scalar tree_4_3_u09_r20_network.content_distribution 	client-22 	35
scalar tree_4_3_u09_r20_network.content_distribution 	client-23 	36
scalar tree_4_3_u09_r20_network.content_distribution 	client-24 	37
scalar tree_4_3_u09_r20_network.content_distribution 	client-25 	38
scalar tree_4_3_u09_r20_network.content_distribution 	client-26 	39
scalar tree_4_3_u09_r20_network.content_distribution 	repo-0_card 	100000
scalar tree_4_3_u09_r20_network.content_distribution 	repo-0_price 	0
scalar tree_4_3_u09_r20_network.statistics 	stabilization_time 	701.1
scalar tree_4_3_u09_r20_network.statistics 	p_hit 	0.2343111534908
scalar tree_4_3_u09_r20_network.statistics 	interests 	26228.35
scalar tree_4_3_u09_r20_network.statistics 	data 	18112.525
scalar tree_4_3_u09_r20_network.statistics 	hdistance 	2.7893383192633
scalar tree_4_3_u09_r20_network.statistics 	avg_time 	0.004463642005
scalar tree_4_3_u09_r20_network.statistics 	downloads 	324631
scalar tree_4_3_u09_r20_network.statistics 	total_cost 	0
scalar tree_4_3_u09_r20_network.statistics 	total_replicas 	100000
scalar tree_4_3_u09_r20_network.statistics 	inner_hit 	0.44253321463446
scalar tree_4_3_u09_r20_network.node[0].core_layer 	interests[0] 	181852
scalar tree_4_3_u09_r20_network.node[0].core_layer 	repo_load[0] 	180971
scalar tree_4_3_u09_r20_network.node[0].core_layer 	data[0] 	0
scalar tree_4_3_u09_r20_network.node[0].core_layer 	repo_int[0] 	180971
scalar tree_4_3_u09_r20_network.node[0].content_store 	p_hit[0] 	0.0048445989046037
scalar tree_4_3_u09_r20_network.node[0].content_store 	hits[0] 	881
scalar tree_4_3_u09_r20_network.node[0].content_store 	misses[0] 	180971
scalar tree_4_3_u09_r20_network.node[0].content_store 	decision_yes[0] 	17931
scalar tree_4_3_u09_r20_network.node[0].content_store 	decision_no[0] 	163040
scalar tree_4_3_u09_r20_network.node[0].content_store 	decision_ratio[0] 	0.099082173386896
scalar tree_4_3_u09_r20_network.node[1].core_layer 	interests[1] 	142187
scalar tree_4_3_u09_r20_network.node[1].core_layer 	data[1] 	141108
scalar tree_4_3_u09_r20_network.node[1].content_store 	p_hit[1] 	0.0075815651219872
scalar tree_4_3_u09_r20_network.node[1].content_store 	hits[1] 	1078
scalar tree_4_3_u09_r20_network.node[1].content_store 	misses[1] 	141109
scalar tree_4_3_u09_r20_network.node[1].content_store 	decision_yes[1] 	14212
scalar tree_4_3_u09_r20_network.node[1].content_store 	decision_no[1] 	126895
scalar tree_4_3_u09_r20_network.node[1].content_store 	decision_ratio[1] 	0.1007178949308
scalar tree_4_3_u09_r20_network.node[2].core_layer 	interests[2] 	53715
scalar tree_4_3_u09_r20_network.node[2].core_layer 	data[2] 	52914
scalar tree_4_3_u09_r20_network.node[2].content_store 	p_hit[2] 	0.014912035744206
scalar tree_4_3_u09_r20_network.node[2].content_store 	hits[2] 	801
scalar tree_4_3_u09_r20_network.node[2].content_store 	misses[2] 	52914
scalar tree_4_3_u09_r20_network.node[2].content_store 	decision_yes[2] 	5304
scalar tree_4_3_u09_r20_network.node[2].content_store 	decision_no[2] 	47610
scalar tree_4_3_u09_r20_network.node[2].content_store 	decision_ratio[2] 	0.10023812223608
scalar tree_4_3_u09_r20_network.node[3].core_layer 	interests[3] 	19252
scalar tree_4_3_u09_r20_network.node[3].core_layer 	data[3] 	14929
scalar tree_4_3_u09_r20_network.node[3].content_store 	p_hit[3] 	0.22454809889882
scalar tree_4_3_u09_r20_network.node[3].content_store 	hits[3] 	4323
scalar tree_4_3_u09_r20_network.node[3].content_store 	misses[3] 	14929
scalar tree_4_3_u09_r20_network.node[3].content_store 	decision_yes[3] 	1466
scalar tree_4_3_u09_r20_network.node[3].content_store 	decision_no[3] 	13463
scalar tree_4_3_u09_r20_network.node[3].content_store 	decision_ratio[3] 	0.098198137852502
scalar tree_4_3_u09_r20_network.node[4].core_layer 	interests[4] 	45661
scalar tree_4_3_u09_r20_network.node[4].core_layer 	data[4] 	43660
scalar tree_4_3_u09_r20_network.node[4].content_store 	p_hit[4] 	0.043779155077637
scalar tree_4_3_u09_r20_network.node[4].content_store 	hits[4] 	1999
scalar tree_4_3_u09_r20_network.node[4].content_store 	misses[4] 	43662
scalar tree_4_3_u09_r20_network.node[4].content_store 	decision_yes[4] 	4446
scalar tree_4_3_u09_r20_network.node[4].content_store 	decision_no[4] 	39213
scalar tree_4_3_u09_r20_network.node[4].content_store 	decision_ratio[4] 	0.10183467326324
scalar tree_4_3_u09_r20_network.node[5].core_layer 	interests[5] 	29306
scalar tree_4_3_u09_r20_network.node[5].core_layer 	data[5] 	26790
scalar tree_4_3_u09_r20_network.node[5].content_store 	p_hit[5] 	0.085818603698901
scalar tree_4_3_u09_r20_network.node[5].content_store 	hits[5] 	2515
scalar tree_4_3_u09_r20_network.node[5].content_store 	misses[5] 	26791
scalar tree_4_3_u09_r20_network.node[5].content_store 	decision_yes[5] 	2702
scalar tree_4_3_u09_r20_network.node[5].content_store 	decision_no[5] 	24088
scalar tree_4_3_u09_r20_network.node[5].content_store 	decision_ratio[5] 	0.10085852930198
scalar tree_4_3_u09_r20_network.node[6].core_layer 	interests[6] 	20096
scalar tree_4_3_u09_r20_network.node[6].core_layer 	data[6] 	14794
scalar tree_4_3_u09_r20_network.node[6].content_store 	p_hit[6] 	0.26383359872611
scalar tree_4_3_u09_r20_network.node[6].content_store 	hits[6] 	5302
scalar tree_4_3_u09_r20_network.node[6].content_store 	misses[6] 	14794
scalar tree_4_3_u09_r20_network.node[6].content_store 	decision_yes[6] 	1523
scalar tree_4_3_u09_r20_network.node[6].content_store 	decision_no[6] 	13271
scalar tree_4_3_u09_r20_network.node[6].content_store 	decision_ratio[6] 	0.10294714073273
scalar tree_4_3_u09_r20_network.node[7].core_layer 	interests[7] 	48557
scalar tree_4_3_u09_r20_network.node[7].core_layer 	data[7] 	45884
scalar tree_4_3_u09_r20_network.node[7].content_store 	p_hit[7] 	0.055028111291884
scalar tree_4_3_u09_r20_network.node[7].content_store 	hits[7] 	2672
scalar tree_4_3_u09_r20_network.node[7].content_store 	misses[7] 	45885
scalar tree_4_3_u09_r20_network.node[7].content_store 	decision_yes[7] 	4603
scalar tree_4_3_u09_r20_network.node[7].content_store 	decision_no[7] 	41281
scalar tree_4_3_u09_r20_network.node[7].content_store 	decision_ratio[7] 	0.10031819370587
scalar tree_4_3_u09_r20_network.node[8].core_layer 	interests[8] 	27888
scalar tree_4_3_u09_r20_network.node[8].core_layer 	data[8] 	25837
scalar tree_4_3_u09_r20_network.node[8].content_store 	p_hit[8] 	0.073544176706827
scalar tree_4_3_u09_r20_network.node[8].content_store 	hits[8] 	2051
scalar tree_4_3_u09_r20_network.node[8].content_store 	misses[8] 	25837
scalar tree_4_3_u09_r20_network.node[8].content_store 	decision_yes[8] 	2544
scalar tree_4_3_u09_r20_network.node[8].content_store 	decision_no[8] 	23292
scalar tree_4_3_u09_r20_network.node[8].content_store 	decision_ratio[8] 	0.098467254993033
scalar tree_4_3_u09_r20_network.node[9].core_layer 	interests[9] 	18651
scalar tree_4_3_u09_r20_network.node[9].core_layer 	data[9] 	13910
scalar tree_4_3_u09_r20_network.node[9].content_store 	p_hit[9] 	0.25419548549676
scalar tree_4_3_u09_r20_network.node[9].content_store 	hits[9] 	4741
scalar tree_4_3_u09_r20_network.node[9].content_store 	misses[9] 	13910
scalar tree_4_3_u09_r20_network.node[9].content_store 	decision_yes[9] 	1300
scalar tree_4_3_u09_r20_network.node[9].content_store 	decision_no[9] 	12610
scalar tree_4_3_u09_r20_network.node[9].content_store 	decision_ratio[9] 	0.093457943925234
scalar tree_4_3_u09_r20_network.node[10].core_layer 	interests[10] 	49467
scalar tree_4_3_u09_r20_network.node[10].core_layer 	data[10] 	46690
scalar tree_4_3_u09_r20_network.node[10].content_store 	p_hit[10] 	0.056098004730426
scalar tree_4_3_u09_r20_network.node[10].content_store 	hits[10] 	2775
scalar tree_4_3_u09_r20_network.node[10].content_store 	misses[10] 	46692
scalar tree_4_3_u09_r20_network.node[10].content_store 	decision_yes[10] 	4665
scalar tree_4_3_u09_r20_network.node[10].content_store 	decision_no[10] 	42025
scalar tree_4_3_u09_r20_network.node[10].content_store 	decision_ratio[10] 	0.099914328550011
scalar tree_4_3_u09_r20_network.node[11].core_layer 	interests[11] 	30853
scalar tree_4_3_u09_r20_network.node[11].core_layer 	data[11] 	28476
scalar tree_4_3_u09_r20_network.node[11].content_store 	p_hit[11] 	0.077042751110103
scalar tree_4_3_u09_r20_network.node[11].content_store 	hits[11] 	2377
scalar tree_4_3_u09_r20_network.node[11].content_store 	misses[11] 	28476
scalar tree_4_3_u09_r20_network.node[11].content_store 	decision_yes[11] 	2865
scalar tree_4_3_u09_r20_network.node[11].content_store 	decision_no[11] 	25611
scalar tree_4_3_u09_r20_network.node[11].content_store 	decision_ratio[11] 	0.10061104087653
scalar tree_4_3_u09_r20_network.node[12].core_layer 	interests[12] 	15064
scalar tree_4_3_u09_r20_network.node[12].core_layer 	data[12] 	11065
scalar tree_4_3_u09_r20_network.node[12].content_store 	p_hit[12] 	0.2654673393521
scalar tree_4_3_u09_r20_network.node[12].content_store 	hits[12] 	3999
scalar tree_4_3_u09_r20_network.node[12].content_store 	misses[12] 	11065
scalar tree_4_3_u09_r20_network.node[12].content_store 	decision_yes[12] 	1088
scalar tree_4_3_u09_r20_network.node[12].content_store 	decision_no[12] 	9977
scalar tree_4_3_u09_r20_network.node[12].content_store 	decision_ratio[12] 	0.098328061455038
scalar tree_4_3_u09_r20_network.node[13].core_layer 	interests[13] 	12968
scalar tree_4_3_u09_r20_network.node[13].core_layer 	data[13] 	9492
scalar tree_4_3_u09_r20_network.node[13].content_store 	p_hit[13] 	0.26804441702653
scalar tree_4_3_u09_r20_network.node[13].content_store 	hits[13] 	3476
scalar tree_4_3_u09_r20_network.node[13].content_store 	misses[13] 	9492
scalar tree_4_3_u09_r20_network.node[13].content_store 	decision_yes[13] 	966
scalar tree_4_3_u09_r20_network.node[13].content_store 	decision_no[13] 	8526
scalar tree_4_3_u09_r20_network.node[13].content_store 	decision_ratio[13] 	0.10176991150442
scalar tree_4_3_u09_r20_network.node[14].core_layer 	interests[14] 	13596
scalar tree_4_3_u09_r20_network.node[14].core_layer 	data[14] 	9451
scalar tree_4_3_u09_r20_network.node[14].content_store 	p_hit[14] 	0.30494263018535
scalar tree_4_3_u09_r20_network.node[14].content_store 	hits[14] 	4146
scalar tree_4_3_u09_r20_network.node[14].content_store 	misses[14] 	9450
scalar tree_4_3_u09_r20_network.node[14].content_store 	decision_yes[14] 	1005
scalar tree_4_3_u09_r20_network.node[14].content_store 	decision_no[14] 	8446
scalar tree_4_3_u09_r20_network.node[14].content_store 	decision_ratio[14] 	0.1063379536557
scalar tree_4_3_u09_r20_network.node[15].core_layer 	interests[15] 	13947
scalar tree_4_3_u09_r20_network.node[15].core_layer 	data[15] 	9750
scalar tree_4_3_u09_r20_network.node[15].content_store 	p_hit[15] 	0.30092493009249
scalar tree_4_3_u09_r20_network.node[15].content_store 	hits[15] 	4197
scalar tree_4_3_u09_r20_network.node[15].content_store 	misses[15] 	9750
scalar tree_4_3_u09_r20_network.node[15].content_store 	decision_yes[15] 	995
scalar tree_4_3_u09_r20_network.node[15].content_store 	decision_no[15] 	8755
scalar tree_4_3_u09_r20_network.node[15].content_store 	decision_ratio[15] 	0.10205128205128
scalar tree_4_3_u09_r20_network.node[16].core_layer 	interests[16] 	13630
scalar tree_4_3_u09_r20_network.node[16].core_layer 	data[16] 	9482
scalar tree_4_3_u09_r20_network.node[16].content_store 	p_hit[16] 	0.30425531914894
scalar tree_4_3_u09_r20_network.node[16].content_store 	hits[16] 	4147
scalar tree_4_3_u09_r20_network.node[16].content_store 	misses[16] 	9483
scalar tree_4_3_u09_r20_network.node[16].content_store 	decision_yes[16] 	982
scalar tree_4_3_u09_r20_network.node[16].content_store 	decision_no[16] 	8500
scalar tree_4_3_u09_r20_network.node[16].content_store 	decision_ratio[16] 	0.10356464880827
scalar tree_4_3_u09_r20_network.node[17].core_layer 	interests[17] 	12991
scalar tree_4_3_u09_r20_network.node[17].core_layer 	data[17] 	9579
scalar tree_4_3_u09_r20_network.node[17].content_store 	p_hit[17] 	0.26264336848587
scalar tree_4_3_u09_r20_network.node[17].content_store 	hits[17] 	3412
scalar tree_4_3_u09_r20_network.node[17].content_store 	misses[17] 	9579
scalar tree_4_3_u09_r20_network.node[17].content_store 	decision_yes[17] 	933
scalar tree_4_3_u09_r20_network.node[17].content_store 	decision_no[17] 	8646
scalar tree_4_3_u09_r20_network.node[17].content_store 	decision_ratio[17] 	0.097400563733166
scalar tree_4_3_u09_r20_network.node[18].core_layer 	interests[18] 	13863
scalar tree_4_3_u09_r20_network.node[18].core_layer 	data[18] 	9573
scalar tree_4_3_u09_r20_network.node[18].content_store 	p_hit[18] 	0.30945682752651
scalar tree_4_3_u09_r20_network.node[18].content_store 	hits[18] 	4290
scalar tree_4_3_u09_r20_network.node[18].content_store 	misses[18] 	9573
scalar tree_4_3_u09_r20_network.node[18].content_store 	decision_yes[18] 	959
scalar tree_4_3_u09_r20_network.node[18].content_store 	decision_no[18] 	8614
scalar tree_4_3_u09_r20_network.node[18].content_store 	decision_ratio[18] 	0.10017758278492
scalar tree_4_3_u09_r20_network.node[19].core_layer 	interests[19] 	13927
scalar tree_4_3_u09_r20_network.node[19].core_layer 	data[19] 	9660
scalar tree_4_3_u09_r20_network.node[19].content_store 	p_hit[19] 	0.30638328426797
scalar tree_4_3_u09_r20_network.node[19].content_store 	hits[19] 	4267
scalar tree_4_3_u09_r20_network.node[19].content_store 	misses[19] 	9660
scalar tree_4_3_u09_r20_network.node[19].content_store 	decision_yes[19] 	977
scalar tree_4_3_u09_r20_network.node[19].content_store 	decision_no[19] 	8683
scalar tree_4_3_u09_r20_network.node[19].content_store 	decision_ratio[19] 	0.10113871635611
scalar tree_4_3_u09_r20_network.node[20].core_layer 	interests[20] 	13914
scalar tree_4_3_u09_r20_network.node[20].core_layer 	data[20] 	9615
scalar tree_4_3_u09_r20_network.node[20].content_store 	p_hit[20] 	0.30896938335489
scalar tree_4_3_u09_r20_network.node[20].content_store 	hits[20] 	4299
scalar tree_4_3_u09_r20_network.node[20].content_store 	misses[20] 	9615
scalar tree_4_3_u09_r20_network.node[20].content_store 	decision_yes[20] 	931
scalar tree_4_3_u09_r20_network.node[20].content_store 	decision_no[20] 	8684
scalar tree_4_3_u09_r20_network.node[20].content_store 	decision_ratio[20] 	0.096827873114925
scalar tree_4_3_u09_r20_network.node[21].core_layer 	interests[21] 	13309
scalar tree_4_3_u09_r20_network.node[21].core_layer 	data[21] 	9664
scalar tree_4_3_u09_r20_network.node[21].content_store 	p_hit[21] 	0.27387482154933
scalar tree_4_3_u09_r20_network.node[21].content_store 	hits[21] 	3645
scalar tree_4_3_u09_r20_network.node[21].content_store 	misses[21] 	9664
scalar tree_4_3_u09_r20_network.node[21].content_store 	decision_yes[21] 	930
scalar tree_4_3_u09_r20_network.node[21].content_store 	decision_no[21] 	8734
scalar tree_4_3_u09_r20_network.node[21].content_store 	decision_ratio[21] 	0.096233443708609
scalar tree_4_3_u09_r20_network.node[22].core_layer 	interests[22] 	13296
scalar tree_4_3_u09_r20_network.node[22].core_layer 	data[22] 	9505
scalar tree_4_3_u09_r20_network.node[22].content_store 	p_hit[22] 	0.28512334536703
scalar tree_4_3_u09_r20_network.node[22].content_store 	hits[22] 	3791
scalar tree_4_3_u09_r20_network.node[22].content_store 	misses[22] 	9505
scalar tree_4_3_u09_r20_network.node[22].content_store 	decision_yes[22] 	962
scalar tree_4_3_u09_r20_network.node[22].content_store 	decision_no[22] 	8543
scalar tree_4_3_u09_r20_network.node[22].content_store 	decision_ratio[22] 	0.10120988953183
scalar tree_4_3_u09_r20_network.node[23].core_layer 	interests[23] 	13957
scalar tree_4_3_u09_r20_network.node[23].core_layer 	data[23] 	9646
scalar tree_4_3_u09_r20_network.node[23].content_store 	p_hit[23] 	0.30887726588808
scalar tree_4_3_u09_r20_network.node[23].content_store 	hits[23] 	4311
scalar tree_4_3_u09_r20_network.node[23].content_store 	misses[23] 	9646
scalar tree_4_3_u09_r20_network.node[23].content_store 	decision_yes[23] 	955
scalar tree_4_3_u09_r20_network.node[23].content_store 	decision_no[23] 	8691
scalar tree_4_3_u09_r20_network.node[23].content_store 	decision_ratio[23] 	0.09900476881609
scalar tree_4_3_u09_r20_network.node[24].core_layer 	interests[24] 	14157
scalar tree_4_3_u09_r20_network.node[24].core_layer 	data[24] 	9659
scalar tree_4_3_u09_r20_network.node[24].content_store 	p_hit[24] 	0.31772268135905
scalar tree_4_3_u09_r20_network.node[24].content_store 	hits[24] 	4498
scalar tree_4_3_u09_r20_network.node[24].content_store 	misses[24] 	9659
scalar tree_4_3_u09_r20_network.node[24].content_store 	decision_yes[24] 	991
scalar tree_4_3_u09_r20_network.node[24].content_store 	decision_no[24] 	8668
scalar tree_4_3_u09_r20_network.node[24].content_store 	decision_ratio[24] 	0.10259861269283
scalar tree_4_3_u09_r20_network.node[25].core_layer 	interests[25] 	13821
scalar tree_4_3_u09_r20_network.node[25].core_layer 	data[25] 	9511
scalar tree_4_3_u09_r20_network.node[25].content_store 	p_hit[25] 	0.31184429491354
scalar tree_4_3_u09_r20_network.node[25].content_store 	hits[25] 	4310
scalar tree_4_3_u09_r20_network.node[25].content_store 	misses[25] 	9511
scalar tree_4_3_u09_r20_network.node[25].content_store 	decision_yes[25] 	913
scalar tree_4_3_u09_r20_network.node[25].content_store 	decision_no[25] 	8598
scalar tree_4_3_u09_r20_network.node[25].content_store 	decision_ratio[25] 	0.095994112080749
scalar tree_4_3_u09_r20_network.node[26].core_layer 	interests[26] 	12837
scalar tree_4_3_u09_r20_network.node[26].core_layer 	data[26] 	9560
scalar tree_4_3_u09_r20_network.node[26].content_store 	p_hit[26] 	0.25527771286126
scalar tree_4_3_u09_r20_network.node[26].content_store 	hits[26] 	3277
scalar tree_4_3_u09_r20_network.node[26].content_store 	misses[26] 	9560
scalar tree_4_3_u09_r20_network.node[26].content_store 	decision_yes[26] 	971
scalar tree_4_3_u09_r20_network.node[26].content_store 	decision_no[26] 	8589
scalar tree_4_3_u09_r20_network.node[26].content_store 	decision_ratio[26] 	0.1015690376569
scalar tree_4_3_u09_r20_network.node[27].core_layer 	interests[27] 	13670
scalar tree_4_3_u09_r20_network.node[27].core_layer 	data[27] 	9450
scalar tree_4_3_u09_r20_network.node[27].content_store 	p_hit[27] 	0.30870519385516
scalar tree_4_3_u09_r20_network.node[27].content_store 	hits[27] 	4220
scalar tree_4_3_u09_r20_network.node[27].content_store 	misses[27] 	9450
scalar tree_4_3_u09_r20_network.node[27].content_store 	decision_yes[27] 	957
scalar tree_4_3_u09_r20_network.node[27].content_store 	decision_no[27] 	8493
scalar tree_4_3_u09_r20_network.node[27].content_store 	decision_ratio[27] 	0.10126984126984
scalar tree_4_3_u09_r20_network.node[28].core_layer 	interests[28] 	14167
scalar tree_4_3_u09_r20_network.node[28].core_layer 	data[28] 	9572
scalar tree_4_3_u09_r20_network.node[28].content_store 	p_hit[28] 	0.3242747229477
scalar tree_4_3_u09_r20_network.node[28].content_store 	hits[28] 	4594
scalar tree_4_3_u09_r20_network.node[28].content_store 	misses[28] 	9573
scalar tree_4_3_u09_r20_network.node[28].content_store 	decision_yes[28] 	959
scalar tree_4_3_u09_r20_network.node[28].content_store 	decision_no[28] 	8613
scalar tree_4_3_u09_r20_network.node[28].content_store 	decision_ratio[28] 	0.10018804847472
scalar tree_4_3_u09_r20_network.node[29].core_layer 	interests[29] 	13616
scalar tree_4_3_u09_r20_network.node[29].core_layer 	data[29] 	9404
scalar tree_4_3_u09_r20_network.node[29].content_store 	p_hit[29] 	0.30926850763807
scalar tree_4_3_u09_r20_network.node[29].content_store 	hits[29] 	4211
scalar tree_4_3_u09_r20_network.node[29].content_store 	misses[29] 	9405
scalar tree_4_3_u09_r20_network.node[29].content_store 	decision_yes[29] 	962
scalar tree_4_3_u09_r20_network.node[29].content_store 	decision_no[29] 	8442
scalar tree_4_3_u09_r20_network.node[29].content_store 	decision_ratio[29] 	0.10229689493832
scalar tree_4_3_u09_r20_network.node[30].core_layer 	interests[30] 	12866
scalar tree_4_3_u09_r20_network.node[30].core_layer 	data[30] 	9682
scalar tree_4_3_u09_r20_network.node[30].content_store 	p_hit[30] 	0.24747396238147
scalar tree_4_3_u09_r20_network.node[30].content_store 	hits[30] 	3184
scalar tree_4_3_u09_r20_network.node[30].content_store 	misses[30] 	9682
scalar tree_4_3_u09_r20_network.node[30].content_store 	decision_yes[30] 	990
scalar tree_4_3_u09_r20_network.node[30].content_store 	decision_no[30] 	8692
scalar tree_4_3_u09_r20_network.node[30].content_store 	decision_ratio[30] 	0.1022516009089
scalar tree_4_3_u09_r20_network.node[31].core_layer 	interests[31] 	13222
scalar tree_4_3_u09_r20_network.node[31].core_layer 	data[31] 	9579
scalar tree_4_3_u09_r20_network.node[31].content_store 	p_hit[31] 	0.27552563908637
scalar tree_4_3_u09_r20_network.node[31].content_store 	hits[31] 	3643
scalar tree_4_3_u09_r20_network.node[31].content_store 	misses[31] 	9579
scalar tree_4_3_u09_r20_network.node[31].content_store 	decision_yes[31] 	1017
scalar tree_4_3_u09_r20_network.node[31].content_store 	decision_no[31] 	8562
scalar tree_4_3_u09_r20_network.node[31].content_store 	decision_ratio[31] 	0.10616974632008
scalar tree_4_3_u09_r20_network.node[32].core_layer 	interests[32] 	13166
scalar tree_4_3_u09_r20_network.node[32].core_layer 	data[32] 	9419
scalar tree_4_3_u09_r20_network.node[32].content_store 	p_hit[32] 	0.2845207352271
scalar tree_4_3_u09_r20_network.node[32].content_store 	hits[32] 	3746
scalar tree_4_3_u09_r20_network.node[32].content_store 	misses[32] 	9420
scalar tree_4_3_u09_r20_network.node[32].content_store 	decision_yes[32] 	921
scalar tree_4_3_u09_r20_network.node[32].content_store 	decision_no[32] 	8498
scalar tree_4_3_u09_r20_network.node[32].content_store 	decision_ratio[32] 	0.09778108079414
scalar tree_4_3_u09_r20_network.node[33].core_layer 	interests[33] 	13971
scalar tree_4_3_u09_r20_network.node[33].core_layer 	data[33] 	9414
scalar tree_4_3_u09_r20_network.node[33].content_store 	p_hit[33] 	0.3261756495598
scalar tree_4_3_u09_r20_network.node[33].content_store 	hits[33] 	4557
scalar tree_4_3_u09_r20_network.node[33].content_store 	misses[33] 	9414
scalar tree_4_3_u09_r20_network.node[33].content_store 	decision_yes[33] 	919
scalar tree_4_3_u09_r20_network.node[33].content_store 	decision_no[33] 	8495
scalar tree_4_3_u09_r20_network.node[33].content_store 	decision_ratio[33] 	0.097620565115785
scalar tree_4_3_u09_r20_network.node[34].core_layer 	interests[34] 	14313
scalar tree_4_3_u09_r20_network.node[34].core_layer 	data[34] 	9600
scalar tree_4_3_u09_r20_network.node[34].content_store 	p_hit[34] 	0.32928107315028
scalar tree_4_3_u09_r20_network.node[34].content_store 	hits[34] 	4713
scalar tree_4_3_u09_r20_network.node[34].content_store 	misses[34] 	9600
scalar tree_4_3_u09_r20_network.node[34].content_store 	decision_yes[34] 	956
scalar tree_4_3_u09_r20_network.node[34].content_store 	decision_no[34] 	8644
scalar tree_4_3_u09_r20_network.node[34].content_store 	decision_ratio[34] 	0.099583333333333
scalar tree_4_3_u09_r20_network.node[35].core_layer 	interests[35] 	13221
scalar tree_4_3_u09_r20_network.node[35].core_layer 	data[35] 	9851
scalar tree_4_3_u09_r20_network.node[35].content_store 	p_hit[35] 	0.25489751153468
scalar tree_4_3_u09_r20_network.node[35].content_store 	hits[35] 	3370
scalar tree_4_3_u09_r20_network.node[35].content_store 	misses[35] 	9851
scalar tree_4_3_u09_r20_network.node[35].content_store 	decision_yes[35] 	977
scalar tree_4_3_u09_r20_network.node[35].content_store 	decision_no[35] 	8874
scalar tree_4_3_u09_r20_network.node[35].content_store 	decision_ratio[35] 	0.099177748451934
scalar tree_4_3_u09_r20_network.node[36].core_layer 	interests[36] 	13622
scalar tree_4_3_u09_r20_network.node[36].core_layer 	data[36] 	9617
scalar tree_4_3_u09_r20_network.node[36].content_store 	p_hit[36] 	0.29400969020702
scalar tree_4_3_u09_r20_network.node[36].content_store 	hits[36] 	4005
scalar tree_4_3_u09_r20_network.node[36].content_store 	misses[36] 	9617
scalar tree_4_3_u09_r20_network.node[36].content_store 	decision_yes[36] 	1016
scalar tree_4_3_u09_r20_network.node[36].content_store 	decision_no[36] 	8601
scalar tree_4_3_u09_r20_network.node[36].content_store 	decision_ratio[36] 	0.10564625142976
scalar tree_4_3_u09_r20_network.node[37].core_layer 	interests[37] 	14052
scalar tree_4_3_u09_r20_network.node[37].core_layer 	data[37] 	9661
scalar tree_4_3_u09_r20_network.node[37].content_store 	p_hit[37] 	0.31255337318531
scalar tree_4_3_u09_r20_network.node[37].content_store 	hits[37] 	4392
scalar tree_4_3_u09_r20_network.node[37].content_store 	misses[37] 	9660
scalar tree_4_3_u09_r20_network.node[37].content_store 	decision_yes[37] 	985
scalar tree_4_3_u09_r20_network.node[37].content_store 	decision_no[37] 	8676
scalar tree_4_3_u09_r20_network.node[37].content_store 	decision_ratio[37] 	0.10195631922161
scalar tree_4_3_u09_r20_network.node[38].core_layer 	interests[38] 	13498
scalar tree_4_3_u09_r20_network.node[38].core_layer 	data[38] 	9441
scalar tree_4_3_u09_r20_network.node[38].content_store 	p_hit[38] 	0.30056304637724
scalar tree_4_3_u09_r20_network.node[38].content_store 	hits[38] 	4057
scalar tree_4_3_u09_r20_network.node[38].content_store 	misses[38] 	9441
scalar tree_4_3_u09_r20_network.node[38].content_store 	decision_yes[38] 	916
scalar tree_4_3_u09_r20_network.node[38].content_store 	decision_no[38] 	8525
scalar tree_4_3_u09_r20_network.node[38].content_store 	decision_ratio[38] 	0.097023620379197
scalar tree_4_3_u09_r20_network.node[39].core_layer 	interests[39] 	12988
scalar tree_4_3_u09_r20_network.node[39].core_layer 	data[39] 	9607
scalar tree_4_3_u09_r20_network.node[39].content_store 	p_hit[39] 	0.2601632275947
scalar tree_4_3_u09_r20_network.node[39].content_store 	hits[39] 	3379
scalar tree_4_3_u09_r20_network.node[39].content_store 	misses[39] 	9609
scalar tree_4_3_u09_r20_network.node[39].content_store 	decision_yes[39] 	986
scalar tree_4_3_u09_r20_network.node[39].content_store 	decision_no[39] 	8621
scalar tree_4_3_u09_r20_network.node[39].content_store 	decision_ratio[39] 	0.10263349640887
scalar tree_4_3_u09_r20_network.client[13] 	hdistance[13] 	2.8962082531179
scalar tree_4_3_u09_r20_network.client[13] 	downloads[13] 	11947
scalar tree_4_3_u09_r20_network.client[13] 	avg_time[13] 	0.004619399398
scalar tree_4_3_u09_r20_network.client[14] 	hdistance[14] 	2.7971560016729
scalar tree_4_3_u09_r20_network.client[14] 	downloads[14] 	11955
scalar tree_4_3_u09_r20_network.client[14] 	avg_time[14] 	0.004446161048
scalar tree_4_3_u09_r20_network.client[15] 	hdistance[15] 	2.776077425759
scalar tree_4_3_u09_r20_network.client[15] 	downloads[15] 	12089
scalar tree_4_3_u09_r20_network.client[15] 	avg_time[15] 	0.004447367658
scalar tree_4_3_u09_r20_network.client[16] 	hdistance[16] 	2.7893333333333
scalar tree_4_3_u09_r20_network.client[16] 	downloads[16] 	12000
scalar tree_4_3_u09_r20_network.client[16] 	avg_time[16] 	0.004430772048
scalar tree_4_3_u09_r20_network.client[17] 	hdistance[17] 	2.8742336371168
scalar tree_4_3_u09_r20_network.client[17] 	downloads[17] 	12070
scalar tree_4_3_u09_r20_network.client[17] 	avg_time[17] 	0.004594031769
scalar tree_4_3_u09_r20_network.client[18] 	hdistance[18] 	2.7217132953701
scalar tree_4_3_u09_r20_network.client[18] 	downloads[18] 	12117
scalar tree_4_3_u09_r20_network.client[18] 	avg_time[18] 	0.00434343561
scalar tree_4_3_u09_r20_network.client[19] 	hdistance[19] 	2.7454470539761
scalar tree_4_3_u09_r20_network.client[19] 	downloads[19] 	12135
scalar tree_4_3_u09_r20_network.client[19] 	avg_time[19] 	0.004388789726
scalar tree_4_3_u09_r20_network.client[20] 	hdistance[20] 	2.7468385817009
scalar tree_4_3_u09_r20_network.client[20] 	downloads[20] 	12099
scalar tree_4_3_u09_r20_network.client[20] 	avg_time[20] 	0.004394060263
scalar tree_4_3_u09_r20_network.client[21] 	hdistance[21] 	2.8107323546488
scalar tree_4_3_u09_r20_network.client[21] 	downloads[21] 	12057
scalar tree_4_3_u09_r20_network.client[21] 	avg_time[21] 	0.004515879871
scalar tree_4_3_u09_r20_network.client[22] 	hdistance[22] 	2.8492875104778
scalar tree_4_3_u09_r20_network.client[22] 	downloads[22] 	11930
scalar tree_4_3_u09_r20_network.client[22] 	avg_time[22] 	0.004603349948
scalar tree_4_3_u09_r20_network.client[23] 	hdistance[23] 	2.7991991323934
scalar tree_4_3_u09_r20_network.client[23] 	downloads[23] 	11987
scalar tree_4_3_u09_r20_network.client[23] 	avg_time[23] 	0.004491529526
scalar tree_4_3_u09_r20_network.client[24] 	hdistance[24] 	2.7355009514354
scalar tree_4_3_u09_r20_network.client[24] 	downloads[24] 	12087
scalar tree_4_3_u09_r20_network.client[24] 	avg_time[24] 	0.004382887681
scalar tree_4_3_u09_r20_network.client[25] 	hdistance[25] 	2.7833753148615
scalar tree_4_3_u09_r20_network.client[25] 	downloads[25] 	11910
scalar tree_4_3_u09_r20_network.client[25] 	avg_time[25] 	0.004466327852
scalar tree_4_3_u09_r20_network.client[26] 	hdistance[26] 	2.895637723307
scalar tree_4_3_u09_r20_network.client[26] 	downloads[26] 	12035
scalar tree_4_3_u09_r20_network.client[26] 	avg_time[26] 	0.004572161505
scalar tree_4_3_u09_r20_network.client[27] 	hdistance[27] 	2.7253491678515
scalar tree_4_3_u09_r20_network.client[27] 	downloads[27] 	11957
scalar tree_4_3_u09_r20_network.client[27] 	avg_time[27] 	0.004350753906
scalar tree_4_3_u09_r20_network.client[28] 	hdistance[28] 	2.7137066754901
scalar tree_4_3_u09_r20_network.client[28] 	downloads[28] 	12089
scalar tree_4_3_u09_r20_network.client[28] 	avg_time[28] 	0.00434593133
scalar tree_4_3_u09_r20_network.client[29] 	hdistance[29] 	2.7269838615269
scalar tree_4_3_u09_r20_network.client[29] 	downloads[29] 	11959
scalar tree_4_3_u09_r20_network.client[29] 	avg_time[29] 	0.004341823838
scalar tree_4_3_u09_r20_network.client[30] 	hdistance[30] 	2.8483047300126
scalar tree_4_3_u09_r20_network.client[30] 	downloads[30] 	11945
scalar tree_4_3_u09_r20_network.client[30] 	avg_time[30] 	0.004577979421
scalar tree_4_3_u09_r20_network.client[31] 	hdistance[31] 	2.8345606694561
scalar tree_4_3_u09_r20_network.client[31] 	downloads[31] 	11950
scalar tree_4_3_u09_r20_network.client[31] 	avg_time[31] 	0.004577068145
scalar tree_4_3_u09_r20_network.client[32] 	hdistance[32] 	2.8315985444698
scalar tree_4_3_u09_r20_network.client[32] 	downloads[32] 	11817
scalar tree_4_3_u09_r20_network.client[32] 	avg_time[32] 	0.004568330803
scalar tree_4_3_u09_r20_network.client[33] 	hdistance[33] 	2.7135682598142
scalar tree_4_3_u09_r20_network.client[33] 	downloads[33] 	11947
scalar tree_4_3_u09_r20_network.client[33] 	avg_time[33] 	0.004344105201
scalar tree_4_3_u09_r20_network.client[34] 	hdistance[34] 	2.7708333333333
scalar tree_4_3_u09_r20_network.client[34] 	downloads[34] 	12096
scalar tree_4_3_u09_r20_network.client[34] 	avg_time[34] 	0.004445433857
scalar tree_4_3_u09_r20_network.client[35] 	hdistance[35] 	2.8391984359726
scalar tree_4_3_u09_r20_network.client[35] 	downloads[35] 	12276
scalar tree_4_3_u09_r20_network.client[35] 	avg_time[35] 	0.00458487799
scalar tree_4_3_u09_r20_network.client[36] 	hdistance[36] 	2.760296197687
scalar tree_4_3_u09_r20_network.client[36] 	downloads[36] 	12019
scalar tree_4_3_u09_r20_network.client[36] 	avg_time[36] 	0.004408350424
scalar tree_4_3_u09_r20_network.client[37] 	hdistance[37] 	2.7596321153368
scalar tree_4_3_u09_r20_network.client[37] 	downloads[37] 	12069
scalar tree_4_3_u09_r20_network.client[37] 	avg_time[37] 	0.004413287215
scalar tree_4_3_u09_r20_network.client[38] 	hdistance[38] 	2.7565668395516
scalar tree_4_3_u09_r20_network.client[38] 	downloads[38] 	11954
scalar tree_4_3_u09_r20_network.client[38] 	avg_time[38] 	0.004387984312
scalar tree_4_3_u09_r20_network.client[39] 	hdistance[39] 	2.8107952204368
scalar tree_4_3_u09_r20_network.client[39] 	downloads[39] 	12135
scalar tree_4_3_u09_r20_network.client[39] 	avg_time[39] 	0.004476253797
