version 2
run General-14-20160826-16:53:02-21255
attr D lcd
attr F nrr
attr R lru
attr a 0.9
attr configname General
attr datetime 20160826-16:53:02
attr experiment General
attr inifile hw5115/scenario_C/omnetp.ini
attr iterationvars "$net=abilene, $rep=2, $a=0.9, $F=nrr, $D=lcd, $R=lru, $window=60, $variance=0.05, $mytime=600"
attr iterationvars2 "$net=abilene, $rep=2, $a=0.9, $F=nrr, $D=lcd, $R=lru, $window=60, $variance=0.05, $mytime=600, $repetition=0"
attr measurement "$net=abilene, $rep=2, $a=0.9, $F=nrr, $D=lcd, $R=lru, $window=60, $variance=0.05, $mytime=600"
attr mytime 600
attr net abilene
attr network networks.${net=abilene}_network
attr processid 21255
attr rep 2
attr repetition 0
attr replication #0
attr resultdir results
attr runnumber 14
attr seedset 2
attr variance 0.05
attr window 60

scalar . 	a 	0.9
scalar . 	mytime 	600
scalar . 	rep 	2
scalar . 	variance 	0.05
scalar . 	window 	60
scalar abilene_network.content_distribution 	repo-0 	4
scalar abilene_network.content_distribution 	repo-1 	9
scalar abilene_network.content_distribution 	repo-2 	6
scalar abilene_network.content_distribution 	repo-3 	3
scalar abilene_network.content_distribution 	repo-4 	7
scalar abilene_network.content_distribution 	repo-5 	8
scalar abilene_network.content_distribution 	repo-6 	10
scalar abilene_network.content_distribution 	repo-7 	0
scalar abilene_network.content_distribution 	repo-8 	5
scalar abilene_network.content_distribution 	repo-9 	2
scalar abilene_network.content_distribution 	repo-10 	1
scalar abilene_network.content_distribution 	client-0 	7
scalar abilene_network.content_distribution 	client-1 	5
scalar abilene_network.content_distribution 	client-2 	9
scalar abilene_network.content_distribution 	client-3 	6
scalar abilene_network.content_distribution 	client-4 	8
scalar abilene_network.content_distribution 	client-5 	2
scalar abilene_network.content_distribution 	client-6 	1
scalar abilene_network.content_distribution 	client-7 	10
scalar abilene_network.content_distribution 	client-8 	0
scalar abilene_network.content_distribution 	client-9 	3
scalar abilene_network.content_distribution 	client-10 	4
scalar abilene_network.content_distribution 	repo-0_card 	9130
scalar abilene_network.content_distribution 	repo-0_price 	0
scalar abilene_network.content_distribution 	repo-1_card 	8938
scalar abilene_network.content_distribution 	repo-1_price 	0
scalar abilene_network.content_distribution 	repo-2_card 	9073
scalar abilene_network.content_distribution 	repo-2_price 	0
scalar abilene_network.content_distribution 	repo-3_card 	9064
scalar abilene_network.content_distribution 	repo-3_price 	0
scalar abilene_network.content_distribution 	repo-4_card 	9026
scalar abilene_network.content_distribution 	repo-4_price 	0
scalar abilene_network.content_distribution 	repo-5_card 	9161
scalar abilene_network.content_distribution 	repo-5_price 	0
scalar abilene_network.content_distribution 	repo-6_card 	9115
scalar abilene_network.content_distribution 	repo-6_price 	0
scalar abilene_network.content_distribution 	repo-7_card 	9125
scalar abilene_network.content_distribution 	repo-7_price 	0
scalar abilene_network.content_distribution 	repo-8_card 	9237
scalar abilene_network.content_distribution 	repo-8_price 	0
scalar abilene_network.content_distribution 	repo-9_card 	8999
scalar abilene_network.content_distribution 	repo-9_price 	0
scalar abilene_network.content_distribution 	repo-10_card 	9132
scalar abilene_network.content_distribution 	repo-10_price 	0
scalar abilene_network.statistics 	stabilization_time 	357.4
scalar abilene_network.statistics 	p_hit 	0.11971506859526
scalar abilene_network.statistics 	interests 	33328.818181818
scalar abilene_network.statistics 	data 	21343.545454545
scalar abilene_network.statistics 	hdistance 	2.4636259517075
scalar abilene_network.statistics 	avg_time 	0.011419075574
scalar abilene_network.statistics 	downloads 	131819
scalar abilene_network.statistics 	total_cost 	0
scalar abilene_network.statistics 	total_replicas 	100000
scalar abilene_network.statistics 	inner_hit 	0.31704837694111
scalar abilene_network.node[0].core_layer 	interests[0] 	20683
scalar abilene_network.node[0].core_layer 	repo_load[0] 	8237
scalar abilene_network.node[0].core_layer 	data[0] 	9439
scalar abilene_network.node[0].core_layer 	repo_int[0] 	90026
scalar abilene_network.node[0].content_store 	p_hit[0] 	0.14528840110235
scalar abilene_network.node[0].content_store 	hits[0] 	3005
scalar abilene_network.node[0].content_store 	misses[0] 	17678
scalar abilene_network.node[0].content_store 	decision_yes[0] 	8932
scalar abilene_network.node[0].content_store 	decision_no[0] 	8744
scalar abilene_network.node[0].content_store 	decision_ratio[0] 	0.50531794523648
scalar abilene_network.node[1].core_layer 	interests[1] 	40357
scalar abilene_network.node[1].core_layer 	repo_load[1] 	8307
scalar abilene_network.node[1].core_layer 	data[1] 	28062
scalar abilene_network.node[1].content_store 	p_hit[1] 	0.098743712367123
scalar abilene_network.node[1].content_store 	hits[1] 	3985
scalar abilene_network.node[1].content_store 	misses[1] 	36372
scalar abilene_network.node[1].content_store 	decision_yes[1] 	10744
scalar abilene_network.node[1].content_store 	decision_no[1] 	25624
scalar abilene_network.node[1].content_store 	decision_ratio[1] 	0.29542454905411
scalar abilene_network.node[2].core_layer 	interests[2] 	54574
scalar abilene_network.node[2].core_layer 	repo_load[2] 	8145
scalar abilene_network.node[2].core_layer 	data[2] 	41619
scalar abilene_network.node[2].content_store 	p_hit[2] 	0.088008941987027
scalar abilene_network.node[2].content_store 	hits[2] 	4803
scalar abilene_network.node[2].content_store 	misses[2] 	49771
scalar abilene_network.node[2].content_store 	decision_yes[2] 	11328
scalar abilene_network.node[2].content_store 	decision_no[2] 	38435
scalar abilene_network.node[2].content_store 	decision_ratio[2] 	0.2276390089022
scalar abilene_network.node[3].core_layer 	interests[3] 	50600
scalar abilene_network.node[3].core_layer 	repo_load[3] 	7971
scalar abilene_network.node[3].core_layer 	data[3] 	37929
scalar abilene_network.node[3].content_store 	p_hit[3] 	0.092786561264822
scalar abilene_network.node[3].content_store 	hits[3] 	4695
scalar abilene_network.node[3].content_store 	misses[3] 	45905
scalar abilene_network.node[3].content_store 	decision_yes[3] 	10899
scalar abilene_network.node[3].content_store 	decision_no[3] 	35000
scalar abilene_network.node[3].content_store 	decision_ratio[3] 	0.23745615372884
scalar abilene_network.node[4].core_layer 	interests[4] 	29576
scalar abilene_network.node[4].core_layer 	repo_load[4] 	8735
scalar abilene_network.node[4].core_layer 	data[4] 	17672
scalar abilene_network.node[4].content_store 	p_hit[4] 	0.10711387611577
scalar abilene_network.node[4].content_store 	hits[4] 	3168
scalar abilene_network.node[4].content_store 	misses[4] 	26408
scalar abilene_network.node[4].content_store 	decision_yes[4] 	10142
scalar abilene_network.node[4].content_store 	decision_no[4] 	16265
scalar abilene_network.node[4].content_store 	decision_ratio[4] 	0.38406483129473
scalar abilene_network.node[5].core_layer 	interests[5] 	22077
scalar abilene_network.node[5].core_layer 	repo_load[5] 	7890
scalar abilene_network.node[5].core_layer 	data[5] 	11291
scalar abilene_network.node[5].content_store 	p_hit[5] 	0.13117724328487
scalar abilene_network.node[5].content_store 	hits[5] 	2896
scalar abilene_network.node[5].content_store 	misses[5] 	19181
scalar abilene_network.node[5].content_store 	decision_yes[5] 	8844
scalar abilene_network.node[5].content_store 	decision_no[5] 	10337
scalar abilene_network.node[5].content_store 	decision_ratio[5] 	0.46108127834837
scalar abilene_network.node[6].core_layer 	interests[6] 	25731
scalar abilene_network.node[6].core_layer 	repo_load[6] 	7863
scalar abilene_network.node[6].core_layer 	data[6] 	14649
scalar abilene_network.node[6].content_store 	p_hit[6] 	0.12498542613968
scalar abilene_network.node[6].content_store 	hits[6] 	3216
scalar abilene_network.node[6].content_store 	misses[6] 	22515
scalar abilene_network.node[6].content_store 	decision_yes[6] 	9073
scalar abilene_network.node[6].content_store 	decision_no[6] 	13439
scalar abilene_network.node[6].content_store 	decision_ratio[6] 	0.40302949538024
scalar abilene_network.node[7].core_layer 	interests[7] 	36889
scalar abilene_network.node[7].core_layer 	repo_load[7] 	8143
scalar abilene_network.node[7].core_layer 	data[7] 	24359
scalar abilene_network.node[7].content_store 	p_hit[7] 	0.11870747377267
scalar abilene_network.node[7].content_store 	hits[7] 	4379
scalar abilene_network.node[7].content_store 	misses[7] 	32510
scalar abilene_network.node[7].content_store 	decision_yes[7] 	10546
scalar abilene_network.node[7].content_store 	decision_no[7] 	21956
scalar abilene_network.node[7].content_store 	decision_ratio[7] 	0.32447234016368
scalar abilene_network.node[8].core_layer 	interests[8] 	35592
scalar abilene_network.node[8].core_layer 	repo_load[8] 	8661
scalar abilene_network.node[8].core_layer 	data[8] 	22529
scalar abilene_network.node[8].content_store 	p_hit[8] 	0.12359518993032
scalar abilene_network.node[8].content_store 	hits[8] 	4399
scalar abilene_network.node[8].content_store 	misses[8] 	31193
scalar abilene_network.node[8].content_store 	decision_yes[8] 	11077
scalar abilene_network.node[8].content_store 	decision_no[8] 	20113
scalar abilene_network.node[8].content_store 	decision_ratio[8] 	0.35514588008977
scalar abilene_network.node[9].core_layer 	interests[9] 	25785
scalar abilene_network.node[9].core_layer 	repo_load[9] 	7796
scalar abilene_network.node[9].core_layer 	data[9] 	14458
scalar abilene_network.node[9].content_store 	p_hit[9] 	0.13690129920496
scalar abilene_network.node[9].content_store 	hits[9] 	3530
scalar abilene_network.node[9].content_store 	misses[9] 	22255
scalar abilene_network.node[9].content_store 	decision_yes[9] 	9163
scalar abilene_network.node[9].content_store 	decision_no[9] 	13091
scalar abilene_network.node[9].content_store 	decision_ratio[9] 	0.41174620292981
scalar abilene_network.node[10].core_layer 	interests[10] 	24753
scalar abilene_network.node[10].core_layer 	repo_load[10] 	8278
scalar abilene_network.node[10].core_layer 	data[10] 	12772
scalar abilene_network.node[10].content_store 	p_hit[10] 	0.14955762937826
scalar abilene_network.node[10].content_store 	hits[10] 	3702
scalar abilene_network.node[10].content_store 	misses[10] 	21051
scalar abilene_network.node[10].content_store 	decision_yes[10] 	9800
scalar abilene_network.node[10].content_store 	decision_no[10] 	11250
scalar abilene_network.node[10].content_store 	decision_ratio[10] 	0.46555819477435
scalar abilene_network.client[0] 	hdistance[0] 	2.8888340733432
scalar abilene_network.client[0] 	downloads[0] 	12162
scalar abilene_network.client[0] 	avg_time[0] 	0.015288542074
scalar abilene_network.client[1] 	hdistance[1] 	2.3651127566476
scalar abilene_network.client[1] 	downloads[1] 	11884
scalar abilene_network.client[1] 	avg_time[1] 	0.009930832149
scalar abilene_network.client[2] 	hdistance[2] 	2.0690482097081
scalar abilene_network.client[2] 	downloads[2] 	12093
scalar abilene_network.client[2] 	avg_time[2] 	0.008593220133
scalar abilene_network.client[3] 	hdistance[3] 	2.1245040938634
scalar abilene_network.client[3] 	downloads[3] 	11847
scalar abilene_network.client[3] 	avg_time[3] 	0.008733708058
scalar abilene_network.client[4] 	hdistance[4] 	2.6319696330662
scalar abilene_network.client[4] 	downloads[4] 	11855
scalar abilene_network.client[4] 	avg_time[4] 	0.00972760734
scalar abilene_network.client[5] 	hdistance[5] 	2.9606358819076
scalar abilene_network.client[5] 	downloads[5] 	11889
scalar abilene_network.client[5] 	avg_time[5] 	0.012683855228
scalar abilene_network.client[6] 	hdistance[6] 	2.6916110973903
scalar abilene_network.client[6] 	downloads[6] 	12147
scalar abilene_network.client[6] 	avg_time[6] 	0.012493315657
scalar abilene_network.client[7] 	hdistance[7] 	2.2057080864558
scalar abilene_network.client[7] 	downloads[7] 	11983
scalar abilene_network.client[7] 	avg_time[7] 	0.009506903451
scalar abilene_network.client[8] 	hdistance[8] 	2.1360127538177
scalar abilene_network.client[8] 	downloads[8] 	11918
scalar abilene_network.client[8] 	avg_time[8] 	0.010207650558
scalar abilene_network.client[9] 	hdistance[9] 	2.4472960586618
scalar abilene_network.client[9] 	downloads[9] 	12001
scalar abilene_network.client[9] 	avg_time[9] 	0.014816338962
scalar abilene_network.client[10] 	hdistance[10] 	2.5791528239203
scalar abilene_network.client[10] 	downloads[10] 	12040
scalar abilene_network.client[10] 	avg_time[10] 	0.013627857708
