version 2
run General-94-20160902-21:03:04-4279
attr a 0.9
attr cd ffc0.2
attr configname General
attr cr lru
attr datetime 20160902-21:03:04
attr experiment General
attr fsize 1
attr inifile hw5115/scenario_Y/omnetp.ini
attr iterationvars "$name=tree_4_3, $un=04, $rep=15, $cd=ffc0.2, $cr=lru, $fsize=1, $a=0.9, $sl=nrr, $ttl=1000, $variance=0.05"
attr iterationvars2 "$name=tree_4_3, $un=04, $rep=15, $cd=ffc0.2, $cr=lru, $fsize=1, $a=0.9, $sl=nrr, $ttl=1000, $variance=0.05, $repetition=0"
attr measurement "$name=tree_4_3, $un=04, $rep=15, $cd=ffc0.2, $cr=lru, $fsize=1, $a=0.9, $sl=nrr, $ttl=1000, $variance=0.05"
attr name tree_4_3
attr network networks.${name}_u${un}_r${rep}_network
attr processid 4279
attr rep 15
attr repetition 0
attr replication #0
attr resultdir results
attr runnumber 94
attr seedset 15
attr sl nrr
attr ttl 1000
attr un 04
attr variance 0.05

scalar . 	a 	0.9
scalar . 	fsize 	1
scalar . 	rep 	15
scalar . 	ttl 	1000
scalar . 	un 	04
scalar . 	variance 	0.05
scalar tree_4_3_u04_r15_network.content_distribution 	repo-0 	0
scalar tree_4_3_u04_r15_network.content_distribution 	client-0 	13
scalar tree_4_3_u04_r15_network.content_distribution 	client-1 	14
scalar tree_4_3_u04_r15_network.content_distribution 	client-2 	15
scalar tree_4_3_u04_r15_network.content_distribution 	client-3 	16
scalar tree_4_3_u04_r15_network.content_distribution 	client-4 	17
scalar tree_4_3_u04_r15_network.content_distribution 	client-5 	18
scalar tree_4_3_u04_r15_network.content_distribution 	client-6 	19
scalar tree_4_3_u04_r15_network.content_distribution 	client-7 	20
scalar tree_4_3_u04_r15_network.content_distribution 	client-8 	21
scalar tree_4_3_u04_r15_network.content_distribution 	client-9 	22
scalar tree_4_3_u04_r15_network.content_distribution 	client-10 	23
scalar tree_4_3_u04_r15_network.content_distribution 	client-11 	24
scalar tree_4_3_u04_r15_network.content_distribution 	client-12 	25
scalar tree_4_3_u04_r15_network.content_distribution 	client-13 	26
scalar tree_4_3_u04_r15_network.content_distribution 	client-14 	27
scalar tree_4_3_u04_r15_network.content_distribution 	client-15 	28
scalar tree_4_3_u04_r15_network.content_distribution 	client-16 	29
scalar tree_4_3_u04_r15_network.content_distribution 	client-17 	30
scalar tree_4_3_u04_r15_network.content_distribution 	client-18 	31
scalar tree_4_3_u04_r15_network.content_distribution 	client-19 	32
scalar tree_4_3_u04_r15_network.content_distribution 	client-20 	33
scalar tree_4_3_u04_r15_network.content_distribution 	client-21 	34
scalar tree_4_3_u04_r15_network.content_distribution 	client-22 	35
scalar tree_4_3_u04_r15_network.content_distribution 	client-23 	36
scalar tree_4_3_u04_r15_network.content_distribution 	client-24 	37
scalar tree_4_3_u04_r15_network.content_distribution 	client-25 	38
scalar tree_4_3_u04_r15_network.content_distribution 	client-26 	39
scalar tree_4_3_u04_r15_network.content_distribution 	repo-0_card 	100000
scalar tree_4_3_u04_r15_network.content_distribution 	repo-0_price 	0
scalar tree_4_3_u04_r15_network.statistics 	stabilization_time 	2855.4
scalar tree_4_3_u04_r15_network.statistics 	p_hit 	0.2332356347529
scalar tree_4_3_u04_r15_network.statistics 	interests 	24609.425
scalar tree_4_3_u04_r15_network.statistics 	data 	16534.75
scalar tree_4_3_u04_r15_network.statistics 	hdistance 	2.6179257888352
scalar tree_4_3_u04_r15_network.statistics 	avg_time 	0.004095697524
scalar tree_4_3_u04_r15_network.statistics 	downloads 	322985
scalar tree_4_3_u04_r15_network.statistics 	total_cost 	0
scalar tree_4_3_u04_r15_network.statistics 	total_replicas 	100000
scalar tree_4_3_u04_r15_network.statistics 	inner_hit 	0.42993947087326
scalar tree_4_3_u04_r15_network.node[0].core_layer 	interests[0] 	187641
scalar tree_4_3_u04_r15_network.node[0].core_layer 	repo_load[0] 	184121
scalar tree_4_3_u04_r15_network.node[0].core_layer 	data[0] 	0
scalar tree_4_3_u04_r15_network.node[0].core_layer 	repo_int[0] 	184121
scalar tree_4_3_u04_r15_network.node[0].content_store 	p_hit[0] 	0.018759226395084
scalar tree_4_3_u04_r15_network.node[0].content_store 	hits[0] 	3520
scalar tree_4_3_u04_r15_network.node[0].content_store 	misses[0] 	184121
scalar tree_4_3_u04_r15_network.node[0].content_store 	decision_yes[0] 	155
scalar tree_4_3_u04_r15_network.node[0].content_store 	decision_no[0] 	183966
scalar tree_4_3_u04_r15_network.node[0].content_store 	decision_ratio[0] 	0.00084183770455298
scalar tree_4_3_u04_r15_network.node[1].core_layer 	interests[1] 	68141
scalar tree_4_3_u04_r15_network.node[1].core_layer 	data[1] 	66160
scalar tree_4_3_u04_r15_network.node[1].content_store 	p_hit[1] 	0.029057395694222
scalar tree_4_3_u04_r15_network.node[1].content_store 	hits[1] 	1980
scalar tree_4_3_u04_r15_network.node[1].content_store 	misses[1] 	66161
scalar tree_4_3_u04_r15_network.node[1].content_store 	decision_yes[1] 	63
scalar tree_4_3_u04_r15_network.node[1].content_store 	decision_no[1] 	66097
scalar tree_4_3_u04_r15_network.node[1].content_store 	decision_ratio[1] 	0.00095223700120919
scalar tree_4_3_u04_r15_network.node[2].core_layer 	interests[2] 	107962
scalar tree_4_3_u04_r15_network.node[2].core_layer 	data[2] 	104362
scalar tree_4_3_u04_r15_network.node[2].content_store 	p_hit[2] 	0.033335803338212
scalar tree_4_3_u04_r15_network.node[2].content_store 	hits[2] 	3599
scalar tree_4_3_u04_r15_network.node[2].content_store 	misses[2] 	104363
scalar tree_4_3_u04_r15_network.node[2].content_store 	decision_yes[2] 	138
scalar tree_4_3_u04_r15_network.node[2].content_store 	decision_no[2] 	104224
scalar tree_4_3_u04_r15_network.node[2].content_store 	decision_ratio[2] 	0.0013223203848144
scalar tree_4_3_u04_r15_network.node[3].core_layer 	interests[3] 	32464
scalar tree_4_3_u04_r15_network.node[3].core_layer 	data[3] 	30467
scalar tree_4_3_u04_r15_network.node[3].content_store 	p_hit[3] 	0.061483489403647
scalar tree_4_3_u04_r15_network.node[3].content_store 	hits[3] 	1996
scalar tree_4_3_u04_r15_network.node[3].content_store 	misses[3] 	30468
scalar tree_4_3_u04_r15_network.node[3].content_store 	decision_yes[3] 	31
scalar tree_4_3_u04_r15_network.node[3].content_store 	decision_no[3] 	30436
scalar tree_4_3_u04_r15_network.node[3].content_store 	decision_ratio[3] 	0.0010174943381363
scalar tree_4_3_u04_r15_network.node[4].core_layer 	interests[4] 	43281
scalar tree_4_3_u04_r15_network.node[4].core_layer 	data[4] 	40228
scalar tree_4_3_u04_r15_network.node[4].content_store 	p_hit[4] 	0.070539035604538
scalar tree_4_3_u04_r15_network.node[4].content_store 	hits[4] 	3053
scalar tree_4_3_u04_r15_network.node[4].content_store 	misses[4] 	40228
scalar tree_4_3_u04_r15_network.node[4].content_store 	decision_yes[4] 	70
scalar tree_4_3_u04_r15_network.node[4].content_store 	decision_no[4] 	40158
scalar tree_4_3_u04_r15_network.node[4].content_store 	decision_ratio[4] 	0.0017400815352491
scalar tree_4_3_u04_r15_network.node[5].core_layer 	interests[5] 	21540
scalar tree_4_3_u04_r15_network.node[5].core_layer 	data[5] 	18128
scalar tree_4_3_u04_r15_network.node[5].content_store 	p_hit[5] 	0.15840297121634
scalar tree_4_3_u04_r15_network.node[5].content_store 	hits[5] 	3412
scalar tree_4_3_u04_r15_network.node[5].content_store 	misses[5] 	18128
scalar tree_4_3_u04_r15_network.node[5].content_store 	decision_yes[5] 	49
scalar tree_4_3_u04_r15_network.node[5].content_store 	decision_no[5] 	18079
scalar tree_4_3_u04_r15_network.node[5].content_store 	decision_ratio[5] 	0.0027030008826125
scalar tree_4_3_u04_r15_network.node[6].core_layer 	interests[6] 	18670
scalar tree_4_3_u04_r15_network.node[6].core_layer 	data[6] 	16719
scalar tree_4_3_u04_r15_network.node[6].content_store 	p_hit[6] 	0.10449919657204
scalar tree_4_3_u04_r15_network.node[6].content_store 	hits[6] 	1951
scalar tree_4_3_u04_r15_network.node[6].content_store 	misses[6] 	16719
scalar tree_4_3_u04_r15_network.node[6].content_store 	decision_yes[6] 	38
scalar tree_4_3_u04_r15_network.node[6].content_store 	decision_no[6] 	16681
scalar tree_4_3_u04_r15_network.node[6].content_store 	decision_ratio[6] 	0.0022728632095221
scalar tree_4_3_u04_r15_network.node[7].core_layer 	interests[7] 	44666
scalar tree_4_3_u04_r15_network.node[7].core_layer 	data[7] 	41220
scalar tree_4_3_u04_r15_network.node[7].content_store 	p_hit[7] 	0.077128016836072
scalar tree_4_3_u04_r15_network.node[7].content_store 	hits[7] 	3445
scalar tree_4_3_u04_r15_network.node[7].content_store 	misses[7] 	41221
scalar tree_4_3_u04_r15_network.node[7].content_store 	decision_yes[7] 	74
scalar tree_4_3_u04_r15_network.node[7].content_store 	decision_no[7] 	41146
scalar tree_4_3_u04_r15_network.node[7].content_store 	decision_ratio[7] 	0.0017952450266861
scalar tree_4_3_u04_r15_network.node[8].core_layer 	interests[8] 	19071
scalar tree_4_3_u04_r15_network.node[8].core_layer 	data[8] 	16479
scalar tree_4_3_u04_r15_network.node[8].content_store 	p_hit[8] 	0.13591316658801
scalar tree_4_3_u04_r15_network.node[8].content_store 	hits[8] 	2592
scalar tree_4_3_u04_r15_network.node[8].content_store 	misses[8] 	16479
scalar tree_4_3_u04_r15_network.node[8].content_store 	decision_yes[8] 	37
scalar tree_4_3_u04_r15_network.node[8].content_store 	decision_no[8] 	16442
scalar tree_4_3_u04_r15_network.node[8].content_store 	decision_ratio[8] 	0.0022452818739001
scalar tree_4_3_u04_r15_network.node[9].core_layer 	interests[9] 	19455
scalar tree_4_3_u04_r15_network.node[9].core_layer 	data[9] 	16962
scalar tree_4_3_u04_r15_network.node[9].content_store 	p_hit[9] 	0.12814186584426
scalar tree_4_3_u04_r15_network.node[9].content_store 	hits[9] 	2493
scalar tree_4_3_u04_r15_network.node[9].content_store 	misses[9] 	16962
scalar tree_4_3_u04_r15_network.node[9].content_store 	decision_yes[9] 	53
scalar tree_4_3_u04_r15_network.node[9].content_store 	decision_no[9] 	16909
scalar tree_4_3_u04_r15_network.node[9].content_store 	decision_ratio[9] 	0.0031246315293008
scalar tree_4_3_u04_r15_network.node[10].core_layer 	interests[10] 	28291
scalar tree_4_3_u04_r15_network.node[10].core_layer 	data[10] 	25400
scalar tree_4_3_u04_r15_network.node[10].content_store 	p_hit[10] 	0.10215262804425
scalar tree_4_3_u04_r15_network.node[10].content_store 	hits[10] 	2890
scalar tree_4_3_u04_r15_network.node[10].content_store 	misses[10] 	25401
scalar tree_4_3_u04_r15_network.node[10].content_store 	decision_yes[10] 	54
scalar tree_4_3_u04_r15_network.node[10].content_store 	decision_no[10] 	25346
scalar tree_4_3_u04_r15_network.node[10].content_store 	decision_ratio[10] 	0.0021259842519685
scalar tree_4_3_u04_r15_network.node[11].core_layer 	interests[11] 	44295
scalar tree_4_3_u04_r15_network.node[11].core_layer 	data[11] 	40404
scalar tree_4_3_u04_r15_network.node[11].content_store 	p_hit[11] 	0.087797719832938
scalar tree_4_3_u04_r15_network.node[11].content_store 	hits[11] 	3889
scalar tree_4_3_u04_r15_network.node[11].content_store 	misses[11] 	40406
scalar tree_4_3_u04_r15_network.node[11].content_store 	decision_yes[11] 	82
scalar tree_4_3_u04_r15_network.node[11].content_store 	decision_no[11] 	40322
scalar tree_4_3_u04_r15_network.node[11].content_store 	decision_ratio[11] 	0.002029502029502
scalar tree_4_3_u04_r15_network.node[12].core_layer 	interests[12] 	10358
scalar tree_4_3_u04_r15_network.node[12].core_layer 	data[12] 	8582
scalar tree_4_3_u04_r15_network.node[12].content_store 	p_hit[12] 	0.17146167213748
scalar tree_4_3_u04_r15_network.node[12].content_store 	hits[12] 	1776
scalar tree_4_3_u04_r15_network.node[12].content_store 	misses[12] 	8582
scalar tree_4_3_u04_r15_network.node[12].content_store 	decision_yes[12] 	21
scalar tree_4_3_u04_r15_network.node[12].content_store 	decision_no[12] 	8561
scalar tree_4_3_u04_r15_network.node[12].content_store 	decision_ratio[12] 	0.0024469820554649
scalar tree_4_3_u04_r15_network.node[13].core_layer 	interests[13] 	12353
scalar tree_4_3_u04_r15_network.node[13].core_layer 	data[13] 	8733
scalar tree_4_3_u04_r15_network.node[13].content_store 	p_hit[13] 	0.29304622358941
scalar tree_4_3_u04_r15_network.node[13].content_store 	hits[13] 	3620
scalar tree_4_3_u04_r15_network.node[13].content_store 	misses[13] 	8733
scalar tree_4_3_u04_r15_network.node[13].content_store 	decision_yes[13] 	24
scalar tree_4_3_u04_r15_network.node[13].content_store 	decision_no[13] 	8709
scalar tree_4_3_u04_r15_network.node[13].content_store 	decision_ratio[13] 	0.0027481964960495
scalar tree_4_3_u04_r15_network.node[14].core_layer 	interests[14] 	12474
scalar tree_4_3_u04_r15_network.node[14].core_layer 	data[14] 	8787
scalar tree_4_3_u04_r15_network.node[14].content_store 	p_hit[14] 	0.2955747955748
scalar tree_4_3_u04_r15_network.node[14].content_store 	hits[14] 	3687
scalar tree_4_3_u04_r15_network.node[14].content_store 	misses[14] 	8787
scalar tree_4_3_u04_r15_network.node[14].content_store 	decision_yes[14] 	14
scalar tree_4_3_u04_r15_network.node[14].content_store 	decision_no[14] 	8773
scalar tree_4_3_u04_r15_network.node[14].content_store 	decision_ratio[14] 	0.0015932627745533
scalar tree_4_3_u04_r15_network.node[15].core_layer 	interests[15] 	12559
scalar tree_4_3_u04_r15_network.node[15].core_layer 	data[15] 	8829
scalar tree_4_3_u04_r15_network.node[15].content_store 	p_hit[15] 	0.296998168644
scalar tree_4_3_u04_r15_network.node[15].content_store 	hits[15] 	3730
scalar tree_4_3_u04_r15_network.node[15].content_store 	misses[15] 	8829
scalar tree_4_3_u04_r15_network.node[15].content_store 	decision_yes[15] 	20
scalar tree_4_3_u04_r15_network.node[15].content_store 	decision_no[15] 	8809
scalar tree_4_3_u04_r15_network.node[15].content_store 	decision_ratio[15] 	0.0022652622041001
scalar tree_4_3_u04_r15_network.node[16].core_layer 	interests[16] 	13050
scalar tree_4_3_u04_r15_network.node[16].core_layer 	data[16] 	8940
scalar tree_4_3_u04_r15_network.node[16].content_store 	p_hit[16] 	0.31494252873563
scalar tree_4_3_u04_r15_network.node[16].content_store 	hits[16] 	4110
scalar tree_4_3_u04_r15_network.node[16].content_store 	misses[16] 	8940
scalar tree_4_3_u04_r15_network.node[16].content_store 	decision_yes[16] 	20
scalar tree_4_3_u04_r15_network.node[16].content_store 	decision_no[16] 	8920
scalar tree_4_3_u04_r15_network.node[16].content_store 	decision_ratio[16] 	0.0022371364653244
scalar tree_4_3_u04_r15_network.node[17].core_layer 	interests[17] 	12266
scalar tree_4_3_u04_r15_network.node[17].core_layer 	data[17] 	8610
scalar tree_4_3_u04_r15_network.node[17].content_store 	p_hit[17] 	0.29805967715637
scalar tree_4_3_u04_r15_network.node[17].content_store 	hits[17] 	3656
scalar tree_4_3_u04_r15_network.node[17].content_store 	misses[17] 	8610
scalar tree_4_3_u04_r15_network.node[17].content_store 	decision_yes[17] 	24
scalar tree_4_3_u04_r15_network.node[17].content_store 	decision_no[17] 	8586
scalar tree_4_3_u04_r15_network.node[17].content_store 	decision_ratio[17] 	0.002787456445993
scalar tree_4_3_u04_r15_network.node[18].core_layer 	interests[18] 	12633
scalar tree_4_3_u04_r15_network.node[18].core_layer 	data[18] 	8965
scalar tree_4_3_u04_r15_network.node[18].content_store 	p_hit[18] 	0.29035066888308
scalar tree_4_3_u04_r15_network.node[18].content_store 	hits[18] 	3668
scalar tree_4_3_u04_r15_network.node[18].content_store 	misses[18] 	8965
scalar tree_4_3_u04_r15_network.node[18].content_store 	decision_yes[18] 	25
scalar tree_4_3_u04_r15_network.node[18].content_store 	decision_no[18] 	8940
scalar tree_4_3_u04_r15_network.node[18].content_store 	decision_ratio[18] 	0.0027886224205243
scalar tree_4_3_u04_r15_network.node[19].core_layer 	interests[19] 	12719
scalar tree_4_3_u04_r15_network.node[19].core_layer 	data[19] 	8691
scalar tree_4_3_u04_r15_network.node[19].content_store 	p_hit[19] 	0.31669156380219
scalar tree_4_3_u04_r15_network.node[19].content_store 	hits[19] 	4028
scalar tree_4_3_u04_r15_network.node[19].content_store 	misses[19] 	8691
scalar tree_4_3_u04_r15_network.node[19].content_store 	decision_yes[19] 	21
scalar tree_4_3_u04_r15_network.node[19].content_store 	decision_no[19] 	8670
scalar tree_4_3_u04_r15_network.node[19].content_store 	decision_ratio[19] 	0.0024162927166034
scalar tree_4_3_u04_r15_network.node[20].core_layer 	interests[20] 	12250
scalar tree_4_3_u04_r15_network.node[20].core_layer 	data[20] 	8691
scalar tree_4_3_u04_r15_network.node[20].content_store 	p_hit[20] 	0.2905306122449
scalar tree_4_3_u04_r15_network.node[20].content_store 	hits[20] 	3559
scalar tree_4_3_u04_r15_network.node[20].content_store 	misses[20] 	8691
scalar tree_4_3_u04_r15_network.node[20].content_store 	decision_yes[20] 	22
scalar tree_4_3_u04_r15_network.node[20].content_store 	decision_no[20] 	8669
scalar tree_4_3_u04_r15_network.node[20].content_store 	decision_ratio[20] 	0.0025313542745369
scalar tree_4_3_u04_r15_network.node[21].core_layer 	interests[21] 	12349
scalar tree_4_3_u04_r15_network.node[21].core_layer 	data[21] 	8749
scalar tree_4_3_u04_r15_network.node[21].content_store 	p_hit[21] 	0.29152158069479
scalar tree_4_3_u04_r15_network.node[21].content_store 	hits[21] 	3600
scalar tree_4_3_u04_r15_network.node[21].content_store 	misses[21] 	8749
scalar tree_4_3_u04_r15_network.node[21].content_store 	decision_yes[21] 	17
scalar tree_4_3_u04_r15_network.node[21].content_store 	decision_no[21] 	8732
scalar tree_4_3_u04_r15_network.node[21].content_store 	decision_ratio[21] 	0.0019430792090525
scalar tree_4_3_u04_r15_network.node[22].core_layer 	interests[22] 	12634
scalar tree_4_3_u04_r15_network.node[22].core_layer 	data[22] 	8863
scalar tree_4_3_u04_r15_network.node[22].content_store 	p_hit[22] 	0.29848029127751
scalar tree_4_3_u04_r15_network.node[22].content_store 	hits[22] 	3771
scalar tree_4_3_u04_r15_network.node[22].content_store 	misses[22] 	8863
scalar tree_4_3_u04_r15_network.node[22].content_store 	decision_yes[22] 	22
scalar tree_4_3_u04_r15_network.node[22].content_store 	decision_no[22] 	8841
scalar tree_4_3_u04_r15_network.node[22].content_store 	decision_ratio[22] 	0.0024822294933995
scalar tree_4_3_u04_r15_network.node[23].core_layer 	interests[23] 	12410
scalar tree_4_3_u04_r15_network.node[23].core_layer 	data[23] 	8696
scalar tree_4_3_u04_r15_network.node[23].content_store 	p_hit[23] 	0.29927477840451
scalar tree_4_3_u04_r15_network.node[23].content_store 	hits[23] 	3714
scalar tree_4_3_u04_r15_network.node[23].content_store 	misses[23] 	8696
scalar tree_4_3_u04_r15_network.node[23].content_store 	decision_yes[23] 	18
scalar tree_4_3_u04_r15_network.node[23].content_store 	decision_no[23] 	8678
scalar tree_4_3_u04_r15_network.node[23].content_store 	decision_ratio[23] 	0.0020699172033119
scalar tree_4_3_u04_r15_network.node[24].core_layer 	interests[24] 	12550
scalar tree_4_3_u04_r15_network.node[24].core_layer 	data[24] 	8632
scalar tree_4_3_u04_r15_network.node[24].content_store 	p_hit[24] 	0.31219123505976
scalar tree_4_3_u04_r15_network.node[24].content_store 	hits[24] 	3918
scalar tree_4_3_u04_r15_network.node[24].content_store 	misses[24] 	8632
scalar tree_4_3_u04_r15_network.node[24].content_store 	decision_yes[24] 	22
scalar tree_4_3_u04_r15_network.node[24].content_store 	decision_no[24] 	8610
scalar tree_4_3_u04_r15_network.node[24].content_store 	decision_ratio[24] 	0.002548656163114
scalar tree_4_3_u04_r15_network.node[25].core_layer 	interests[25] 	12906
scalar tree_4_3_u04_r15_network.node[25].core_layer 	data[25] 	8838
scalar tree_4_3_u04_r15_network.node[25].content_store 	p_hit[25] 	0.31520223152022
scalar tree_4_3_u04_r15_network.node[25].content_store 	hits[25] 	4068
scalar tree_4_3_u04_r15_network.node[25].content_store 	misses[25] 	8838
scalar tree_4_3_u04_r15_network.node[25].content_store 	decision_yes[25] 	22
scalar tree_4_3_u04_r15_network.node[25].content_store 	decision_no[25] 	8816
scalar tree_4_3_u04_r15_network.node[25].content_store 	decision_ratio[25] 	0.0024892509617561
scalar tree_4_3_u04_r15_network.node[26].core_layer 	interests[26] 	12071
scalar tree_4_3_u04_r15_network.node[26].core_layer 	data[26] 	8562
scalar tree_4_3_u04_r15_network.node[26].content_store 	p_hit[26] 	0.29069671112584
scalar tree_4_3_u04_r15_network.node[26].content_store 	hits[26] 	3509
scalar tree_4_3_u04_r15_network.node[26].content_store 	misses[26] 	8562
scalar tree_4_3_u04_r15_network.node[26].content_store 	decision_yes[26] 	24
scalar tree_4_3_u04_r15_network.node[26].content_store 	decision_no[26] 	8538
scalar tree_4_3_u04_r15_network.node[26].content_store 	decision_ratio[26] 	0.0028030833917309
scalar tree_4_3_u04_r15_network.node[27].core_layer 	interests[27] 	12146
scalar tree_4_3_u04_r15_network.node[27].core_layer 	data[27] 	8499
scalar tree_4_3_u04_r15_network.node[27].content_store 	p_hit[27] 	0.3002634612218
scalar tree_4_3_u04_r15_network.node[27].content_store 	hits[27] 	3647
scalar tree_4_3_u04_r15_network.node[27].content_store 	misses[27] 	8499
scalar tree_4_3_u04_r15_network.node[27].content_store 	decision_yes[27] 	22
scalar tree_4_3_u04_r15_network.node[27].content_store 	decision_no[27] 	8477
scalar tree_4_3_u04_r15_network.node[27].content_store 	decision_ratio[27] 	0.0025885398282151
scalar tree_4_3_u04_r15_network.node[28].core_layer 	interests[28] 	12906
scalar tree_4_3_u04_r15_network.node[28].core_layer 	data[28] 	8891
scalar tree_4_3_u04_r15_network.node[28].content_store 	p_hit[28] 	0.31109561444289
scalar tree_4_3_u04_r15_network.node[28].content_store 	hits[28] 	4015
scalar tree_4_3_u04_r15_network.node[28].content_store 	misses[28] 	8891
scalar tree_4_3_u04_r15_network.node[28].content_store 	decision_yes[28] 	27
scalar tree_4_3_u04_r15_network.node[28].content_store 	decision_no[28] 	8864
scalar tree_4_3_u04_r15_network.node[28].content_store 	decision_ratio[28] 	0.0030367787650433
scalar tree_4_3_u04_r15_network.node[29].core_layer 	interests[29] 	12230
scalar tree_4_3_u04_r15_network.node[29].core_layer 	data[29] 	8631
scalar tree_4_3_u04_r15_network.node[29].content_store 	p_hit[29] 	0.29427636958299
scalar tree_4_3_u04_r15_network.node[29].content_store 	hits[29] 	3599
scalar tree_4_3_u04_r15_network.node[29].content_store 	misses[29] 	8631
scalar tree_4_3_u04_r15_network.node[29].content_store 	decision_yes[29] 	19
scalar tree_4_3_u04_r15_network.node[29].content_store 	decision_no[29] 	8612
scalar tree_4_3_u04_r15_network.node[29].content_store 	decision_ratio[29] 	0.0022013671648708
scalar tree_4_3_u04_r15_network.node[30].core_layer 	interests[30] 	12385
scalar tree_4_3_u04_r15_network.node[30].core_layer 	data[30] 	8784
scalar tree_4_3_u04_r15_network.node[30].content_store 	p_hit[30] 	0.29075494549859
scalar tree_4_3_u04_r15_network.node[30].content_store 	hits[30] 	3601
scalar tree_4_3_u04_r15_network.node[30].content_store 	misses[30] 	8784
scalar tree_4_3_u04_r15_network.node[30].content_store 	decision_yes[30] 	22
scalar tree_4_3_u04_r15_network.node[30].content_store 	decision_no[30] 	8762
scalar tree_4_3_u04_r15_network.node[30].content_store 	decision_ratio[30] 	0.0025045537340619
scalar tree_4_3_u04_r15_network.node[31].core_layer 	interests[31] 	12407
scalar tree_4_3_u04_r15_network.node[31].core_layer 	data[31] 	8713
scalar tree_4_3_u04_r15_network.node[31].content_store 	p_hit[31] 	0.29765454985089
scalar tree_4_3_u04_r15_network.node[31].content_store 	hits[31] 	3693
scalar tree_4_3_u04_r15_network.node[31].content_store 	misses[31] 	8714
scalar tree_4_3_u04_r15_network.node[31].content_store 	decision_yes[31] 	25
scalar tree_4_3_u04_r15_network.node[31].content_store 	decision_no[31] 	8688
scalar tree_4_3_u04_r15_network.node[31].content_store 	decision_ratio[31] 	0.0028692757947894
scalar tree_4_3_u04_r15_network.node[32].core_layer 	interests[32] 	13162
scalar tree_4_3_u04_r15_network.node[32].core_layer 	data[32] 	9036
scalar tree_4_3_u04_r15_network.node[32].content_store 	p_hit[32] 	0.31347819480322
scalar tree_4_3_u04_r15_network.node[32].content_store 	hits[32] 	4126
scalar tree_4_3_u04_r15_network.node[32].content_store 	misses[32] 	9036
scalar tree_4_3_u04_r15_network.node[32].content_store 	decision_yes[32] 	31
scalar tree_4_3_u04_r15_network.node[32].content_store 	decision_no[32] 	9005
scalar tree_4_3_u04_r15_network.node[32].content_store 	decision_ratio[32] 	0.0034307215582116
scalar tree_4_3_u04_r15_network.node[33].core_layer 	interests[33] 	12308
scalar tree_4_3_u04_r15_network.node[33].core_layer 	data[33] 	8637
scalar tree_4_3_u04_r15_network.node[33].content_store 	p_hit[33] 	0.29826129346766
scalar tree_4_3_u04_r15_network.node[33].content_store 	hits[33] 	3671
scalar tree_4_3_u04_r15_network.node[33].content_store 	misses[33] 	8637
scalar tree_4_3_u04_r15_network.node[33].content_store 	decision_yes[33] 	21
scalar tree_4_3_u04_r15_network.node[33].content_store 	decision_no[33] 	8616
scalar tree_4_3_u04_r15_network.node[33].content_store 	decision_ratio[33] 	0.0024313997915943
scalar tree_4_3_u04_r15_network.node[34].core_layer 	interests[34] 	13011
scalar tree_4_3_u04_r15_network.node[34].core_layer 	data[34] 	8786
scalar tree_4_3_u04_r15_network.node[34].content_store 	p_hit[34] 	0.32472523249558
scalar tree_4_3_u04_r15_network.node[34].content_store 	hits[34] 	4225
scalar tree_4_3_u04_r15_network.node[34].content_store 	misses[34] 	8786
scalar tree_4_3_u04_r15_network.node[34].content_store 	decision_yes[34] 	16
scalar tree_4_3_u04_r15_network.node[34].content_store 	decision_no[34] 	8770
scalar tree_4_3_u04_r15_network.node[34].content_store 	decision_ratio[34] 	0.0018210789893012
scalar tree_4_3_u04_r15_network.node[35].core_layer 	interests[35] 	12582
scalar tree_4_3_u04_r15_network.node[35].core_layer 	data[35] 	8724
scalar tree_4_3_u04_r15_network.node[35].content_store 	p_hit[35] 	0.30662851692895
scalar tree_4_3_u04_r15_network.node[35].content_store 	hits[35] 	3858
scalar tree_4_3_u04_r15_network.node[35].content_store 	misses[35] 	8724
scalar tree_4_3_u04_r15_network.node[35].content_store 	decision_yes[35] 	18
scalar tree_4_3_u04_r15_network.node[35].content_store 	decision_no[35] 	8706
scalar tree_4_3_u04_r15_network.node[35].content_store 	decision_ratio[35] 	0.0020632737276479
scalar tree_4_3_u04_r15_network.node[36].core_layer 	interests[36] 	12479
scalar tree_4_3_u04_r15_network.node[36].core_layer 	data[36] 	8757
scalar tree_4_3_u04_r15_network.node[36].content_store 	p_hit[36] 	0.2981809439859
scalar tree_4_3_u04_r15_network.node[36].content_store 	hits[36] 	3721
scalar tree_4_3_u04_r15_network.node[36].content_store 	misses[36] 	8758
scalar tree_4_3_u04_r15_network.node[36].content_store 	decision_yes[36] 	26
scalar tree_4_3_u04_r15_network.node[36].content_store 	decision_no[36] 	8731
scalar tree_4_3_u04_r15_network.node[36].content_store 	decision_ratio[36] 	0.0029690533287656
scalar tree_4_3_u04_r15_network.node[37].core_layer 	interests[37] 	12797
scalar tree_4_3_u04_r15_network.node[37].core_layer 	data[37] 	8794
scalar tree_4_3_u04_r15_network.node[37].content_store 	p_hit[37] 	0.31288583261702
scalar tree_4_3_u04_r15_network.node[37].content_store 	hits[37] 	4004
scalar tree_4_3_u04_r15_network.node[37].content_store 	misses[37] 	8793
scalar tree_4_3_u04_r15_network.node[37].content_store 	decision_yes[37] 	24
scalar tree_4_3_u04_r15_network.node[37].content_store 	decision_no[37] 	8770
scalar tree_4_3_u04_r15_network.node[37].content_store 	decision_ratio[37] 	0.0027291335001137
scalar tree_4_3_u04_r15_network.node[38].core_layer 	interests[38] 	12645
scalar tree_4_3_u04_r15_network.node[38].core_layer 	data[38] 	8690
scalar tree_4_3_u04_r15_network.node[38].content_store 	p_hit[38] 	0.31277184657968
scalar tree_4_3_u04_r15_network.node[38].content_store 	hits[38] 	3955
scalar tree_4_3_u04_r15_network.node[38].content_store 	misses[38] 	8690
scalar tree_4_3_u04_r15_network.node[38].content_store 	decision_yes[38] 	17
scalar tree_4_3_u04_r15_network.node[38].content_store 	decision_no[38] 	8673
scalar tree_4_3_u04_r15_network.node[38].content_store 	decision_ratio[38] 	0.0019562715765247
scalar tree_4_3_u04_r15_network.node[39].core_layer 	interests[39] 	12260
scalar tree_4_3_u04_r15_network.node[39].core_layer 	data[39] 	8751
scalar tree_4_3_u04_r15_network.node[39].content_store 	p_hit[39] 	0.28621533442088
scalar tree_4_3_u04_r15_network.node[39].content_store 	hits[39] 	3509
scalar tree_4_3_u04_r15_network.node[39].content_store 	misses[39] 	8751
scalar tree_4_3_u04_r15_network.node[39].content_store 	decision_yes[39] 	20
scalar tree_4_3_u04_r15_network.node[39].content_store 	decision_no[39] 	8731
scalar tree_4_3_u04_r15_network.node[39].content_store 	decision_ratio[39] 	0.0022854530910753
scalar tree_4_3_u04_r15_network.client[13] 	hdistance[13] 	2.6445914266578
scalar tree_4_3_u04_r15_network.client[13] 	downloads[13] 	11944
scalar tree_4_3_u04_r15_network.client[13] 	avg_time[13] 	0.004109675532
scalar tree_4_3_u04_r15_network.client[14] 	hdistance[14] 	2.6494093993466
scalar tree_4_3_u04_r15_network.client[14] 	downloads[14] 	11937
scalar tree_4_3_u04_r15_network.client[14] 	avg_time[14] 	0.004114598678
scalar tree_4_3_u04_r15_network.client[15] 	hdistance[15] 	2.6389996676637
scalar tree_4_3_u04_r15_network.client[15] 	downloads[15] 	12036
scalar tree_4_3_u04_r15_network.client[15] 	avg_time[15] 	0.004100362563
scalar tree_4_3_u04_r15_network.client[16] 	hdistance[16] 	2.5994668443852
scalar tree_4_3_u04_r15_network.client[16] 	downloads[16] 	12004
scalar tree_4_3_u04_r15_network.client[16] 	avg_time[16] 	0.004081136619
scalar tree_4_3_u04_r15_network.client[17] 	hdistance[17] 	2.6319361954862
scalar tree_4_3_u04_r15_network.client[17] 	downloads[17] 	11786
scalar tree_4_3_u04_r15_network.client[17] 	avg_time[17] 	0.004155775084
scalar tree_4_3_u04_r15_network.client[18] 	hdistance[18] 	2.6718827620467
scalar tree_4_3_u04_r15_network.client[18] 	downloads[18] 	12078
scalar tree_4_3_u04_r15_network.client[18] 	avg_time[18] 	0.004216754695
scalar tree_4_3_u04_r15_network.client[19] 	hdistance[19] 	2.5940943888281
scalar tree_4_3_u04_r15_network.client[19] 	downloads[19] 	11887
scalar tree_4_3_u04_r15_network.client[19] 	avg_time[19] 	0.00401093333
scalar tree_4_3_u04_r15_network.client[20] 	hdistance[20] 	2.650488680979
scalar tree_4_3_u04_r15_network.client[20] 	downloads[20] 	11971
scalar tree_4_3_u04_r15_network.client[20] 	avg_time[20] 	0.004123127954
scalar tree_4_3_u04_r15_network.client[21] 	hdistance[21] 	2.656642020437
scalar tree_4_3_u04_r15_network.client[21] 	downloads[21] 	12037
scalar tree_4_3_u04_r15_network.client[21] 	avg_time[21] 	0.004133579681
scalar tree_4_3_u04_r15_network.client[22] 	hdistance[22] 	2.6299329858526
scalar tree_4_3_u04_r15_network.client[22] 	downloads[22] 	12087
scalar tree_4_3_u04_r15_network.client[22] 	avg_time[22] 	0.004125573202
scalar tree_4_3_u04_r15_network.client[23] 	hdistance[23] 	2.6401150008456
scalar tree_4_3_u04_r15_network.client[23] 	downloads[23] 	11826
scalar tree_4_3_u04_r15_network.client[23] 	avg_time[23] 	0.004150851078
scalar tree_4_3_u04_r15_network.client[24] 	hdistance[24] 	2.5927260538004
scalar tree_4_3_u04_r15_network.client[24] 	downloads[24] 	11933
scalar tree_4_3_u04_r15_network.client[24] 	avg_time[24] 	0.004069588743
scalar tree_4_3_u04_r15_network.client[25] 	hdistance[25] 	2.6014747779454
scalar tree_4_3_u04_r15_network.client[25] 	downloads[25] 	11934
scalar tree_4_3_u04_r15_network.client[25] 	avg_time[25] 	0.004064853717
scalar tree_4_3_u04_r15_network.client[26] 	hdistance[26] 	2.650162199078
scalar tree_4_3_u04_r15_network.client[26] 	downloads[26] 	11714
scalar tree_4_3_u04_r15_network.client[26] 	avg_time[26] 	0.00415929364
scalar tree_4_3_u04_r15_network.client[27] 	hdistance[27] 	2.6103523857697
scalar tree_4_3_u04_r15_network.client[27] 	downloads[27] 	11862
scalar tree_4_3_u04_r15_network.client[27] 	avg_time[27] 	0.004100317408
scalar tree_4_3_u04_r15_network.client[28] 	hdistance[28] 	2.618148241417
scalar tree_4_3_u04_r15_network.client[28] 	downloads[28] 	11913
scalar tree_4_3_u04_r15_network.client[28] 	avg_time[28] 	0.004094683506
scalar tree_4_3_u04_r15_network.client[29] 	hdistance[29] 	2.6424581005587
scalar tree_4_3_u04_r15_network.client[29] 	downloads[29] 	11814
scalar tree_4_3_u04_r15_network.client[29] 	avg_time[29] 	0.004158453112
scalar tree_4_3_u04_r15_network.client[30] 	hdistance[30] 	2.6511318242344
scalar tree_4_3_u04_r15_network.client[30] 	downloads[30] 	12016
scalar tree_4_3_u04_r15_network.client[30] 	avg_time[30] 	0.004164943703
scalar tree_4_3_u04_r15_network.client[31] 	hdistance[31] 	2.6260818908123
scalar tree_4_3_u04_r15_network.client[31] 	downloads[31] 	12016
scalar tree_4_3_u04_r15_network.client[31] 	avg_time[31] 	0.004080722711
scalar tree_4_3_u04_r15_network.client[32] 	hdistance[32] 	2.5770780235139
scalar tree_4_3_u04_r15_network.client[32] 	downloads[32] 	12163
scalar tree_4_3_u04_r15_network.client[32] 	avg_time[32] 	0.004043571717
scalar tree_4_3_u04_r15_network.client[33] 	hdistance[33] 	2.6110271903323
scalar tree_4_3_u04_r15_network.client[33] 	downloads[33] 	11916
scalar tree_4_3_u04_r15_network.client[33] 	avg_time[33] 	0.00406193053
scalar tree_4_3_u04_r15_network.client[34] 	hdistance[34] 	2.5331898692269
scalar tree_4_3_u04_r15_network.client[34] 	downloads[34] 	12082
scalar tree_4_3_u04_r15_network.client[34] 	avg_time[34] 	0.003971521757
scalar tree_4_3_u04_r15_network.client[35] 	hdistance[35] 	2.5951048366887
scalar tree_4_3_u04_r15_network.client[35] 	downloads[35] 	11971
scalar tree_4_3_u04_r15_network.client[35] 	avg_time[35] 	0.00409038211
scalar tree_4_3_u04_r15_network.client[36] 	hdistance[36] 	2.6196210526316
scalar tree_4_3_u04_r15_network.client[36] 	downloads[36] 	11875
scalar tree_4_3_u04_r15_network.client[36] 	avg_time[36] 	0.004129512832
scalar tree_4_3_u04_r15_network.client[37] 	hdistance[37] 	2.56
scalar tree_4_3_u04_r15_network.client[37] 	downloads[37] 	12125
scalar tree_4_3_u04_r15_network.client[37] 	avg_time[37] 	0.003962553663
scalar tree_4_3_u04_r15_network.client[38] 	hdistance[38] 	2.5420850066934
scalar tree_4_3_u04_r15_network.client[38] 	downloads[38] 	11952
scalar tree_4_3_u04_r15_network.client[38] 	avg_time[38] 	0.003982259404
scalar tree_4_3_u04_r15_network.client[39] 	hdistance[39] 	2.645795473319
scalar tree_4_3_u04_r15_network.client[39] 	downloads[39] 	12106
scalar tree_4_3_u04_r15_network.client[39] 	avg_time[39] 	0.004126876191
