version 2
run General-81-20160902-20:33:21-4279
attr a 0.9
attr cd ffc0.2
attr configname General
attr cr lru
attr datetime 20160902-20:33:21
attr experiment General
attr fsize 1
attr inifile hw5115/scenario_Y/omnetp.ini
attr iterationvars "$name=tree_4_3, $un=04, $rep=2, $cd=ffc0.2, $cr=lru, $fsize=1, $a=0.9, $sl=nrr, $ttl=1000, $variance=0.05"
attr iterationvars2 "$name=tree_4_3, $un=04, $rep=2, $cd=ffc0.2, $cr=lru, $fsize=1, $a=0.9, $sl=nrr, $ttl=1000, $variance=0.05, $repetition=0"
attr measurement "$name=tree_4_3, $un=04, $rep=2, $cd=ffc0.2, $cr=lru, $fsize=1, $a=0.9, $sl=nrr, $ttl=1000, $variance=0.05"
attr name tree_4_3
attr network networks.${name}_u${un}_r${rep}_network
attr processid 4279
attr rep 2
attr repetition 0
attr replication #0
attr resultdir results
attr runnumber 81
attr seedset 2
attr sl nrr
attr ttl 1000
attr un 04
attr variance 0.05

scalar . 	a 	0.9
scalar . 	fsize 	1
scalar . 	rep 	2
scalar . 	ttl 	1000
scalar . 	un 	04
scalar . 	variance 	0.05
scalar tree_4_3_u04_r2_network.content_distribution 	repo-0 	0
scalar tree_4_3_u04_r2_network.content_distribution 	client-0 	13
scalar tree_4_3_u04_r2_network.content_distribution 	client-1 	14
scalar tree_4_3_u04_r2_network.content_distribution 	client-2 	15
scalar tree_4_3_u04_r2_network.content_distribution 	client-3 	16
scalar tree_4_3_u04_r2_network.content_distribution 	client-4 	17
scalar tree_4_3_u04_r2_network.content_distribution 	client-5 	18
scalar tree_4_3_u04_r2_network.content_distribution 	client-6 	19
scalar tree_4_3_u04_r2_network.content_distribution 	client-7 	20
scalar tree_4_3_u04_r2_network.content_distribution 	client-8 	21
scalar tree_4_3_u04_r2_network.content_distribution 	client-9 	22
scalar tree_4_3_u04_r2_network.content_distribution 	client-10 	23
scalar tree_4_3_u04_r2_network.content_distribution 	client-11 	24
scalar tree_4_3_u04_r2_network.content_distribution 	client-12 	25
scalar tree_4_3_u04_r2_network.content_distribution 	client-13 	26
scalar tree_4_3_u04_r2_network.content_distribution 	client-14 	27
scalar tree_4_3_u04_r2_network.content_distribution 	client-15 	28
scalar tree_4_3_u04_r2_network.content_distribution 	client-16 	29
scalar tree_4_3_u04_r2_network.content_distribution 	client-17 	30
scalar tree_4_3_u04_r2_network.content_distribution 	client-18 	31
scalar tree_4_3_u04_r2_network.content_distribution 	client-19 	32
scalar tree_4_3_u04_r2_network.content_distribution 	client-20 	33
scalar tree_4_3_u04_r2_network.content_distribution 	client-21 	34
scalar tree_4_3_u04_r2_network.content_distribution 	client-22 	35
scalar tree_4_3_u04_r2_network.content_distribution 	client-23 	36
scalar tree_4_3_u04_r2_network.content_distribution 	client-24 	37
scalar tree_4_3_u04_r2_network.content_distribution 	client-25 	38
scalar tree_4_3_u04_r2_network.content_distribution 	client-26 	39
scalar tree_4_3_u04_r2_network.content_distribution 	repo-0_card 	100000
scalar tree_4_3_u04_r2_network.content_distribution 	repo-0_price 	0
scalar tree_4_3_u04_r2_network.statistics 	stabilization_time 	2156.6
scalar tree_4_3_u04_r2_network.statistics 	p_hit 	0.22983533295746
scalar tree_4_3_u04_r2_network.statistics 	interests 	24605.2
scalar tree_4_3_u04_r2_network.statistics 	data 	16512.575
scalar tree_4_3_u04_r2_network.statistics 	hdistance 	2.6168044784338
scalar tree_4_3_u04_r2_network.statistics 	avg_time 	0.004080762886
scalar tree_4_3_u04_r2_network.statistics 	downloads 	323702
scalar tree_4_3_u04_r2_network.statistics 	total_cost 	0
scalar tree_4_3_u04_r2_network.statistics 	total_replicas 	100000
scalar tree_4_3_u04_r2_network.statistics 	inner_hit 	0.42355623381999
scalar tree_4_3_u04_r2_network.node[0].core_layer 	interests[0] 	190119
scalar tree_4_3_u04_r2_network.node[0].core_layer 	repo_load[0] 	186596
scalar tree_4_3_u04_r2_network.node[0].core_layer 	data[0] 	0
scalar tree_4_3_u04_r2_network.node[0].core_layer 	repo_int[0] 	186596
scalar tree_4_3_u04_r2_network.node[0].content_store 	p_hit[0] 	0.018530499318848
scalar tree_4_3_u04_r2_network.node[0].content_store 	hits[0] 	3523
scalar tree_4_3_u04_r2_network.node[0].content_store 	misses[0] 	186596
scalar tree_4_3_u04_r2_network.node[0].content_store 	decision_yes[0] 	149
scalar tree_4_3_u04_r2_network.node[0].content_store 	decision_no[0] 	186447
scalar tree_4_3_u04_r2_network.node[0].content_store 	decision_ratio[0] 	0.0007985165812772
scalar tree_4_3_u04_r2_network.node[1].core_layer 	interests[1] 	69608
scalar tree_4_3_u04_r2_network.node[1].core_layer 	data[1] 	67405
scalar tree_4_3_u04_r2_network.node[1].content_store 	p_hit[1] 	0.03164866107344
scalar tree_4_3_u04_r2_network.node[1].content_store 	hits[1] 	2203
scalar tree_4_3_u04_r2_network.node[1].content_store 	misses[1] 	67405
scalar tree_4_3_u04_r2_network.node[1].content_store 	decision_yes[1] 	91
scalar tree_4_3_u04_r2_network.node[1].content_store 	decision_no[1] 	67314
scalar tree_4_3_u04_r2_network.node[1].content_store 	decision_ratio[1] 	0.0013500482160077
scalar tree_4_3_u04_r2_network.node[2].core_layer 	interests[2] 	96745
scalar tree_4_3_u04_r2_network.node[2].core_layer 	data[2] 	94154
scalar tree_4_3_u04_r2_network.node[2].content_store 	p_hit[2] 	0.026771409375162
scalar tree_4_3_u04_r2_network.node[2].content_store 	hits[2] 	2590
scalar tree_4_3_u04_r2_network.node[2].content_store 	misses[2] 	94155
scalar tree_4_3_u04_r2_network.node[2].content_store 	decision_yes[2] 	87
scalar tree_4_3_u04_r2_network.node[2].content_store 	decision_no[2] 	94067
scalar tree_4_3_u04_r2_network.node[2].content_store 	decision_ratio[2] 	0.00092401809800964
scalar tree_4_3_u04_r2_network.node[3].core_layer 	interests[3] 	42588
scalar tree_4_3_u04_r2_network.node[3].core_layer 	data[3] 	39413
scalar tree_4_3_u04_r2_network.node[3].content_store 	p_hit[3] 	0.074551516859209
scalar tree_4_3_u04_r2_network.node[3].content_store 	hits[3] 	3175
scalar tree_4_3_u04_r2_network.node[3].content_store 	misses[3] 	39413
scalar tree_4_3_u04_r2_network.node[3].content_store 	decision_yes[3] 	70
scalar tree_4_3_u04_r2_network.node[3].content_store 	decision_no[3] 	39343
scalar tree_4_3_u04_r2_network.node[3].content_store 	decision_ratio[3] 	0.0017760637353158
scalar tree_4_3_u04_r2_network.node[4].core_layer 	interests[4] 	34926
scalar tree_4_3_u04_r2_network.node[4].core_layer 	data[4] 	32434
scalar tree_4_3_u04_r2_network.node[4].content_store 	p_hit[4] 	0.07132222413102
scalar tree_4_3_u04_r2_network.node[4].content_store 	hits[4] 	2491
scalar tree_4_3_u04_r2_network.node[4].content_store 	misses[4] 	32435
scalar tree_4_3_u04_r2_network.node[4].content_store 	decision_yes[4] 	71
scalar tree_4_3_u04_r2_network.node[4].content_store 	decision_no[4] 	32363
scalar tree_4_3_u04_r2_network.node[4].content_store 	decision_ratio[4] 	0.0021890608620583
scalar tree_4_3_u04_r2_network.node[5].core_layer 	interests[5] 	28058
scalar tree_4_3_u04_r2_network.node[5].core_layer 	data[5] 	24906
scalar tree_4_3_u04_r2_network.node[5].content_store 	p_hit[5] 	0.1123387269228
scalar tree_4_3_u04_r2_network.node[5].content_store 	hits[5] 	3152
scalar tree_4_3_u04_r2_network.node[5].content_store 	misses[5] 	24906
scalar tree_4_3_u04_r2_network.node[5].content_store 	decision_yes[5] 	56
scalar tree_4_3_u04_r2_network.node[5].content_store 	decision_no[5] 	24850
scalar tree_4_3_u04_r2_network.node[5].content_store 	decision_ratio[5] 	0.0022484541877459
scalar tree_4_3_u04_r2_network.node[6].core_layer 	interests[6] 	18818
scalar tree_4_3_u04_r2_network.node[6].core_layer 	data[6] 	16940
scalar tree_4_3_u04_r2_network.node[6].content_store 	p_hit[6] 	0.099851206291848
scalar tree_4_3_u04_r2_network.node[6].content_store 	hits[6] 	1879
scalar tree_4_3_u04_r2_network.node[6].content_store 	misses[6] 	16939
scalar tree_4_3_u04_r2_network.node[6].content_store 	decision_yes[6] 	33
scalar tree_4_3_u04_r2_network.node[6].content_store 	decision_no[6] 	16907
scalar tree_4_3_u04_r2_network.node[6].content_store 	decision_ratio[6] 	0.0019480519480519
scalar tree_4_3_u04_r2_network.node[7].core_layer 	interests[7] 	34507
scalar tree_4_3_u04_r2_network.node[7].core_layer 	data[7] 	31949
scalar tree_4_3_u04_r2_network.node[7].content_store 	p_hit[7] 	0.074129886689657
scalar tree_4_3_u04_r2_network.node[7].content_store 	hits[7] 	2558
scalar tree_4_3_u04_r2_network.node[7].content_store 	misses[7] 	31949
scalar tree_4_3_u04_r2_network.node[7].content_store 	decision_yes[7] 	54
scalar tree_4_3_u04_r2_network.node[7].content_store 	decision_no[7] 	31895
scalar tree_4_3_u04_r2_network.node[7].content_store 	decision_ratio[7] 	0.0016901937462831
scalar tree_4_3_u04_r2_network.node[8].core_layer 	interests[8] 	26661
scalar tree_4_3_u04_r2_network.node[8].core_layer 	data[8] 	24345
scalar tree_4_3_u04_r2_network.node[8].content_store 	p_hit[8] 	0.086868459547654
scalar tree_4_3_u04_r2_network.node[8].content_store 	hits[8] 	2316
scalar tree_4_3_u04_r2_network.node[8].content_store 	misses[8] 	24345
scalar tree_4_3_u04_r2_network.node[8].content_store 	decision_yes[8] 	32
scalar tree_4_3_u04_r2_network.node[8].content_store 	decision_no[8] 	24313
scalar tree_4_3_u04_r2_network.node[8].content_store 	decision_ratio[8] 	0.001314438283015
scalar tree_4_3_u04_r2_network.node[9].core_layer 	interests[9] 	21448
scalar tree_4_3_u04_r2_network.node[9].core_layer 	data[9] 	18201
scalar tree_4_3_u04_r2_network.node[9].content_store 	p_hit[9] 	0.15134278254383
scalar tree_4_3_u04_r2_network.node[9].content_store 	hits[9] 	3246
scalar tree_4_3_u04_r2_network.node[9].content_store 	misses[9] 	18202
scalar tree_4_3_u04_r2_network.node[9].content_store 	decision_yes[9] 	55
scalar tree_4_3_u04_r2_network.node[9].content_store 	decision_no[9] 	18146
scalar tree_4_3_u04_r2_network.node[9].content_store 	decision_ratio[9] 	0.0030218119883523
scalar tree_4_3_u04_r2_network.node[10].core_layer 	interests[10] 	19417
scalar tree_4_3_u04_r2_network.node[10].core_layer 	data[10] 	17250
scalar tree_4_3_u04_r2_network.node[10].content_store 	p_hit[10] 	0.11160323427924
scalar tree_4_3_u04_r2_network.node[10].content_store 	hits[10] 	2167
scalar tree_4_3_u04_r2_network.node[10].content_store 	misses[10] 	17250
scalar tree_4_3_u04_r2_network.node[10].content_store 	decision_yes[10] 	44
scalar tree_4_3_u04_r2_network.node[10].content_store 	decision_no[10] 	17206
scalar tree_4_3_u04_r2_network.node[10].content_store 	decision_ratio[10] 	0.0025507246376812
scalar tree_4_3_u04_r2_network.node[11].core_layer 	interests[11] 	35306
scalar tree_4_3_u04_r2_network.node[11].core_layer 	data[11] 	32269
scalar tree_4_3_u04_r2_network.node[11].content_store 	p_hit[11] 	0.086019373477596
scalar tree_4_3_u04_r2_network.node[11].content_store 	hits[11] 	3037
scalar tree_4_3_u04_r2_network.node[11].content_store 	misses[11] 	32269
scalar tree_4_3_u04_r2_network.node[11].content_store 	decision_yes[11] 	57
scalar tree_4_3_u04_r2_network.node[11].content_store 	decision_no[11] 	32212
scalar tree_4_3_u04_r2_network.node[11].content_store 	decision_ratio[11] 	0.0017664011899966
scalar tree_4_3_u04_r2_network.node[12].core_layer 	interests[12] 	27729
scalar tree_4_3_u04_r2_network.node[12].core_layer 	data[12] 	25221
scalar tree_4_3_u04_r2_network.node[12].content_store 	p_hit[12] 	0.090410761296837
scalar tree_4_3_u04_r2_network.node[12].content_store 	hits[12] 	2507
scalar tree_4_3_u04_r2_network.node[12].content_store 	misses[12] 	25222
scalar tree_4_3_u04_r2_network.node[12].content_store 	decision_yes[12] 	59
scalar tree_4_3_u04_r2_network.node[12].content_store 	decision_no[12] 	25162
scalar tree_4_3_u04_r2_network.node[12].content_store 	decision_ratio[12] 	0.0023393204075968
scalar tree_4_3_u04_r2_network.node[13].core_layer 	interests[13] 	12496
scalar tree_4_3_u04_r2_network.node[13].core_layer 	data[13] 	8785
scalar tree_4_3_u04_r2_network.node[13].content_store 	p_hit[13] 	0.29697503201024
scalar tree_4_3_u04_r2_network.node[13].content_store 	hits[13] 	3711
scalar tree_4_3_u04_r2_network.node[13].content_store 	misses[13] 	8785
scalar tree_4_3_u04_r2_network.node[13].content_store 	decision_yes[13] 	20
scalar tree_4_3_u04_r2_network.node[13].content_store 	decision_no[13] 	8765
scalar tree_4_3_u04_r2_network.node[13].content_store 	decision_ratio[13] 	0.0022766078542971
scalar tree_4_3_u04_r2_network.node[14].core_layer 	interests[14] 	12699
scalar tree_4_3_u04_r2_network.node[14].core_layer 	data[14] 	8781
scalar tree_4_3_u04_r2_network.node[14].content_store 	p_hit[14] 	0.30844948421136
scalar tree_4_3_u04_r2_network.node[14].content_store 	hits[14] 	3917
scalar tree_4_3_u04_r2_network.node[14].content_store 	misses[14] 	8782
scalar tree_4_3_u04_r2_network.node[14].content_store 	decision_yes[14] 	24
scalar tree_4_3_u04_r2_network.node[14].content_store 	decision_no[14] 	8757
scalar tree_4_3_u04_r2_network.node[14].content_store 	decision_ratio[14] 	0.0027331738981893
scalar tree_4_3_u04_r2_network.node[15].core_layer 	interests[15] 	12490
scalar tree_4_3_u04_r2_network.node[15].core_layer 	data[15] 	8938
scalar tree_4_3_u04_r2_network.node[15].content_store 	p_hit[15] 	0.28438751000801
scalar tree_4_3_u04_r2_network.node[15].content_store 	hits[15] 	3552
scalar tree_4_3_u04_r2_network.node[15].content_store 	misses[15] 	8938
scalar tree_4_3_u04_r2_network.node[15].content_store 	decision_yes[15] 	23
scalar tree_4_3_u04_r2_network.node[15].content_store 	decision_no[15] 	8915
scalar tree_4_3_u04_r2_network.node[15].content_store 	decision_ratio[15] 	0.0025732826135601
scalar tree_4_3_u04_r2_network.node[16].core_layer 	interests[16] 	12762
scalar tree_4_3_u04_r2_network.node[16].core_layer 	data[16] 	8767
scalar tree_4_3_u04_r2_network.node[16].content_store 	p_hit[16] 	0.31296035104216
scalar tree_4_3_u04_r2_network.node[16].content_store 	hits[16] 	3994
scalar tree_4_3_u04_r2_network.node[16].content_store 	misses[16] 	8768
scalar tree_4_3_u04_r2_network.node[16].content_store 	decision_yes[16] 	22
scalar tree_4_3_u04_r2_network.node[16].content_store 	decision_no[16] 	8745
scalar tree_4_3_u04_r2_network.node[16].content_store 	decision_ratio[16] 	0.0025094102885822
scalar tree_4_3_u04_r2_network.node[17].core_layer 	interests[17] 	12299
scalar tree_4_3_u04_r2_network.node[17].core_layer 	data[17] 	8652
scalar tree_4_3_u04_r2_network.node[17].content_store 	p_hit[17] 	0.2965281730222
scalar tree_4_3_u04_r2_network.node[17].content_store 	hits[17] 	3647
scalar tree_4_3_u04_r2_network.node[17].content_store 	misses[17] 	8652
scalar tree_4_3_u04_r2_network.node[17].content_store 	decision_yes[17] 	25
scalar tree_4_3_u04_r2_network.node[17].content_store 	decision_no[17] 	8627
scalar tree_4_3_u04_r2_network.node[17].content_store 	decision_ratio[17] 	0.0028895053166898
scalar tree_4_3_u04_r2_network.node[18].core_layer 	interests[18] 	12483
scalar tree_4_3_u04_r2_network.node[18].core_layer 	data[18] 	8753
scalar tree_4_3_u04_r2_network.node[18].content_store 	p_hit[18] 	0.29880637667227
scalar tree_4_3_u04_r2_network.node[18].content_store 	hits[18] 	3730
scalar tree_4_3_u04_r2_network.node[18].content_store 	misses[18] 	8753
scalar tree_4_3_u04_r2_network.node[18].content_store 	decision_yes[18] 	26
scalar tree_4_3_u04_r2_network.node[18].content_store 	decision_no[18] 	8727
scalar tree_4_3_u04_r2_network.node[18].content_store 	decision_ratio[18] 	0.0029704101450931
scalar tree_4_3_u04_r2_network.node[19].core_layer 	interests[19] 	12365
scalar tree_4_3_u04_r2_network.node[19].core_layer 	data[19] 	8786
scalar tree_4_3_u04_r2_network.node[19].content_store 	p_hit[19] 	0.2895268904165
scalar tree_4_3_u04_r2_network.node[19].content_store 	hits[19] 	3580
scalar tree_4_3_u04_r2_network.node[19].content_store 	misses[19] 	8785
scalar tree_4_3_u04_r2_network.node[19].content_store 	decision_yes[19] 	22
scalar tree_4_3_u04_r2_network.node[19].content_store 	decision_no[19] 	8764
scalar tree_4_3_u04_r2_network.node[19].content_store 	decision_ratio[19] 	0.0025039836102891
scalar tree_4_3_u04_r2_network.node[20].core_layer 	interests[20] 	12785
scalar tree_4_3_u04_r2_network.node[20].core_layer 	data[20] 	8823
scalar tree_4_3_u04_r2_network.node[20].content_store 	p_hit[20] 	0.3098944075088
scalar tree_4_3_u04_r2_network.node[20].content_store 	hits[20] 	3962
scalar tree_4_3_u04_r2_network.node[20].content_store 	misses[20] 	8823
scalar tree_4_3_u04_r2_network.node[20].content_store 	decision_yes[20] 	25
scalar tree_4_3_u04_r2_network.node[20].content_store 	decision_no[20] 	8798
scalar tree_4_3_u04_r2_network.node[20].content_store 	decision_ratio[20] 	0.0028335033435339
scalar tree_4_3_u04_r2_network.node[21].core_layer 	interests[21] 	12497
scalar tree_4_3_u04_r2_network.node[21].core_layer 	data[21] 	8760
scalar tree_4_3_u04_r2_network.node[21].content_store 	p_hit[21] 	0.29903176762423
scalar tree_4_3_u04_r2_network.node[21].content_store 	hits[21] 	3737
scalar tree_4_3_u04_r2_network.node[21].content_store 	misses[21] 	8760
scalar tree_4_3_u04_r2_network.node[21].content_store 	decision_yes[21] 	21
scalar tree_4_3_u04_r2_network.node[21].content_store 	decision_no[21] 	8739
scalar tree_4_3_u04_r2_network.node[21].content_store 	decision_ratio[21] 	0.0023972602739726
scalar tree_4_3_u04_r2_network.node[22].core_layer 	interests[22] 	12344
scalar tree_4_3_u04_r2_network.node[22].core_layer 	data[22] 	8683
scalar tree_4_3_u04_r2_network.node[22].content_store 	p_hit[22] 	0.29658133506157
scalar tree_4_3_u04_r2_network.node[22].content_store 	hits[22] 	3661
scalar tree_4_3_u04_r2_network.node[22].content_store 	misses[22] 	8683
scalar tree_4_3_u04_r2_network.node[22].content_store 	decision_yes[22] 	19
scalar tree_4_3_u04_r2_network.node[22].content_store 	decision_no[22] 	8664
scalar tree_4_3_u04_r2_network.node[22].content_store 	decision_ratio[22] 	0.0021881838074398
scalar tree_4_3_u04_r2_network.node[23].core_layer 	interests[23] 	12790
scalar tree_4_3_u04_r2_network.node[23].core_layer 	data[23] 	8707
scalar tree_4_3_u04_r2_network.node[23].content_store 	p_hit[23] 	0.31931196247068
scalar tree_4_3_u04_r2_network.node[23].content_store 	hits[23] 	4084
scalar tree_4_3_u04_r2_network.node[23].content_store 	misses[23] 	8706
scalar tree_4_3_u04_r2_network.node[23].content_store 	decision_yes[23] 	18
scalar tree_4_3_u04_r2_network.node[23].content_store 	decision_no[23] 	8689
scalar tree_4_3_u04_r2_network.node[23].content_store 	decision_ratio[23] 	0.0020673021706673
scalar tree_4_3_u04_r2_network.node[24].core_layer 	interests[24] 	12283
scalar tree_4_3_u04_r2_network.node[24].core_layer 	data[24] 	8625
scalar tree_4_3_u04_r2_network.node[24].content_store 	p_hit[24] 	0.29772856793943
scalar tree_4_3_u04_r2_network.node[24].content_store 	hits[24] 	3657
scalar tree_4_3_u04_r2_network.node[24].content_store 	misses[24] 	8626
scalar tree_4_3_u04_r2_network.node[24].content_store 	decision_yes[24] 	34
scalar tree_4_3_u04_r2_network.node[24].content_store 	decision_no[24] 	8591
scalar tree_4_3_u04_r2_network.node[24].content_store 	decision_ratio[24] 	0.0039420289855072
scalar tree_4_3_u04_r2_network.node[25].core_layer 	interests[25] 	12309
scalar tree_4_3_u04_r2_network.node[25].core_layer 	data[25] 	8661
scalar tree_4_3_u04_r2_network.node[25].content_store 	p_hit[25] 	0.29636851084572
scalar tree_4_3_u04_r2_network.node[25].content_store 	hits[25] 	3648
scalar tree_4_3_u04_r2_network.node[25].content_store 	misses[25] 	8661
scalar tree_4_3_u04_r2_network.node[25].content_store 	decision_yes[25] 	26
scalar tree_4_3_u04_r2_network.node[25].content_store 	decision_no[25] 	8635
scalar tree_4_3_u04_r2_network.node[25].content_store 	decision_ratio[25] 	0.0030019628218451
scalar tree_4_3_u04_r2_network.node[26].core_layer 	interests[26] 	12310
scalar tree_4_3_u04_r2_network.node[26].core_layer 	data[26] 	8701
scalar tree_4_3_u04_r2_network.node[26].content_store 	p_hit[26] 	0.2931762794476
scalar tree_4_3_u04_r2_network.node[26].content_store 	hits[26] 	3609
scalar tree_4_3_u04_r2_network.node[26].content_store 	misses[26] 	8701
scalar tree_4_3_u04_r2_network.node[26].content_store 	decision_yes[26] 	21
scalar tree_4_3_u04_r2_network.node[26].content_store 	decision_no[26] 	8680
scalar tree_4_3_u04_r2_network.node[26].content_store 	decision_ratio[26] 	0.002413515687852
scalar tree_4_3_u04_r2_network.node[27].core_layer 	interests[27] 	12904
scalar tree_4_3_u04_r2_network.node[27].core_layer 	data[27] 	8804
scalar tree_4_3_u04_r2_network.node[27].content_store 	p_hit[27] 	0.31773093614383
scalar tree_4_3_u04_r2_network.node[27].content_store 	hits[27] 	4100
scalar tree_4_3_u04_r2_network.node[27].content_store 	misses[27] 	8804
scalar tree_4_3_u04_r2_network.node[27].content_store 	decision_yes[27] 	34
scalar tree_4_3_u04_r2_network.node[27].content_store 	decision_no[27] 	8770
scalar tree_4_3_u04_r2_network.node[27].content_store 	decision_ratio[27] 	0.0038618809631985
scalar tree_4_3_u04_r2_network.node[28].core_layer 	interests[28] 	12974
scalar tree_4_3_u04_r2_network.node[28].core_layer 	data[28] 	8737
scalar tree_4_3_u04_r2_network.node[28].content_store 	p_hit[28] 	0.32657622938184
scalar tree_4_3_u04_r2_network.node[28].content_store 	hits[28] 	4237
scalar tree_4_3_u04_r2_network.node[28].content_store 	misses[28] 	8737
scalar tree_4_3_u04_r2_network.node[28].content_store 	decision_yes[28] 	17
scalar tree_4_3_u04_r2_network.node[28].content_store 	decision_no[28] 	8720
scalar tree_4_3_u04_r2_network.node[28].content_store 	decision_ratio[28] 	0.0019457479684102
scalar tree_4_3_u04_r2_network.node[29].core_layer 	interests[29] 	12376
scalar tree_4_3_u04_r2_network.node[29].core_layer 	data[29] 	8665
scalar tree_4_3_u04_r2_network.node[29].content_store 	p_hit[29] 	0.29977375565611
scalar tree_4_3_u04_r2_network.node[29].content_store 	hits[29] 	3710
scalar tree_4_3_u04_r2_network.node[29].content_store 	misses[29] 	8666
scalar tree_4_3_u04_r2_network.node[29].content_store 	decision_yes[29] 	19
scalar tree_4_3_u04_r2_network.node[29].content_store 	decision_no[29] 	8646
scalar tree_4_3_u04_r2_network.node[29].content_store 	decision_ratio[29] 	0.0021927293710329
scalar tree_4_3_u04_r2_network.node[30].core_layer 	interests[30] 	12505
scalar tree_4_3_u04_r2_network.node[30].core_layer 	data[30] 	8830
scalar tree_4_3_u04_r2_network.node[30].content_store 	p_hit[30] 	0.29388244702119
scalar tree_4_3_u04_r2_network.node[30].content_store 	hits[30] 	3675
scalar tree_4_3_u04_r2_network.node[30].content_store 	misses[30] 	8830
scalar tree_4_3_u04_r2_network.node[30].content_store 	decision_yes[30] 	23
scalar tree_4_3_u04_r2_network.node[30].content_store 	decision_no[30] 	8807
scalar tree_4_3_u04_r2_network.node[30].content_store 	decision_ratio[30] 	0.0026047565118913
scalar tree_4_3_u04_r2_network.node[31].core_layer 	interests[31] 	12609
scalar tree_4_3_u04_r2_network.node[31].core_layer 	data[31] 	8889
scalar tree_4_3_u04_r2_network.node[31].content_store 	p_hit[31] 	0.29502736140852
scalar tree_4_3_u04_r2_network.node[31].content_store 	hits[31] 	3720
scalar tree_4_3_u04_r2_network.node[31].content_store 	misses[31] 	8889
scalar tree_4_3_u04_r2_network.node[31].content_store 	decision_yes[31] 	24
scalar tree_4_3_u04_r2_network.node[31].content_store 	decision_no[31] 	8865
scalar tree_4_3_u04_r2_network.node[31].content_store 	decision_ratio[31] 	0.0026999662504219
scalar tree_4_3_u04_r2_network.node[32].core_layer 	interests[32] 	12657
scalar tree_4_3_u04_r2_network.node[32].core_layer 	data[32] 	8671
scalar tree_4_3_u04_r2_network.node[32].content_store 	p_hit[32] 	0.31484554001738
scalar tree_4_3_u04_r2_network.node[32].content_store 	hits[32] 	3985
scalar tree_4_3_u04_r2_network.node[32].content_store 	misses[32] 	8672
scalar tree_4_3_u04_r2_network.node[32].content_store 	decision_yes[32] 	14
scalar tree_4_3_u04_r2_network.node[32].content_store 	decision_no[32] 	8657
scalar tree_4_3_u04_r2_network.node[32].content_store 	decision_ratio[32] 	0.0016145773267213
scalar tree_4_3_u04_r2_network.node[33].core_layer 	interests[33] 	12250
scalar tree_4_3_u04_r2_network.node[33].core_layer 	data[33] 	8643
scalar tree_4_3_u04_r2_network.node[33].content_store 	p_hit[33] 	0.29444897959184
scalar tree_4_3_u04_r2_network.node[33].content_store 	hits[33] 	3607
scalar tree_4_3_u04_r2_network.node[33].content_store 	misses[33] 	8643
scalar tree_4_3_u04_r2_network.node[33].content_store 	decision_yes[33] 	27
scalar tree_4_3_u04_r2_network.node[33].content_store 	decision_no[33] 	8616
scalar tree_4_3_u04_r2_network.node[33].content_store 	decision_ratio[33] 	0.003123915307185
scalar tree_4_3_u04_r2_network.node[34].core_layer 	interests[34] 	12359
scalar tree_4_3_u04_r2_network.node[34].core_layer 	data[34] 	8640
scalar tree_4_3_u04_r2_network.node[34].content_store 	p_hit[34] 	0.30099522615098
scalar tree_4_3_u04_r2_network.node[34].content_store 	hits[34] 	3720
scalar tree_4_3_u04_r2_network.node[34].content_store 	misses[34] 	8639
scalar tree_4_3_u04_r2_network.node[34].content_store 	decision_yes[34] 	25
scalar tree_4_3_u04_r2_network.node[34].content_store 	decision_no[34] 	8615
scalar tree_4_3_u04_r2_network.node[34].content_store 	decision_ratio[34] 	0.0028935185185185
scalar tree_4_3_u04_r2_network.node[35].core_layer 	interests[35] 	12615
scalar tree_4_3_u04_r2_network.node[35].core_layer 	data[35] 	8908
scalar tree_4_3_u04_r2_network.node[35].content_store 	p_hit[35] 	0.29385652001585
scalar tree_4_3_u04_r2_network.node[35].content_store 	hits[35] 	3707
scalar tree_4_3_u04_r2_network.node[35].content_store 	misses[35] 	8908
scalar tree_4_3_u04_r2_network.node[35].content_store 	decision_yes[35] 	25
scalar tree_4_3_u04_r2_network.node[35].content_store 	decision_no[35] 	8883
scalar tree_4_3_u04_r2_network.node[35].content_store 	decision_ratio[35] 	0.0028064660978895
scalar tree_4_3_u04_r2_network.node[36].core_layer 	interests[36] 	12792
scalar tree_4_3_u04_r2_network.node[36].core_layer 	data[36] 	8552
scalar tree_4_3_u04_r2_network.node[36].content_store 	p_hit[36] 	0.33145716072545
scalar tree_4_3_u04_r2_network.node[36].content_store 	hits[36] 	4240
scalar tree_4_3_u04_r2_network.node[36].content_store 	misses[36] 	8552
scalar tree_4_3_u04_r2_network.node[36].content_store 	decision_yes[36] 	28
scalar tree_4_3_u04_r2_network.node[36].content_store 	decision_no[36] 	8524
scalar tree_4_3_u04_r2_network.node[36].content_store 	decision_ratio[36] 	0.0032740879326473
scalar tree_4_3_u04_r2_network.node[37].core_layer 	interests[37] 	12519
scalar tree_4_3_u04_r2_network.node[37].core_layer 	data[37] 	8780
scalar tree_4_3_u04_r2_network.node[37].content_store 	p_hit[37] 	0.29866602763799
scalar tree_4_3_u04_r2_network.node[37].content_store 	hits[37] 	3739
scalar tree_4_3_u04_r2_network.node[37].content_store 	misses[37] 	8780
scalar tree_4_3_u04_r2_network.node[37].content_store 	decision_yes[37] 	21
scalar tree_4_3_u04_r2_network.node[37].content_store 	decision_no[37] 	8759
scalar tree_4_3_u04_r2_network.node[37].content_store 	decision_ratio[37] 	0.0023917995444191
scalar tree_4_3_u04_r2_network.node[38].core_layer 	interests[38] 	12308
scalar tree_4_3_u04_r2_network.node[38].core_layer 	data[38] 	8694
scalar tree_4_3_u04_r2_network.node[38].content_store 	p_hit[38] 	0.29363015924602
scalar tree_4_3_u04_r2_network.node[38].content_store 	hits[38] 	3614
scalar tree_4_3_u04_r2_network.node[38].content_store 	misses[38] 	8694
scalar tree_4_3_u04_r2_network.node[38].content_store 	decision_yes[38] 	22
scalar tree_4_3_u04_r2_network.node[38].content_store 	decision_no[38] 	8672
scalar tree_4_3_u04_r2_network.node[38].content_store 	decision_ratio[38] 	0.0025304807913504
scalar tree_4_3_u04_r2_network.node[39].core_layer 	interests[39] 	12498
scalar tree_4_3_u04_r2_network.node[39].core_layer 	data[39] 	8781
scalar tree_4_3_u04_r2_network.node[39].content_store 	p_hit[39] 	0.29740758521363
scalar tree_4_3_u04_r2_network.node[39].content_store 	hits[39] 	3717
scalar tree_4_3_u04_r2_network.node[39].content_store 	misses[39] 	8781
scalar tree_4_3_u04_r2_network.node[39].content_store 	decision_yes[39] 	20
scalar tree_4_3_u04_r2_network.node[39].content_store 	decision_no[39] 	8761
scalar tree_4_3_u04_r2_network.node[39].content_store 	decision_ratio[39] 	0.0022776449151577
scalar tree_4_3_u04_r2_network.client[13] 	hdistance[13] 	2.6438899446418
scalar tree_4_3_u04_r2_network.client[13] 	downloads[13] 	12103
scalar tree_4_3_u04_r2_network.client[13] 	avg_time[13] 	0.004114514029
scalar tree_4_3_u04_r2_network.client[14] 	hdistance[14] 	2.5797988264878
scalar tree_4_3_u04_r2_network.client[14] 	downloads[14] 	11930
scalar tree_4_3_u04_r2_network.client[14] 	avg_time[14] 	0.003991782437
scalar tree_4_3_u04_r2_network.client[15] 	hdistance[15] 	2.6753203803224
scalar tree_4_3_u04_r2_network.client[15] 	downloads[15] 	12095
scalar tree_4_3_u04_r2_network.client[15] 	avg_time[15] 	0.004170646043
scalar tree_4_3_u04_r2_network.client[16] 	hdistance[16] 	2.5915563327504
scalar tree_4_3_u04_r2_network.client[16] 	downloads[16] 	12009
scalar tree_4_3_u04_r2_network.client[16] 	avg_time[16] 	0.00399993564
scalar tree_4_3_u04_r2_network.client[17] 	hdistance[17] 	2.6310663165919
scalar tree_4_3_u04_r2_network.client[17] 	downloads[17] 	11807
scalar tree_4_3_u04_r2_network.client[17] 	avg_time[17] 	0.004091129427
scalar tree_4_3_u04_r2_network.client[18] 	hdistance[18] 	2.6238945436342
scalar tree_4_3_u04_r2_network.client[18] 	downloads[18] 	11986
scalar tree_4_3_u04_r2_network.client[18] 	avg_time[18] 	0.00408042417
scalar tree_4_3_u04_r2_network.client[19] 	hdistance[19] 	2.654465834917
scalar tree_4_3_u04_r2_network.client[19] 	downloads[19] 	12103
scalar tree_4_3_u04_r2_network.client[19] 	avg_time[19] 	0.004137483602
scalar tree_4_3_u04_r2_network.client[20] 	hdistance[20] 	2.589423796458
scalar tree_4_3_u04_r2_network.client[20] 	downloads[20] 	12027
scalar tree_4_3_u04_r2_network.client[20] 	avg_time[20] 	0.004014298131
scalar tree_4_3_u04_r2_network.client[21] 	hdistance[21] 	2.645174571805
scalar tree_4_3_u04_r2_network.client[21] 	downloads[21] 	12144
scalar tree_4_3_u04_r2_network.client[21] 	avg_time[21] 	0.004116762412
scalar tree_4_3_u04_r2_network.client[22] 	hdistance[22] 	2.6361727150538
scalar tree_4_3_u04_r2_network.client[22] 	downloads[22] 	11904
scalar tree_4_3_u04_r2_network.client[22] 	avg_time[22] 	0.004113404258
scalar tree_4_3_u04_r2_network.client[23] 	hdistance[23] 	2.5987581809028
scalar tree_4_3_u04_r2_network.client[23] 	downloads[23] 	11918
scalar tree_4_3_u04_r2_network.client[23] 	avg_time[23] 	0.00403574126
scalar tree_4_3_u04_r2_network.client[24] 	hdistance[24] 	2.605493028725
scalar tree_4_3_u04_r2_network.client[24] 	downloads[24] 	11906
scalar tree_4_3_u04_r2_network.client[24] 	avg_time[24] 	0.004068701859
scalar tree_4_3_u04_r2_network.client[25] 	hdistance[25] 	2.6387259010897
scalar tree_4_3_u04_r2_network.client[25] 	downloads[25] 	11930
scalar tree_4_3_u04_r2_network.client[25] 	avg_time[25] 	0.004118354099
scalar tree_4_3_u04_r2_network.client[26] 	hdistance[26] 	2.6554014291719
scalar tree_4_3_u04_r2_network.client[26] 	downloads[26] 	11895
scalar tree_4_3_u04_r2_network.client[26] 	avg_time[26] 	0.004145100018
scalar tree_4_3_u04_r2_network.client[27] 	hdistance[27] 	2.5542048293089
scalar tree_4_3_u04_r2_network.client[27] 	downloads[27] 	12010
scalar tree_4_3_u04_r2_network.client[27] 	avg_time[27] 	0.003989838772
scalar tree_4_3_u04_r2_network.client[28] 	hdistance[28] 	2.5528142510663
scalar tree_4_3_u04_r2_network.client[28] 	downloads[28] 	11957
scalar tree_4_3_u04_r2_network.client[28] 	avg_time[28] 	0.003989124729
scalar tree_4_3_u04_r2_network.client[29] 	hdistance[29] 	2.6136230182032
scalar tree_4_3_u04_r2_network.client[29] 	downloads[29] 	11921
scalar tree_4_3_u04_r2_network.client[29] 	avg_time[29] 	0.004101320397
scalar tree_4_3_u04_r2_network.client[30] 	hdistance[30] 	2.6383543463836
scalar tree_4_3_u04_r2_network.client[30] 	downloads[30] 	12056
scalar tree_4_3_u04_r2_network.client[30] 	avg_time[30] 	0.004133706356
scalar tree_4_3_u04_r2_network.client[31] 	hdistance[31] 	2.6341343795978
scalar tree_4_3_u04_r2_network.client[31] 	downloads[31] 	12234
scalar tree_4_3_u04_r2_network.client[31] 	avg_time[31] 	0.00411067212
scalar tree_4_3_u04_r2_network.client[32] 	hdistance[32] 	2.5688235294118
scalar tree_4_3_u04_r2_network.client[32] 	downloads[32] 	11900
scalar tree_4_3_u04_r2_network.client[32] 	avg_time[32] 	0.004012770122
scalar tree_4_3_u04_r2_network.client[33] 	hdistance[33] 	2.6446419587456
scalar tree_4_3_u04_r2_network.client[33] 	downloads[33] 	11926
scalar tree_4_3_u04_r2_network.client[33] 	avg_time[33] 	0.004123424795
scalar tree_4_3_u04_r2_network.client[34] 	hdistance[34] 	2.6044020914151
scalar tree_4_3_u04_r2_network.client[34] 	downloads[34] 	11858
scalar tree_4_3_u04_r2_network.client[34] 	avg_time[34] 	0.004095291358
scalar tree_4_3_u04_r2_network.client[35] 	hdistance[35] 	2.6321924603175
scalar tree_4_3_u04_r2_network.client[35] 	downloads[35] 	12096
scalar tree_4_3_u04_r2_network.client[35] 	avg_time[35] 	0.004139712578
scalar tree_4_3_u04_r2_network.client[36] 	hdistance[36] 	2.5398633257403
scalar tree_4_3_u04_r2_network.client[36] 	downloads[36] 	11853
scalar tree_4_3_u04_r2_network.client[36] 	avg_time[36] 	0.003967600169
scalar tree_4_3_u04_r2_network.client[37] 	hdistance[37] 	2.6270077827455
scalar tree_4_3_u04_r2_network.client[37] 	downloads[37] 	12078
scalar tree_4_3_u04_r2_network.client[37] 	avg_time[37] 	0.004092396382
scalar tree_4_3_u04_r2_network.client[38] 	hdistance[38] 	2.6353333333333
scalar tree_4_3_u04_r2_network.client[38] 	downloads[38] 	12000
scalar tree_4_3_u04_r2_network.client[38] 	avg_time[38] 	0.004109830307
scalar tree_4_3_u04_r2_network.client[39] 	hdistance[39] 	2.6391838088918
scalar tree_4_3_u04_r2_network.client[39] 	downloads[39] 	12056
scalar tree_4_3_u04_r2_network.client[39] 	avg_time[39] 	0.004116632454
