version 2
run General-93-20160820-04:13:43-14346
attr a 0.9
attr cd fix0.1
attr configname General
attr cr lru
attr datetime 20160820-04:13:43
attr experiment General
attr fsize 1
attr inifile hw5115/scenario_A/SPR-FIX0.1.ini
attr iterationvars "$name=tree_4_3, $un=04, $rep=14, $cd=fix0.1, $cr=lru, $fsize=1, $a=0.9, $sl=spr, $ttl=1000, $variance=0.05"
attr iterationvars2 "$name=tree_4_3, $un=04, $rep=14, $cd=fix0.1, $cr=lru, $fsize=1, $a=0.9, $sl=spr, $ttl=1000, $variance=0.05, $repetition=0"
attr measurement "$name=tree_4_3, $un=04, $rep=14, $cd=fix0.1, $cr=lru, $fsize=1, $a=0.9, $sl=spr, $ttl=1000, $variance=0.05"
attr name tree_4_3
attr network networks.${name}_u${un}_r${rep}_network
attr processid 14346
attr rep 14
attr repetition 0
attr replication #0
attr resultdir results
attr runnumber 93
attr seedset 14
attr sl spr
attr ttl 1000
attr un 04
attr variance 0.05

scalar . 	a 	0.9
scalar . 	fsize 	1
scalar . 	rep 	14
scalar . 	ttl 	1000
scalar . 	un 	04
scalar . 	variance 	0.05
scalar tree_4_3_u04_r14_network.content_distribution 	repo-0 	0
scalar tree_4_3_u04_r14_network.content_distribution 	client-0 	13
scalar tree_4_3_u04_r14_network.content_distribution 	client-1 	14
scalar tree_4_3_u04_r14_network.content_distribution 	client-2 	15
scalar tree_4_3_u04_r14_network.content_distribution 	client-3 	16
scalar tree_4_3_u04_r14_network.content_distribution 	client-4 	17
scalar tree_4_3_u04_r14_network.content_distribution 	client-5 	18
scalar tree_4_3_u04_r14_network.content_distribution 	client-6 	19
scalar tree_4_3_u04_r14_network.content_distribution 	client-7 	20
scalar tree_4_3_u04_r14_network.content_distribution 	client-8 	21
scalar tree_4_3_u04_r14_network.content_distribution 	client-9 	22
scalar tree_4_3_u04_r14_network.content_distribution 	client-10 	23
scalar tree_4_3_u04_r14_network.content_distribution 	client-11 	24
scalar tree_4_3_u04_r14_network.content_distribution 	client-12 	25
scalar tree_4_3_u04_r14_network.content_distribution 	client-13 	26
scalar tree_4_3_u04_r14_network.content_distribution 	client-14 	27
scalar tree_4_3_u04_r14_network.content_distribution 	client-15 	28
scalar tree_4_3_u04_r14_network.content_distribution 	client-16 	29
scalar tree_4_3_u04_r14_network.content_distribution 	client-17 	30
scalar tree_4_3_u04_r14_network.content_distribution 	client-18 	31
scalar tree_4_3_u04_r14_network.content_distribution 	client-19 	32
scalar tree_4_3_u04_r14_network.content_distribution 	client-20 	33
scalar tree_4_3_u04_r14_network.content_distribution 	client-21 	34
scalar tree_4_3_u04_r14_network.content_distribution 	client-22 	35
scalar tree_4_3_u04_r14_network.content_distribution 	client-23 	36
scalar tree_4_3_u04_r14_network.content_distribution 	client-24 	37
scalar tree_4_3_u04_r14_network.content_distribution 	client-25 	38
scalar tree_4_3_u04_r14_network.content_distribution 	client-26 	39
scalar tree_4_3_u04_r14_network.content_distribution 	repo-0_card 	100000
scalar tree_4_3_u04_r14_network.content_distribution 	repo-0_price 	0
scalar tree_4_3_u04_r14_network.statistics 	stabilization_time 	912
scalar tree_4_3_u04_r14_network.statistics 	p_hit 	0.15006500483866
scalar tree_4_3_u04_r14_network.statistics 	interests 	26871.525
scalar tree_4_3_u04_r14_network.statistics 	data 	18743.125
scalar tree_4_3_u04_r14_network.statistics 	hdistance 	3.040557256706
scalar tree_4_3_u04_r14_network.statistics 	avg_time 	0.004611880046
scalar tree_4_3_u04_r14_network.statistics 	downloads 	325128
scalar tree_4_3_u04_r14_network.statistics 	total_cost 	0
scalar tree_4_3_u04_r14_network.statistics 	total_replicas 	100000
scalar tree_4_3_u04_r14_network.statistics 	inner_hit 	0.26543392140941
scalar tree_4_3_u04_r14_network.node[0].core_layer 	interests[0] 	243273
scalar tree_4_3_u04_r14_network.node[0].core_layer 	repo_load[0] 	238828
scalar tree_4_3_u04_r14_network.node[0].core_layer 	data[0] 	0
scalar tree_4_3_u04_r14_network.node[0].core_layer 	repo_int[0] 	238828
scalar tree_4_3_u04_r14_network.node[0].content_store 	p_hit[0] 	0.018271653656592
scalar tree_4_3_u04_r14_network.node[0].content_store 	hits[0] 	4445
scalar tree_4_3_u04_r14_network.node[0].content_store 	misses[0] 	238828
scalar tree_4_3_u04_r14_network.node[0].content_store 	decision_yes[0] 	23534
scalar tree_4_3_u04_r14_network.node[0].content_store 	decision_no[0] 	215294
scalar tree_4_3_u04_r14_network.node[0].content_store 	decision_ratio[0] 	0.098539534727921
scalar tree_4_3_u04_r14_network.node[1].core_layer 	interests[1] 	147583
scalar tree_4_3_u04_r14_network.node[1].core_layer 	data[1] 	144341
scalar tree_4_3_u04_r14_network.node[1].content_store 	p_hit[1] 	0.021919868819579
scalar tree_4_3_u04_r14_network.node[1].content_store 	hits[1] 	3235
scalar tree_4_3_u04_r14_network.node[1].content_store 	misses[1] 	144348
scalar tree_4_3_u04_r14_network.node[1].content_store 	decision_yes[1] 	14462
scalar tree_4_3_u04_r14_network.node[1].content_store 	decision_no[1] 	129879
scalar tree_4_3_u04_r14_network.node[1].content_store 	decision_ratio[1] 	0.10019329227316
scalar tree_4_3_u04_r14_network.node[2].core_layer 	interests[2] 	46062
scalar tree_4_3_u04_r14_network.node[2].core_layer 	data[2] 	44945
scalar tree_4_3_u04_r14_network.node[2].content_store 	p_hit[2] 	0.024228214146151
scalar tree_4_3_u04_r14_network.node[2].content_store 	hits[2] 	1116
scalar tree_4_3_u04_r14_network.node[2].content_store 	misses[2] 	44946
scalar tree_4_3_u04_r14_network.node[2].content_store 	decision_yes[2] 	4527
scalar tree_4_3_u04_r14_network.node[2].content_store 	decision_no[2] 	40418
scalar tree_4_3_u04_r14_network.node[2].content_store 	decision_ratio[2] 	0.10072310601847
scalar tree_4_3_u04_r14_network.node[3].core_layer 	interests[3] 	55290
scalar tree_4_3_u04_r14_network.node[3].core_layer 	data[3] 	53986
scalar tree_4_3_u04_r14_network.node[3].content_store 	p_hit[3] 	0.023548562126967
scalar tree_4_3_u04_r14_network.node[3].content_store 	hits[3] 	1302
scalar tree_4_3_u04_r14_network.node[3].content_store 	misses[3] 	53988
scalar tree_4_3_u04_r14_network.node[3].content_store 	decision_yes[3] 	5467
scalar tree_4_3_u04_r14_network.node[3].content_store 	decision_no[3] 	48519
scalar tree_4_3_u04_r14_network.node[3].content_store 	decision_ratio[3] 	0.10126699514689
scalar tree_4_3_u04_r14_network.node[4].core_layer 	interests[4] 	38212
scalar tree_4_3_u04_r14_network.node[4].core_layer 	data[4] 	36986
scalar tree_4_3_u04_r14_network.node[4].content_store 	p_hit[4] 	0.032057992253742
scalar tree_4_3_u04_r14_network.node[4].content_store 	hits[4] 	1225
scalar tree_4_3_u04_r14_network.node[4].content_store 	misses[4] 	36987
scalar tree_4_3_u04_r14_network.node[4].content_store 	decision_yes[4] 	3617
scalar tree_4_3_u04_r14_network.node[4].content_store 	decision_no[4] 	33369
scalar tree_4_3_u04_r14_network.node[4].content_store 	decision_ratio[4] 	0.097793759801006
scalar tree_4_3_u04_r14_network.node[5].core_layer 	interests[5] 	28623
scalar tree_4_3_u04_r14_network.node[5].core_layer 	data[5] 	27668
scalar tree_4_3_u04_r14_network.node[5].content_store 	p_hit[5] 	0.033364776578276
scalar tree_4_3_u04_r14_network.node[5].content_store 	hits[5] 	955
scalar tree_4_3_u04_r14_network.node[5].content_store 	misses[5] 	27668
scalar tree_4_3_u04_r14_network.node[5].content_store 	decision_yes[5] 	2812
scalar tree_4_3_u04_r14_network.node[5].content_store 	decision_no[5] 	24856
scalar tree_4_3_u04_r14_network.node[5].content_store 	decision_ratio[5] 	0.10163365620934
scalar tree_4_3_u04_r14_network.node[6].core_layer 	interests[6] 	18856
scalar tree_4_3_u04_r14_network.node[6].core_layer 	data[6] 	18203
scalar tree_4_3_u04_r14_network.node[6].content_store 	p_hit[6] 	0.034630886720407
scalar tree_4_3_u04_r14_network.node[6].content_store 	hits[6] 	653
scalar tree_4_3_u04_r14_network.node[6].content_store 	misses[6] 	18203
scalar tree_4_3_u04_r14_network.node[6].content_store 	decision_yes[6] 	1866
scalar tree_4_3_u04_r14_network.node[6].content_store 	decision_no[6] 	16337
scalar tree_4_3_u04_r14_network.node[6].content_store 	decision_ratio[6] 	0.10251057517992
scalar tree_4_3_u04_r14_network.node[7].core_layer 	interests[7] 	38285
scalar tree_4_3_u04_r14_network.node[7].core_layer 	data[7] 	37041
scalar tree_4_3_u04_r14_network.node[7].content_store 	p_hit[7] 	0.032519263419094
scalar tree_4_3_u04_r14_network.node[7].content_store 	hits[7] 	1245
scalar tree_4_3_u04_r14_network.node[7].content_store 	misses[7] 	37040
scalar tree_4_3_u04_r14_network.node[7].content_store 	decision_yes[7] 	3764
scalar tree_4_3_u04_r14_network.node[7].content_store 	decision_no[7] 	33277
scalar tree_4_3_u04_r14_network.node[7].content_store 	decision_ratio[7] 	0.10161712696741
scalar tree_4_3_u04_r14_network.node[8].core_layer 	interests[8] 	28548
scalar tree_4_3_u04_r14_network.node[8].core_layer 	data[8] 	27565
scalar tree_4_3_u04_r14_network.node[8].content_store 	p_hit[8] 	0.034398206529354
scalar tree_4_3_u04_r14_network.node[8].content_store 	hits[8] 	982
scalar tree_4_3_u04_r14_network.node[8].content_store 	misses[8] 	27566
scalar tree_4_3_u04_r14_network.node[8].content_store 	decision_yes[8] 	2809
scalar tree_4_3_u04_r14_network.node[8].content_store 	decision_no[8] 	24756
scalar tree_4_3_u04_r14_network.node[8].content_store 	decision_ratio[8] 	0.10190458915291
scalar tree_4_3_u04_r14_network.node[9].core_layer 	interests[9] 	19084
scalar tree_4_3_u04_r14_network.node[9].core_layer 	data[9] 	18496
scalar tree_4_3_u04_r14_network.node[9].content_store 	p_hit[9] 	0.030811150702159
scalar tree_4_3_u04_r14_network.node[9].content_store 	hits[9] 	588
scalar tree_4_3_u04_r14_network.node[9].content_store 	misses[9] 	18496
scalar tree_4_3_u04_r14_network.node[9].content_store 	decision_yes[9] 	1809
scalar tree_4_3_u04_r14_network.node[9].content_store 	decision_no[9] 	16687
scalar tree_4_3_u04_r14_network.node[9].content_store 	decision_ratio[9] 	0.097804930795848
scalar tree_4_3_u04_r14_network.node[10].core_layer 	interests[10] 	28574
scalar tree_4_3_u04_r14_network.node[10].core_layer 	data[10] 	27685
scalar tree_4_3_u04_r14_network.node[10].content_store 	p_hit[10] 	0.031112199902009
scalar tree_4_3_u04_r14_network.node[10].content_store 	hits[10] 	889
scalar tree_4_3_u04_r14_network.node[10].content_store 	misses[10] 	27685
scalar tree_4_3_u04_r14_network.node[10].content_store 	decision_yes[10] 	2848
scalar tree_4_3_u04_r14_network.node[10].content_store 	decision_no[10] 	24837
scalar tree_4_3_u04_r14_network.node[10].content_store 	decision_ratio[10] 	0.10287159111432
scalar tree_4_3_u04_r14_network.node[11].core_layer 	interests[11] 	28800
scalar tree_4_3_u04_r14_network.node[11].core_layer 	data[11] 	27815
scalar tree_4_3_u04_r14_network.node[11].content_store 	p_hit[11] 	0.034201388888889
scalar tree_4_3_u04_r14_network.node[11].content_store 	hits[11] 	985
scalar tree_4_3_u04_r14_network.node[11].content_store 	misses[11] 	27815
scalar tree_4_3_u04_r14_network.node[11].content_store 	decision_yes[11] 	2755
scalar tree_4_3_u04_r14_network.node[11].content_store 	decision_no[11] 	25060
scalar tree_4_3_u04_r14_network.node[11].content_store 	decision_ratio[11] 	0.09904727664929
scalar tree_4_3_u04_r14_network.node[12].core_layer 	interests[12] 	28537
scalar tree_4_3_u04_r14_network.node[12].core_layer 	data[12] 	27475
scalar tree_4_3_u04_r14_network.node[12].content_store 	p_hit[12] 	0.037214843886884
scalar tree_4_3_u04_r14_network.node[12].content_store 	hits[12] 	1062
scalar tree_4_3_u04_r14_network.node[12].content_store 	misses[12] 	27475
scalar tree_4_3_u04_r14_network.node[12].content_store 	decision_yes[12] 	2775
scalar tree_4_3_u04_r14_network.node[12].content_store 	decision_no[12] 	24700
scalar tree_4_3_u04_r14_network.node[12].content_store 	decision_ratio[12] 	0.10100090991811
scalar tree_4_3_u04_r14_network.node[13].core_layer 	interests[13] 	12215
scalar tree_4_3_u04_r14_network.node[13].core_layer 	data[13] 	9685
scalar tree_4_3_u04_r14_network.node[13].content_store 	p_hit[13] 	0.20704052394597
scalar tree_4_3_u04_r14_network.node[13].content_store 	hits[13] 	2529
scalar tree_4_3_u04_r14_network.node[13].content_store 	misses[13] 	9686
scalar tree_4_3_u04_r14_network.node[13].content_store 	decision_yes[13] 	991
scalar tree_4_3_u04_r14_network.node[13].content_store 	decision_no[13] 	8694
scalar tree_4_3_u04_r14_network.node[13].content_store 	decision_ratio[13] 	0.10232318017553
scalar tree_4_3_u04_r14_network.node[14].core_layer 	interests[14] 	11986
scalar tree_4_3_u04_r14_network.node[14].core_layer 	data[14] 	9458
scalar tree_4_3_u04_r14_network.node[14].content_store 	p_hit[14] 	0.21091273152011
scalar tree_4_3_u04_r14_network.node[14].content_store 	hits[14] 	2528
scalar tree_4_3_u04_r14_network.node[14].content_store 	misses[14] 	9458
scalar tree_4_3_u04_r14_network.node[14].content_store 	decision_yes[14] 	917
scalar tree_4_3_u04_r14_network.node[14].content_store 	decision_no[14] 	8541
scalar tree_4_3_u04_r14_network.node[14].content_store 	decision_ratio[14] 	0.096954958765067
scalar tree_4_3_u04_r14_network.node[15].core_layer 	interests[15] 	11954
scalar tree_4_3_u04_r14_network.node[15].core_layer 	data[15] 	9442
scalar tree_4_3_u04_r14_network.node[15].content_store 	p_hit[15] 	0.21013886565166
scalar tree_4_3_u04_r14_network.node[15].content_store 	hits[15] 	2512
scalar tree_4_3_u04_r14_network.node[15].content_store 	misses[15] 	9442
scalar tree_4_3_u04_r14_network.node[15].content_store 	decision_yes[15] 	936
scalar tree_4_3_u04_r14_network.node[15].content_store 	decision_no[15] 	8506
scalar tree_4_3_u04_r14_network.node[15].content_store 	decision_ratio[15] 	0.099131539927981
scalar tree_4_3_u04_r14_network.node[16].core_layer 	interests[16] 	12061
scalar tree_4_3_u04_r14_network.node[16].core_layer 	data[16] 	9627
scalar tree_4_3_u04_r14_network.node[16].content_store 	p_hit[16] 	0.20180747865019
scalar tree_4_3_u04_r14_network.node[16].content_store 	hits[16] 	2434
scalar tree_4_3_u04_r14_network.node[16].content_store 	misses[16] 	9627
scalar tree_4_3_u04_r14_network.node[16].content_store 	decision_yes[16] 	1008
scalar tree_4_3_u04_r14_network.node[16].content_store 	decision_no[16] 	8619
scalar tree_4_3_u04_r14_network.node[16].content_store 	decision_ratio[16] 	0.10470551573699
scalar tree_4_3_u04_r14_network.node[17].core_layer 	interests[17] 	11829
scalar tree_4_3_u04_r14_network.node[17].core_layer 	data[17] 	9390
scalar tree_4_3_u04_r14_network.node[17].content_store 	p_hit[17] 	0.20618818158762
scalar tree_4_3_u04_r14_network.node[17].content_store 	hits[17] 	2439
scalar tree_4_3_u04_r14_network.node[17].content_store 	misses[17] 	9390
scalar tree_4_3_u04_r14_network.node[17].content_store 	decision_yes[17] 	974
scalar tree_4_3_u04_r14_network.node[17].content_store 	decision_no[17] 	8416
scalar tree_4_3_u04_r14_network.node[17].content_store 	decision_ratio[17] 	0.10372736954207
scalar tree_4_3_u04_r14_network.node[18].core_layer 	interests[18] 	12093
scalar tree_4_3_u04_r14_network.node[18].core_layer 	data[18] 	9596
scalar tree_4_3_u04_r14_network.node[18].content_store 	p_hit[18] 	0.20648308939056
scalar tree_4_3_u04_r14_network.node[18].content_store 	hits[18] 	2497
scalar tree_4_3_u04_r14_network.node[18].content_store 	misses[18] 	9596
scalar tree_4_3_u04_r14_network.node[18].content_store 	decision_yes[18] 	972
scalar tree_4_3_u04_r14_network.node[18].content_store 	decision_no[18] 	8624
scalar tree_4_3_u04_r14_network.node[18].content_store 	decision_ratio[18] 	0.10129220508545
scalar tree_4_3_u04_r14_network.node[19].core_layer 	interests[19] 	11916
scalar tree_4_3_u04_r14_network.node[19].core_layer 	data[19] 	9391
scalar tree_4_3_u04_r14_network.node[19].content_store 	p_hit[19] 	0.21189996643169
scalar tree_4_3_u04_r14_network.node[19].content_store 	hits[19] 	2525
scalar tree_4_3_u04_r14_network.node[19].content_store 	misses[19] 	9391
scalar tree_4_3_u04_r14_network.node[19].content_store 	decision_yes[19] 	961
scalar tree_4_3_u04_r14_network.node[19].content_store 	decision_no[19] 	8430
scalar tree_4_3_u04_r14_network.node[19].content_store 	decision_ratio[19] 	0.10233202001917
scalar tree_4_3_u04_r14_network.node[20].core_layer 	interests[20] 	12195
scalar tree_4_3_u04_r14_network.node[20].core_layer 	data[20] 	9637
scalar tree_4_3_u04_r14_network.node[20].content_store 	p_hit[20] 	0.20975809758098
scalar tree_4_3_u04_r14_network.node[20].content_store 	hits[20] 	2558
scalar tree_4_3_u04_r14_network.node[20].content_store 	misses[20] 	9637
scalar tree_4_3_u04_r14_network.node[20].content_store 	decision_yes[20] 	968
scalar tree_4_3_u04_r14_network.node[20].content_store 	decision_no[20] 	8669
scalar tree_4_3_u04_r14_network.node[20].content_store 	decision_ratio[20] 	0.10044619694926
scalar tree_4_3_u04_r14_network.node[21].core_layer 	interests[21] 	11968
scalar tree_4_3_u04_r14_network.node[21].core_layer 	data[21] 	9465
scalar tree_4_3_u04_r14_network.node[21].content_store 	p_hit[21] 	0.20914104278075
scalar tree_4_3_u04_r14_network.node[21].content_store 	hits[21] 	2503
scalar tree_4_3_u04_r14_network.node[21].content_store 	misses[21] 	9465
scalar tree_4_3_u04_r14_network.node[21].content_store 	decision_yes[21] 	971
scalar tree_4_3_u04_r14_network.node[21].content_store 	decision_no[21] 	8494
scalar tree_4_3_u04_r14_network.node[21].content_store 	decision_ratio[21] 	0.10258848388801
scalar tree_4_3_u04_r14_network.node[22].core_layer 	interests[22] 	12111
scalar tree_4_3_u04_r14_network.node[22].core_layer 	data[22] 	9596
scalar tree_4_3_u04_r14_network.node[22].content_store 	p_hit[22] 	0.207579886054
scalar tree_4_3_u04_r14_network.node[22].content_store 	hits[22] 	2514
scalar tree_4_3_u04_r14_network.node[22].content_store 	misses[22] 	9597
scalar tree_4_3_u04_r14_network.node[22].content_store 	decision_yes[22] 	951
scalar tree_4_3_u04_r14_network.node[22].content_store 	decision_no[22] 	8645
scalar tree_4_3_u04_r14_network.node[22].content_store 	decision_ratio[22] 	0.099103793247186
scalar tree_4_3_u04_r14_network.node[23].core_layer 	interests[23] 	12090
scalar tree_4_3_u04_r14_network.node[23].core_layer 	data[23] 	9581
scalar tree_4_3_u04_r14_network.node[23].content_store 	p_hit[23] 	0.20752688172043
scalar tree_4_3_u04_r14_network.node[23].content_store 	hits[23] 	2509
scalar tree_4_3_u04_r14_network.node[23].content_store 	misses[23] 	9581
scalar tree_4_3_u04_r14_network.node[23].content_store 	decision_yes[23] 	935
scalar tree_4_3_u04_r14_network.node[23].content_store 	decision_no[23] 	8646
scalar tree_4_3_u04_r14_network.node[23].content_store 	decision_ratio[23] 	0.097588978185993
scalar tree_4_3_u04_r14_network.node[24].core_layer 	interests[24] 	12201
scalar tree_4_3_u04_r14_network.node[24].core_layer 	data[24] 	9699
scalar tree_4_3_u04_r14_network.node[24].content_store 	p_hit[24] 	0.2051471190886
scalar tree_4_3_u04_r14_network.node[24].content_store 	hits[24] 	2503
scalar tree_4_3_u04_r14_network.node[24].content_store 	misses[24] 	9698
scalar tree_4_3_u04_r14_network.node[24].content_store 	decision_yes[24] 	975
scalar tree_4_3_u04_r14_network.node[24].content_store 	decision_no[24] 	8724
scalar tree_4_3_u04_r14_network.node[24].content_store 	decision_ratio[24] 	0.10052582740489
scalar tree_4_3_u04_r14_network.node[25].core_layer 	interests[25] 	11826
scalar tree_4_3_u04_r14_network.node[25].core_layer 	data[25] 	9346
scalar tree_4_3_u04_r14_network.node[25].content_store 	p_hit[25] 	0.2097074243193
scalar tree_4_3_u04_r14_network.node[25].content_store 	hits[25] 	2480
scalar tree_4_3_u04_r14_network.node[25].content_store 	misses[25] 	9346
scalar tree_4_3_u04_r14_network.node[25].content_store 	decision_yes[25] 	883
scalar tree_4_3_u04_r14_network.node[25].content_store 	decision_no[25] 	8463
scalar tree_4_3_u04_r14_network.node[25].content_store 	decision_ratio[25] 	0.094478921463728
scalar tree_4_3_u04_r14_network.node[26].core_layer 	interests[26] 	12036
scalar tree_4_3_u04_r14_network.node[26].core_layer 	data[26] 	9572
scalar tree_4_3_u04_r14_network.node[26].content_store 	p_hit[26] 	0.20455300764374
scalar tree_4_3_u04_r14_network.node[26].content_store 	hits[26] 	2462
scalar tree_4_3_u04_r14_network.node[26].content_store 	misses[26] 	9574
scalar tree_4_3_u04_r14_network.node[26].content_store 	decision_yes[26] 	959
scalar tree_4_3_u04_r14_network.node[26].content_store 	decision_no[26] 	8613
scalar tree_4_3_u04_r14_network.node[26].content_store 	decision_ratio[26] 	0.10018804847472
scalar tree_4_3_u04_r14_network.node[27].core_layer 	interests[27] 	12065
scalar tree_4_3_u04_r14_network.node[27].core_layer 	data[27] 	9629
scalar tree_4_3_u04_r14_network.node[27].content_store 	p_hit[27] 	0.20182345627849
scalar tree_4_3_u04_r14_network.node[27].content_store 	hits[27] 	2435
scalar tree_4_3_u04_r14_network.node[27].content_store 	misses[27] 	9630
scalar tree_4_3_u04_r14_network.node[27].content_store 	decision_yes[27] 	912
scalar tree_4_3_u04_r14_network.node[27].content_store 	decision_no[27] 	8717
scalar tree_4_3_u04_r14_network.node[27].content_store 	decision_ratio[27] 	0.094713885138644
scalar tree_4_3_u04_r14_network.node[28].core_layer 	interests[28] 	11923
scalar tree_4_3_u04_r14_network.node[28].core_layer 	data[28] 	9410
scalar tree_4_3_u04_r14_network.node[28].content_store 	p_hit[28] 	0.21068523022729
scalar tree_4_3_u04_r14_network.node[28].content_store 	hits[28] 	2512
scalar tree_4_3_u04_r14_network.node[28].content_store 	misses[28] 	9411
scalar tree_4_3_u04_r14_network.node[28].content_store 	decision_yes[28] 	941
scalar tree_4_3_u04_r14_network.node[28].content_store 	decision_no[28] 	8469
scalar tree_4_3_u04_r14_network.node[28].content_store 	decision_ratio[28] 	0.1
scalar tree_4_3_u04_r14_network.node[29].core_layer 	interests[29] 	12125
scalar tree_4_3_u04_r14_network.node[29].core_layer 	data[29] 	9591
scalar tree_4_3_u04_r14_network.node[29].content_store 	p_hit[29] 	0.20890721649485
scalar tree_4_3_u04_r14_network.node[29].content_store 	hits[29] 	2533
scalar tree_4_3_u04_r14_network.node[29].content_store 	misses[29] 	9592
scalar tree_4_3_u04_r14_network.node[29].content_store 	decision_yes[29] 	982
scalar tree_4_3_u04_r14_network.node[29].content_store 	decision_no[29] 	8609
scalar tree_4_3_u04_r14_network.node[29].content_store 	decision_ratio[29] 	0.10238765509332
scalar tree_4_3_u04_r14_network.node[30].core_layer 	interests[30] 	12004
scalar tree_4_3_u04_r14_network.node[30].core_layer 	data[30] 	9493
scalar tree_4_3_u04_r14_network.node[30].content_store 	p_hit[30] 	0.20918027324225
scalar tree_4_3_u04_r14_network.node[30].content_store 	hits[30] 	2511
scalar tree_4_3_u04_r14_network.node[30].content_store 	misses[30] 	9493
scalar tree_4_3_u04_r14_network.node[30].content_store 	decision_yes[30] 	970
scalar tree_4_3_u04_r14_network.node[30].content_store 	decision_no[30] 	8523
scalar tree_4_3_u04_r14_network.node[30].content_store 	decision_ratio[30] 	0.10218055409249
scalar tree_4_3_u04_r14_network.node[31].core_layer 	interests[31] 	12106
scalar tree_4_3_u04_r14_network.node[31].core_layer 	data[31] 	9481
scalar tree_4_3_u04_r14_network.node[31].content_store 	p_hit[31] 	0.21683462745746
scalar tree_4_3_u04_r14_network.node[31].content_store 	hits[31] 	2625
scalar tree_4_3_u04_r14_network.node[31].content_store 	misses[31] 	9481
scalar tree_4_3_u04_r14_network.node[31].content_store 	decision_yes[31] 	943
scalar tree_4_3_u04_r14_network.node[31].content_store 	decision_no[31] 	8538
scalar tree_4_3_u04_r14_network.node[31].content_store 	decision_ratio[31] 	0.099462082058855
scalar tree_4_3_u04_r14_network.node[32].core_layer 	interests[32] 	12159
scalar tree_4_3_u04_r14_network.node[32].core_layer 	data[32] 	9591
scalar tree_4_3_u04_r14_network.node[32].content_store 	p_hit[32] 	0.21120157907723
scalar tree_4_3_u04_r14_network.node[32].content_store 	hits[32] 	2568
scalar tree_4_3_u04_r14_network.node[32].content_store 	misses[32] 	9591
scalar tree_4_3_u04_r14_network.node[32].content_store 	decision_yes[32] 	969
scalar tree_4_3_u04_r14_network.node[32].content_store 	decision_no[32] 	8622
scalar tree_4_3_u04_r14_network.node[32].content_store 	decision_ratio[32] 	0.1010322177041
scalar tree_4_3_u04_r14_network.node[33].core_layer 	interests[33] 	12009
scalar tree_4_3_u04_r14_network.node[33].core_layer 	data[33] 	9502
scalar tree_4_3_u04_r14_network.node[33].content_store 	p_hit[33] 	0.20876009659422
scalar tree_4_3_u04_r14_network.node[33].content_store 	hits[33] 	2507
scalar tree_4_3_u04_r14_network.node[33].content_store 	misses[33] 	9502
scalar tree_4_3_u04_r14_network.node[33].content_store 	decision_yes[33] 	903
scalar tree_4_3_u04_r14_network.node[33].content_store 	decision_no[33] 	8599
scalar tree_4_3_u04_r14_network.node[33].content_store 	decision_ratio[33] 	0.095032624710587
scalar tree_4_3_u04_r14_network.node[34].core_layer 	interests[34] 	11962
scalar tree_4_3_u04_r14_network.node[34].core_layer 	data[34] 	9613
scalar tree_4_3_u04_r14_network.node[34].content_store 	p_hit[34] 	0.19637184417322
scalar tree_4_3_u04_r14_network.node[34].content_store 	hits[34] 	2349
scalar tree_4_3_u04_r14_network.node[34].content_store 	misses[34] 	9613
scalar tree_4_3_u04_r14_network.node[34].content_store 	decision_yes[34] 	983
scalar tree_4_3_u04_r14_network.node[34].content_store 	decision_no[34] 	8630
scalar tree_4_3_u04_r14_network.node[34].content_store 	decision_ratio[34] 	0.10225735982524
scalar tree_4_3_u04_r14_network.node[35].core_layer 	interests[35] 	12119
scalar tree_4_3_u04_r14_network.node[35].core_layer 	data[35] 	9515
scalar tree_4_3_u04_r14_network.node[35].content_store 	p_hit[35] 	0.21486921363149
scalar tree_4_3_u04_r14_network.node[35].content_store 	hits[35] 	2604
scalar tree_4_3_u04_r14_network.node[35].content_store 	misses[35] 	9515
scalar tree_4_3_u04_r14_network.node[35].content_store 	decision_yes[35] 	965
scalar tree_4_3_u04_r14_network.node[35].content_store 	decision_no[35] 	8550
scalar tree_4_3_u04_r14_network.node[35].content_store 	decision_ratio[35] 	0.10141881240147
scalar tree_4_3_u04_r14_network.node[36].core_layer 	interests[36] 	12252
scalar tree_4_3_u04_r14_network.node[36].core_layer 	data[36] 	9672
scalar tree_4_3_u04_r14_network.node[36].content_store 	p_hit[36] 	0.21057786483839
scalar tree_4_3_u04_r14_network.node[36].content_store 	hits[36] 	2580
scalar tree_4_3_u04_r14_network.node[36].content_store 	misses[36] 	9672
scalar tree_4_3_u04_r14_network.node[36].content_store 	decision_yes[36] 	956
scalar tree_4_3_u04_r14_network.node[36].content_store 	decision_no[36] 	8716
scalar tree_4_3_u04_r14_network.node[36].content_store 	decision_ratio[36] 	0.098842018196857
scalar tree_4_3_u04_r14_network.node[37].core_layer 	interests[37] 	11837
scalar tree_4_3_u04_r14_network.node[37].core_layer 	data[37] 	9431
scalar tree_4_3_u04_r14_network.node[37].content_store 	p_hit[37] 	0.20326096139224
scalar tree_4_3_u04_r14_network.node[37].content_store 	hits[37] 	2406
scalar tree_4_3_u04_r14_network.node[37].content_store 	misses[37] 	9431
scalar tree_4_3_u04_r14_network.node[37].content_store 	decision_yes[37] 	937
scalar tree_4_3_u04_r14_network.node[37].content_store 	decision_no[37] 	8494
scalar tree_4_3_u04_r14_network.node[37].content_store 	decision_ratio[37] 	0.099353196903828
scalar tree_4_3_u04_r14_network.node[38].core_layer 	interests[38] 	11971
scalar tree_4_3_u04_r14_network.node[38].core_layer 	data[38] 	9444
scalar tree_4_3_u04_r14_network.node[38].content_store 	p_hit[38] 	0.21109347590009
scalar tree_4_3_u04_r14_network.node[38].content_store 	hits[38] 	2527
scalar tree_4_3_u04_r14_network.node[38].content_store 	misses[38] 	9444
scalar tree_4_3_u04_r14_network.node[38].content_store 	decision_yes[38] 	905
scalar tree_4_3_u04_r14_network.node[38].content_store 	decision_no[38] 	8539
scalar tree_4_3_u04_r14_network.node[38].content_store 	decision_ratio[38] 	0.09582803896654
scalar tree_4_3_u04_r14_network.node[39].core_layer 	interests[39] 	12121
scalar tree_4_3_u04_r14_network.node[39].core_layer 	data[39] 	9662
scalar tree_4_3_u04_r14_network.node[39].content_store 	p_hit[39] 	0.20287105024338
scalar tree_4_3_u04_r14_network.node[39].content_store 	hits[39] 	2459
scalar tree_4_3_u04_r14_network.node[39].content_store 	misses[39] 	9662
scalar tree_4_3_u04_r14_network.node[39].content_store 	decision_yes[39] 	962
scalar tree_4_3_u04_r14_network.node[39].content_store 	decision_no[39] 	8700
scalar tree_4_3_u04_r14_network.node[39].content_store 	decision_ratio[39] 	0.099565307389774
scalar tree_4_3_u04_r14_network.client[13] 	hdistance[13] 	3.0459308989684
scalar tree_4_3_u04_r14_network.client[13] 	downloads[13] 	12214
scalar tree_4_3_u04_r14_network.client[13] 	avg_time[13] 	0.004619571209
scalar tree_4_3_u04_r14_network.client[14] 	hdistance[14] 	3.0359586183881
scalar tree_4_3_u04_r14_network.client[14] 	downloads[14] 	11986
scalar tree_4_3_u04_r14_network.client[14] 	avg_time[14] 	0.00460530494
scalar tree_4_3_u04_r14_network.client[15] 	hdistance[15] 	3.0362221850427
scalar tree_4_3_u04_r14_network.client[15] 	downloads[15] 	11954
scalar tree_4_3_u04_r14_network.client[15] 	avg_time[15] 	0.004602089634
scalar tree_4_3_u04_r14_network.client[16] 	hdistance[16] 	3.0656661968328
scalar tree_4_3_u04_r14_network.client[16] 	downloads[16] 	12061
scalar tree_4_3_u04_r14_network.client[16] 	avg_time[16] 	0.004650219274
scalar tree_4_3_u04_r14_network.client[17] 	hdistance[17] 	3.0481021219038
scalar tree_4_3_u04_r14_network.client[17] 	downloads[17] 	11829
scalar tree_4_3_u04_r14_network.client[17] 	avg_time[17] 	0.004623693314
scalar tree_4_3_u04_r14_network.client[18] 	hdistance[18] 	3.0473000909617
scalar tree_4_3_u04_r14_network.client[18] 	downloads[18] 	12093
scalar tree_4_3_u04_r14_network.client[18] 	avg_time[18] 	0.004622671279
scalar tree_4_3_u04_r14_network.client[19] 	hdistance[19] 	3.0244209466264
scalar tree_4_3_u04_r14_network.client[19] 	downloads[19] 	11916
scalar tree_4_3_u04_r14_network.client[19] 	avg_time[19] 	0.00458776278
scalar tree_4_3_u04_r14_network.client[20] 	hdistance[20] 	3.0326363263633
scalar tree_4_3_u04_r14_network.client[20] 	downloads[20] 	12195
scalar tree_4_3_u04_r14_network.client[20] 	avg_time[20] 	0.004600394707
scalar tree_4_3_u04_r14_network.client[21] 	hdistance[21] 	3.035929144385
scalar tree_4_3_u04_r14_network.client[21] 	downloads[21] 	11968
scalar tree_4_3_u04_r14_network.client[21] 	avg_time[21] 	0.004603606634
scalar tree_4_3_u04_r14_network.client[22] 	hdistance[22] 	3.0407101568951
scalar tree_4_3_u04_r14_network.client[22] 	downloads[22] 	12110
scalar tree_4_3_u04_r14_network.client[22] 	avg_time[22] 	0.004613195355
scalar tree_4_3_u04_r14_network.client[23] 	hdistance[23] 	3.0306865177833
scalar tree_4_3_u04_r14_network.client[23] 	downloads[23] 	12090
scalar tree_4_3_u04_r14_network.client[23] 	avg_time[23] 	0.004597350169
scalar tree_4_3_u04_r14_network.client[24] 	hdistance[24] 	3.065153253565
scalar tree_4_3_u04_r14_network.client[24] 	downloads[24] 	12202
scalar tree_4_3_u04_r14_network.client[24] 	avg_time[24] 	0.004646940107
scalar tree_4_3_u04_r14_network.client[25] 	hdistance[25] 	3.0249450363606
scalar tree_4_3_u04_r14_network.client[25] 	downloads[25] 	11826
scalar tree_4_3_u04_r14_network.client[25] 	avg_time[25] 	0.004592251379
scalar tree_4_3_u04_r14_network.client[26] 	hdistance[26] 	3.0508559082599
scalar tree_4_3_u04_r14_network.client[26] 	downloads[26] 	12034
scalar tree_4_3_u04_r14_network.client[26] 	avg_time[26] 	0.004627585822
scalar tree_4_3_u04_r14_network.client[27] 	hdistance[27] 	3.0634118037135
scalar tree_4_3_u04_r14_network.client[27] 	downloads[27] 	12064
scalar tree_4_3_u04_r14_network.client[27] 	avg_time[27] 	0.004644996522
scalar tree_4_3_u04_r14_network.client[28] 	hdistance[28] 	3.0419392719342
scalar tree_4_3_u04_r14_network.client[28] 	downloads[28] 	11922
scalar tree_4_3_u04_r14_network.client[28] 	avg_time[28] 	0.004608001555
scalar tree_4_3_u04_r14_network.client[29] 	hdistance[29] 	3.0353843615968
scalar tree_4_3_u04_r14_network.client[29] 	downloads[29] 	12124
scalar tree_4_3_u04_r14_network.client[29] 	avg_time[29] 	0.004605522075
scalar tree_4_3_u04_r14_network.client[30] 	hdistance[30] 	3.0434855048317
scalar tree_4_3_u04_r14_network.client[30] 	downloads[30] 	12004
scalar tree_4_3_u04_r14_network.client[30] 	avg_time[30] 	0.004614958667
scalar tree_4_3_u04_r14_network.client[31] 	hdistance[31] 	3.0143730381629
scalar tree_4_3_u04_r14_network.client[31] 	downloads[31] 	12106
scalar tree_4_3_u04_r14_network.client[31] 	avg_time[31] 	0.004570292664
scalar tree_4_3_u04_r14_network.client[32] 	hdistance[32] 	3.0341310963073
scalar tree_4_3_u04_r14_network.client[32] 	downloads[32] 	12159
scalar tree_4_3_u04_r14_network.client[32] 	avg_time[32] 	0.004601855672
scalar tree_4_3_u04_r14_network.client[33] 	hdistance[33] 	3.0452160879341
scalar tree_4_3_u04_r14_network.client[33] 	downloads[33] 	12009
scalar tree_4_3_u04_r14_network.client[33] 	avg_time[33] 	0.004613536843
scalar tree_4_3_u04_r14_network.client[34] 	hdistance[34] 	3.0729811068383
scalar tree_4_3_u04_r14_network.client[34] 	downloads[34] 	11962
scalar tree_4_3_u04_r14_network.client[34] 	avg_time[34] 	0.00466510318
scalar tree_4_3_u04_r14_network.client[35] 	hdistance[35] 	3.0080039607228
scalar tree_4_3_u04_r14_network.client[35] 	downloads[35] 	12119
scalar tree_4_3_u04_r14_network.client[35] 	avg_time[35] 	0.004563904871
scalar tree_4_3_u04_r14_network.client[36] 	hdistance[36] 	3.0361573620633
scalar tree_4_3_u04_r14_network.client[36] 	downloads[36] 	12252
scalar tree_4_3_u04_r14_network.client[36] 	avg_time[36] 	0.004605775576
scalar tree_4_3_u04_r14_network.client[37] 	hdistance[37] 	3.0399594491848
scalar tree_4_3_u04_r14_network.client[37] 	downloads[37] 	11837
scalar tree_4_3_u04_r14_network.client[37] 	avg_time[37] 	0.004617383218
scalar tree_4_3_u04_r14_network.client[38] 	hdistance[38] 	3.0263971263888
scalar tree_4_3_u04_r14_network.client[38] 	downloads[38] 	11971
scalar tree_4_3_u04_r14_network.client[38] 	avg_time[38] 	0.00459145071
scalar tree_4_3_u04_r14_network.client[39] 	hdistance[39] 	3.0490883590463
scalar tree_4_3_u04_r14_network.client[39] 	downloads[39] 	12121
scalar tree_4_3_u04_r14_network.client[39] 	avg_time[39] 	0.004625343098
