version 2
run General-86-20160820-04:06:03-14346
attr a 0.9
attr cd fix0.1
attr configname General
attr cr lru
attr datetime 20160820-04:06:03
attr experiment General
attr fsize 1
attr inifile hw5115/scenario_A/SPR-FIX0.1.ini
attr iterationvars "$name=tree_4_3, $un=04, $rep=7, $cd=fix0.1, $cr=lru, $fsize=1, $a=0.9, $sl=spr, $ttl=1000, $variance=0.05"
attr iterationvars2 "$name=tree_4_3, $un=04, $rep=7, $cd=fix0.1, $cr=lru, $fsize=1, $a=0.9, $sl=spr, $ttl=1000, $variance=0.05, $repetition=0"
attr measurement "$name=tree_4_3, $un=04, $rep=7, $cd=fix0.1, $cr=lru, $fsize=1, $a=0.9, $sl=spr, $ttl=1000, $variance=0.05"
attr name tree_4_3
attr network networks.${name}_u${un}_r${rep}_network
attr processid 14346
attr rep 7
attr repetition 0
attr replication #0
attr resultdir results
attr runnumber 86
attr seedset 7
attr sl spr
attr ttl 1000
attr un 04
attr variance 0.05

scalar . 	a 	0.9
scalar . 	fsize 	1
scalar . 	rep 	7
scalar . 	ttl 	1000
scalar . 	un 	04
scalar . 	variance 	0.05
scalar tree_4_3_u04_r7_network.content_distribution 	repo-0 	0
scalar tree_4_3_u04_r7_network.content_distribution 	client-0 	13
scalar tree_4_3_u04_r7_network.content_distribution 	client-1 	14
scalar tree_4_3_u04_r7_network.content_distribution 	client-2 	15
scalar tree_4_3_u04_r7_network.content_distribution 	client-3 	16
scalar tree_4_3_u04_r7_network.content_distribution 	client-4 	17
scalar tree_4_3_u04_r7_network.content_distribution 	client-5 	18
scalar tree_4_3_u04_r7_network.content_distribution 	client-6 	19
scalar tree_4_3_u04_r7_network.content_distribution 	client-7 	20
scalar tree_4_3_u04_r7_network.content_distribution 	client-8 	21
scalar tree_4_3_u04_r7_network.content_distribution 	client-9 	22
scalar tree_4_3_u04_r7_network.content_distribution 	client-10 	23
scalar tree_4_3_u04_r7_network.content_distribution 	client-11 	24
scalar tree_4_3_u04_r7_network.content_distribution 	client-12 	25
scalar tree_4_3_u04_r7_network.content_distribution 	client-13 	26
scalar tree_4_3_u04_r7_network.content_distribution 	client-14 	27
scalar tree_4_3_u04_r7_network.content_distribution 	client-15 	28
scalar tree_4_3_u04_r7_network.content_distribution 	client-16 	29
scalar tree_4_3_u04_r7_network.content_distribution 	client-17 	30
scalar tree_4_3_u04_r7_network.content_distribution 	client-18 	31
scalar tree_4_3_u04_r7_network.content_distribution 	client-19 	32
scalar tree_4_3_u04_r7_network.content_distribution 	client-20 	33
scalar tree_4_3_u04_r7_network.content_distribution 	client-21 	34
scalar tree_4_3_u04_r7_network.content_distribution 	client-22 	35
scalar tree_4_3_u04_r7_network.content_distribution 	client-23 	36
scalar tree_4_3_u04_r7_network.content_distribution 	client-24 	37
scalar tree_4_3_u04_r7_network.content_distribution 	client-25 	38
scalar tree_4_3_u04_r7_network.content_distribution 	client-26 	39
scalar tree_4_3_u04_r7_network.content_distribution 	repo-0_card 	100000
scalar tree_4_3_u04_r7_network.content_distribution 	repo-0_price 	0
scalar tree_4_3_u04_r7_network.statistics 	stabilization_time 	1035.9
scalar tree_4_3_u04_r7_network.statistics 	p_hit 	0.15044991104882
scalar tree_4_3_u04_r7_network.statistics 	interests 	26694.4
scalar tree_4_3_u04_r7_network.statistics 	data 	18614.5
scalar tree_4_3_u04_r7_network.statistics 	hdistance 	3.0366915742606
scalar tree_4_3_u04_r7_network.statistics 	avg_time 	0.004607551414
scalar tree_4_3_u04_r7_network.statistics 	downloads 	323196
scalar tree_4_3_u04_r7_network.statistics 	total_cost 	0
scalar tree_4_3_u04_r7_network.statistics 	total_replicas 	100000
scalar tree_4_3_u04_r7_network.statistics 	inner_hit 	0.26715058354683
scalar tree_4_3_u04_r7_network.node[0].core_layer 	interests[0] 	241307
scalar tree_4_3_u04_r7_network.node[0].core_layer 	repo_load[0] 	236854
scalar tree_4_3_u04_r7_network.node[0].core_layer 	data[0] 	0
scalar tree_4_3_u04_r7_network.node[0].core_layer 	repo_int[0] 	236854
scalar tree_4_3_u04_r7_network.node[0].content_store 	p_hit[0] 	0.018453671049742
scalar tree_4_3_u04_r7_network.node[0].content_store 	hits[0] 	4453
scalar tree_4_3_u04_r7_network.node[0].content_store 	misses[0] 	236854
scalar tree_4_3_u04_r7_network.node[0].content_store 	decision_yes[0] 	23692
scalar tree_4_3_u04_r7_network.node[0].content_store 	decision_no[0] 	213162
scalar tree_4_3_u04_r7_network.node[0].content_store 	decision_ratio[0] 	0.10002786526721
scalar tree_4_3_u04_r7_network.node[1].core_layer 	interests[1] 	82288
scalar tree_4_3_u04_r7_network.node[1].core_layer 	data[1] 	80176
scalar tree_4_3_u04_r7_network.node[1].content_store 	p_hit[1] 	0.025665953723508
scalar tree_4_3_u04_r7_network.node[1].content_store 	hits[1] 	2112
scalar tree_4_3_u04_r7_network.node[1].content_store 	misses[1] 	80176
scalar tree_4_3_u04_r7_network.node[1].content_store 	decision_yes[1] 	7938
scalar tree_4_3_u04_r7_network.node[1].content_store 	decision_no[1] 	72238
scalar tree_4_3_u04_r7_network.node[1].content_store 	decision_ratio[1] 	0.099007184194772
scalar tree_4_3_u04_r7_network.node[2].core_layer 	interests[2] 	82682
scalar tree_4_3_u04_r7_network.node[2].core_layer 	data[2] 	80729
scalar tree_4_3_u04_r7_network.node[2].content_store 	p_hit[2] 	0.023572240632786
scalar tree_4_3_u04_r7_network.node[2].content_store 	hits[2] 	1949
scalar tree_4_3_u04_r7_network.node[2].content_store 	misses[2] 	80733
scalar tree_4_3_u04_r7_network.node[2].content_store 	decision_yes[2] 	7977
scalar tree_4_3_u04_r7_network.node[2].content_store 	decision_no[2] 	72752
scalar tree_4_3_u04_r7_network.node[2].content_store 	decision_ratio[2] 	0.098812074966864
scalar tree_4_3_u04_r7_network.node[3].core_layer 	interests[3] 	82463
scalar tree_4_3_u04_r7_network.node[3].core_layer 	data[3] 	80403
scalar tree_4_3_u04_r7_network.node[3].content_store 	p_hit[3] 	0.024968773874344
scalar tree_4_3_u04_r7_network.node[3].content_store 	hits[3] 	2059
scalar tree_4_3_u04_r7_network.node[3].content_store 	misses[3] 	80404
scalar tree_4_3_u04_r7_network.node[3].content_store 	decision_yes[3] 	8140
scalar tree_4_3_u04_r7_network.node[3].content_store 	decision_no[3] 	72263
scalar tree_4_3_u04_r7_network.node[3].content_store 	decision_ratio[3] 	0.10124000348246
scalar tree_4_3_u04_r7_network.node[4].core_layer 	interests[4] 	28047
scalar tree_4_3_u04_r7_network.node[4].core_layer 	data[4] 	27131
scalar tree_4_3_u04_r7_network.node[4].content_store 	p_hit[4] 	0.032552501158769
scalar tree_4_3_u04_r7_network.node[4].content_store 	hits[4] 	913
scalar tree_4_3_u04_r7_network.node[4].content_store 	misses[4] 	27134
scalar tree_4_3_u04_r7_network.node[4].content_store 	decision_yes[4] 	2671
scalar tree_4_3_u04_r7_network.node[4].content_store 	decision_no[4] 	24460
scalar tree_4_3_u04_r7_network.node[4].content_store 	decision_ratio[4] 	0.098448269507206
scalar tree_4_3_u04_r7_network.node[5].core_layer 	interests[5] 	38056
scalar tree_4_3_u04_r7_network.node[5].core_layer 	data[5] 	36761
scalar tree_4_3_u04_r7_network.node[5].content_store 	p_hit[5] 	0.034002522598276
scalar tree_4_3_u04_r7_network.node[5].content_store 	hits[5] 	1294
scalar tree_4_3_u04_r7_network.node[5].content_store 	misses[5] 	36762
scalar tree_4_3_u04_r7_network.node[5].content_store 	decision_yes[5] 	3742
scalar tree_4_3_u04_r7_network.node[5].content_store 	decision_no[5] 	33019
scalar tree_4_3_u04_r7_network.node[5].content_store 	decision_ratio[5] 	0.1017926607002
scalar tree_4_3_u04_r7_network.node[6].core_layer 	interests[6] 	19071
scalar tree_4_3_u04_r7_network.node[6].core_layer 	data[6] 	18396
scalar tree_4_3_u04_r7_network.node[6].content_store 	p_hit[6] 	0.035394053798962
scalar tree_4_3_u04_r7_network.node[6].content_store 	hits[6] 	675
scalar tree_4_3_u04_r7_network.node[6].content_store 	misses[6] 	18396
scalar tree_4_3_u04_r7_network.node[6].content_store 	decision_yes[6] 	1798
scalar tree_4_3_u04_r7_network.node[6].content_store 	decision_no[6] 	16598
scalar tree_4_3_u04_r7_network.node[6].content_store 	decision_ratio[6] 	0.097738638834529
scalar tree_4_3_u04_r7_network.node[7].core_layer 	interests[7] 	38105
scalar tree_4_3_u04_r7_network.node[7].core_layer 	data[7] 	36923
scalar tree_4_3_u04_r7_network.node[7].content_store 	p_hit[7] 	0.031019551239995
scalar tree_4_3_u04_r7_network.node[7].content_store 	hits[7] 	1182
scalar tree_4_3_u04_r7_network.node[7].content_store 	misses[7] 	36923
scalar tree_4_3_u04_r7_network.node[7].content_store 	decision_yes[7] 	3631
scalar tree_4_3_u04_r7_network.node[7].content_store 	decision_no[7] 	33292
scalar tree_4_3_u04_r7_network.node[7].content_store 	decision_ratio[7] 	0.098339788207892
scalar tree_4_3_u04_r7_network.node[8].core_layer 	interests[8] 	28508
scalar tree_4_3_u04_r7_network.node[8].core_layer 	data[8] 	27551
scalar tree_4_3_u04_r7_network.node[8].content_store 	p_hit[8] 	0.033534446471166
scalar tree_4_3_u04_r7_network.node[8].content_store 	hits[8] 	956
scalar tree_4_3_u04_r7_network.node[8].content_store 	misses[8] 	27552
scalar tree_4_3_u04_r7_network.node[8].content_store 	decision_yes[8] 	2762
scalar tree_4_3_u04_r7_network.node[8].content_store 	decision_no[8] 	24789
scalar tree_4_3_u04_r7_network.node[8].content_store 	decision_ratio[8] 	0.10025044462996
scalar tree_4_3_u04_r7_network.node[9].core_layer 	interests[9] 	18903
scalar tree_4_3_u04_r7_network.node[9].core_layer 	data[9] 	18208
scalar tree_4_3_u04_r7_network.node[9].content_store 	p_hit[9] 	0.03676665079617
scalar tree_4_3_u04_r7_network.node[9].content_store 	hits[9] 	695
scalar tree_4_3_u04_r7_network.node[9].content_store 	misses[9] 	18208
scalar tree_4_3_u04_r7_network.node[9].content_store 	decision_yes[9] 	1804
scalar tree_4_3_u04_r7_network.node[9].content_store 	decision_no[9] 	16404
scalar tree_4_3_u04_r7_network.node[9].content_store 	decision_ratio[9] 	0.099077328646749
scalar tree_4_3_u04_r7_network.node[10].core_layer 	interests[10] 	28530
scalar tree_4_3_u04_r7_network.node[10].core_layer 	data[10] 	27586
scalar tree_4_3_u04_r7_network.node[10].content_store 	p_hit[10] 	0.033123028391167
scalar tree_4_3_u04_r7_network.node[10].content_store 	hits[10] 	945
scalar tree_4_3_u04_r7_network.node[10].content_store 	misses[10] 	27585
scalar tree_4_3_u04_r7_network.node[10].content_store 	decision_yes[10] 	2835
scalar tree_4_3_u04_r7_network.node[10].content_store 	decision_no[10] 	24751
scalar tree_4_3_u04_r7_network.node[10].content_store 	decision_ratio[10] 	0.10276952077141
scalar tree_4_3_u04_r7_network.node[11].core_layer 	interests[11] 	28470
scalar tree_4_3_u04_r7_network.node[11].core_layer 	data[11] 	27568
scalar tree_4_3_u04_r7_network.node[11].content_store 	p_hit[11] 	0.031682472778363
scalar tree_4_3_u04_r7_network.node[11].content_store 	hits[11] 	902
scalar tree_4_3_u04_r7_network.node[11].content_store 	misses[11] 	27568
scalar tree_4_3_u04_r7_network.node[11].content_store 	decision_yes[11] 	2790
scalar tree_4_3_u04_r7_network.node[11].content_store 	decision_no[11] 	24778
scalar tree_4_3_u04_r7_network.node[11].content_store 	decision_ratio[11] 	0.10120429483459
scalar tree_4_3_u04_r7_network.node[12].core_layer 	interests[12] 	28147
scalar tree_4_3_u04_r7_network.node[12].core_layer 	data[12] 	27310
scalar tree_4_3_u04_r7_network.node[12].content_store 	p_hit[12] 	0.029772267026681
scalar tree_4_3_u04_r7_network.node[12].content_store 	hits[12] 	838
scalar tree_4_3_u04_r7_network.node[12].content_store 	misses[12] 	27309
scalar tree_4_3_u04_r7_network.node[12].content_store 	decision_yes[12] 	2651
scalar tree_4_3_u04_r7_network.node[12].content_store 	decision_no[12] 	24659
scalar tree_4_3_u04_r7_network.node[12].content_store 	decision_ratio[12] 	0.097070670084218
scalar tree_4_3_u04_r7_network.node[13].core_layer 	interests[13] 	12048
scalar tree_4_3_u04_r7_network.node[13].core_layer 	data[13] 	9457
scalar tree_4_3_u04_r7_network.node[13].content_store 	p_hit[13] 	0.21505644090305
scalar tree_4_3_u04_r7_network.node[13].content_store 	hits[13] 	2591
scalar tree_4_3_u04_r7_network.node[13].content_store 	misses[13] 	9457
scalar tree_4_3_u04_r7_network.node[13].content_store 	decision_yes[13] 	923
scalar tree_4_3_u04_r7_network.node[13].content_store 	decision_no[13] 	8534
scalar tree_4_3_u04_r7_network.node[13].content_store 	decision_ratio[13] 	0.097599661626309
scalar tree_4_3_u04_r7_network.node[14].core_layer 	interests[14] 	11559
scalar tree_4_3_u04_r7_network.node[14].core_layer 	data[14] 	9146
scalar tree_4_3_u04_r7_network.node[14].content_store 	p_hit[14] 	0.2087550826196
scalar tree_4_3_u04_r7_network.node[14].content_store 	hits[14] 	2413
scalar tree_4_3_u04_r7_network.node[14].content_store 	misses[14] 	9146
scalar tree_4_3_u04_r7_network.node[14].content_store 	decision_yes[14] 	948
scalar tree_4_3_u04_r7_network.node[14].content_store 	decision_no[14] 	8198
scalar tree_4_3_u04_r7_network.node[14].content_store 	decision_ratio[14] 	0.1036518696698
scalar tree_4_3_u04_r7_network.node[15].core_layer 	interests[15] 	11956
scalar tree_4_3_u04_r7_network.node[15].core_layer 	data[15] 	9444
scalar tree_4_3_u04_r7_network.node[15].content_store 	p_hit[15] 	0.21002007360321
scalar tree_4_3_u04_r7_network.node[15].content_store 	hits[15] 	2511
scalar tree_4_3_u04_r7_network.node[15].content_store 	misses[15] 	9445
scalar tree_4_3_u04_r7_network.node[15].content_store 	decision_yes[15] 	992
scalar tree_4_3_u04_r7_network.node[15].content_store 	decision_no[15] 	8452
scalar tree_4_3_u04_r7_network.node[15].content_store 	decision_ratio[15] 	0.10504023718763
scalar tree_4_3_u04_r7_network.node[16].core_layer 	interests[16] 	11967
scalar tree_4_3_u04_r7_network.node[16].core_layer 	data[16] 	9541
scalar tree_4_3_u04_r7_network.node[16].content_store 	p_hit[16] 	0.20272415810145
scalar tree_4_3_u04_r7_network.node[16].content_store 	hits[16] 	2426
scalar tree_4_3_u04_r7_network.node[16].content_store 	misses[16] 	9541
scalar tree_4_3_u04_r7_network.node[16].content_store 	decision_yes[16] 	970
scalar tree_4_3_u04_r7_network.node[16].content_store 	decision_no[16] 	8571
scalar tree_4_3_u04_r7_network.node[16].content_store 	decision_ratio[16] 	0.10166649198197
scalar tree_4_3_u04_r7_network.node[17].core_layer 	interests[17] 	11861
scalar tree_4_3_u04_r7_network.node[17].core_layer 	data[17] 	9383
scalar tree_4_3_u04_r7_network.node[17].content_store 	p_hit[17] 	0.20883567995953
scalar tree_4_3_u04_r7_network.node[17].content_store 	hits[17] 	2477
scalar tree_4_3_u04_r7_network.node[17].content_store 	misses[17] 	9384
scalar tree_4_3_u04_r7_network.node[17].content_store 	decision_yes[17] 	868
scalar tree_4_3_u04_r7_network.node[17].content_store 	decision_no[17] 	8515
scalar tree_4_3_u04_r7_network.node[17].content_store 	decision_ratio[17] 	0.092507726739849
scalar tree_4_3_u04_r7_network.node[18].core_layer 	interests[18] 	12105
scalar tree_4_3_u04_r7_network.node[18].core_layer 	data[18] 	9542
scalar tree_4_3_u04_r7_network.node[18].content_store 	p_hit[18] 	0.2117306897976
scalar tree_4_3_u04_r7_network.node[18].content_store 	hits[18] 	2563
scalar tree_4_3_u04_r7_network.node[18].content_store 	misses[18] 	9542
scalar tree_4_3_u04_r7_network.node[18].content_store 	decision_yes[18] 	963
scalar tree_4_3_u04_r7_network.node[18].content_store 	decision_no[18] 	8579
scalar tree_4_3_u04_r7_network.node[18].content_store 	decision_ratio[18] 	0.10092223852442
scalar tree_4_3_u04_r7_network.node[19].core_layer 	interests[19] 	12060
scalar tree_4_3_u04_r7_network.node[19].core_layer 	data[19] 	9574
scalar tree_4_3_u04_r7_network.node[19].content_store 	p_hit[19] 	0.206135986733
scalar tree_4_3_u04_r7_network.node[19].content_store 	hits[19] 	2486
scalar tree_4_3_u04_r7_network.node[19].content_store 	misses[19] 	9574
scalar tree_4_3_u04_r7_network.node[19].content_store 	decision_yes[19] 	950
scalar tree_4_3_u04_r7_network.node[19].content_store 	decision_no[19] 	8624
scalar tree_4_3_u04_r7_network.node[19].content_store 	decision_ratio[19] 	0.099227073323585
scalar tree_4_3_u04_r7_network.node[20].core_layer 	interests[20] 	12028
scalar tree_4_3_u04_r7_network.node[20].core_layer 	data[20] 	9590
scalar tree_4_3_u04_r7_network.node[20].content_store 	p_hit[20] 	0.20277685400732
scalar tree_4_3_u04_r7_network.node[20].content_store 	hits[20] 	2439
scalar tree_4_3_u04_r7_network.node[20].content_store 	misses[20] 	9589
scalar tree_4_3_u04_r7_network.node[20].content_store 	decision_yes[20] 	963
scalar tree_4_3_u04_r7_network.node[20].content_store 	decision_no[20] 	8627
scalar tree_4_3_u04_r7_network.node[20].content_store 	decision_ratio[20] 	0.10041710114703
scalar tree_4_3_u04_r7_network.node[21].core_layer 	interests[21] 	11985
scalar tree_4_3_u04_r7_network.node[21].core_layer 	data[21] 	9497
scalar tree_4_3_u04_r7_network.node[21].content_store 	p_hit[21] 	0.20759282436379
scalar tree_4_3_u04_r7_network.node[21].content_store 	hits[21] 	2488
scalar tree_4_3_u04_r7_network.node[21].content_store 	misses[21] 	9497
scalar tree_4_3_u04_r7_network.node[21].content_store 	decision_yes[21] 	962
scalar tree_4_3_u04_r7_network.node[21].content_store 	decision_no[21] 	8535
scalar tree_4_3_u04_r7_network.node[21].content_store 	decision_ratio[21] 	0.10129514583553
scalar tree_4_3_u04_r7_network.node[22].core_layer 	interests[22] 	11954
scalar tree_4_3_u04_r7_network.node[22].core_layer 	data[22] 	9385
scalar tree_4_3_u04_r7_network.node[22].content_store 	p_hit[22] 	0.2149071440522
scalar tree_4_3_u04_r7_network.node[22].content_store 	hits[22] 	2569
scalar tree_4_3_u04_r7_network.node[22].content_store 	misses[22] 	9385
scalar tree_4_3_u04_r7_network.node[22].content_store 	decision_yes[22] 	918
scalar tree_4_3_u04_r7_network.node[22].content_store 	decision_no[22] 	8467
scalar tree_4_3_u04_r7_network.node[22].content_store 	decision_ratio[22] 	0.097815663292488
scalar tree_4_3_u04_r7_network.node[23].core_layer 	interests[23] 	12033
scalar tree_4_3_u04_r7_network.node[23].core_layer 	data[23] 	9529
scalar tree_4_3_u04_r7_network.node[23].content_store 	p_hit[23] 	0.20809440704729
scalar tree_4_3_u04_r7_network.node[23].content_store 	hits[23] 	2504
scalar tree_4_3_u04_r7_network.node[23].content_store 	misses[23] 	9529
scalar tree_4_3_u04_r7_network.node[23].content_store 	decision_yes[23] 	927
scalar tree_4_3_u04_r7_network.node[23].content_store 	decision_no[23] 	8602
scalar tree_4_3_u04_r7_network.node[23].content_store 	decision_ratio[23] 	0.09728198132018
scalar tree_4_3_u04_r7_network.node[24].core_layer 	interests[24] 	12192
scalar tree_4_3_u04_r7_network.node[24].core_layer 	data[24] 	9755
scalar tree_4_3_u04_r7_network.node[24].content_store 	p_hit[24] 	0.1998031496063
scalar tree_4_3_u04_r7_network.node[24].content_store 	hits[24] 	2436
scalar tree_4_3_u04_r7_network.node[24].content_store 	misses[24] 	9756
scalar tree_4_3_u04_r7_network.node[24].content_store 	decision_yes[24] 	1041
scalar tree_4_3_u04_r7_network.node[24].content_store 	decision_no[24] 	8714
scalar tree_4_3_u04_r7_network.node[24].content_store 	decision_ratio[24] 	0.10671450538186
scalar tree_4_3_u04_r7_network.node[25].core_layer 	interests[25] 	11922
scalar tree_4_3_u04_r7_network.node[25].core_layer 	data[25] 	9436
scalar tree_4_3_u04_r7_network.node[25].content_store 	p_hit[25] 	0.20852206005704
scalar tree_4_3_u04_r7_network.node[25].content_store 	hits[25] 	2486
scalar tree_4_3_u04_r7_network.node[25].content_store 	misses[25] 	9436
scalar tree_4_3_u04_r7_network.node[25].content_store 	decision_yes[25] 	959
scalar tree_4_3_u04_r7_network.node[25].content_store 	decision_no[25] 	8477
scalar tree_4_3_u04_r7_network.node[25].content_store 	decision_ratio[25] 	0.10163204747774
scalar tree_4_3_u04_r7_network.node[26].core_layer 	interests[26] 	11875
scalar tree_4_3_u04_r7_network.node[26].core_layer 	data[26] 	9407
scalar tree_4_3_u04_r7_network.node[26].content_store 	p_hit[26] 	0.20783157894737
scalar tree_4_3_u04_r7_network.node[26].content_store 	hits[26] 	2468
scalar tree_4_3_u04_r7_network.node[26].content_store 	misses[26] 	9407
scalar tree_4_3_u04_r7_network.node[26].content_store 	decision_yes[26] 	894
scalar tree_4_3_u04_r7_network.node[26].content_store 	decision_no[26] 	8513
scalar tree_4_3_u04_r7_network.node[26].content_store 	decision_ratio[26] 	0.095035611778463
scalar tree_4_3_u04_r7_network.node[27].core_layer 	interests[27] 	12036
scalar tree_4_3_u04_r7_network.node[27].core_layer 	data[27] 	9626
scalar tree_4_3_u04_r7_network.node[27].content_store 	p_hit[27] 	0.20023263542705
scalar tree_4_3_u04_r7_network.node[27].content_store 	hits[27] 	2410
scalar tree_4_3_u04_r7_network.node[27].content_store 	misses[27] 	9626
scalar tree_4_3_u04_r7_network.node[27].content_store 	decision_yes[27] 	970
scalar tree_4_3_u04_r7_network.node[27].content_store 	decision_no[27] 	8656
scalar tree_4_3_u04_r7_network.node[27].content_store 	decision_ratio[27] 	0.10076875129857
scalar tree_4_3_u04_r7_network.node[28].core_layer 	interests[28] 	11918
scalar tree_4_3_u04_r7_network.node[28].core_layer 	data[28] 	9425
scalar tree_4_3_u04_r7_network.node[28].content_store 	p_hit[28] 	0.20909548581977
scalar tree_4_3_u04_r7_network.node[28].content_store 	hits[28] 	2492
scalar tree_4_3_u04_r7_network.node[28].content_store 	misses[28] 	9426
scalar tree_4_3_u04_r7_network.node[28].content_store 	decision_yes[28] 	929
scalar tree_4_3_u04_r7_network.node[28].content_store 	decision_no[28] 	8496
scalar tree_4_3_u04_r7_network.node[28].content_store 	decision_ratio[28] 	0.098567639257294
scalar tree_4_3_u04_r7_network.node[29].core_layer 	interests[29] 	11990
scalar tree_4_3_u04_r7_network.node[29].core_layer 	data[29] 	9474
scalar tree_4_3_u04_r7_network.node[29].content_store 	p_hit[29] 	0.20975813177648
scalar tree_4_3_u04_r7_network.node[29].content_store 	hits[29] 	2515
scalar tree_4_3_u04_r7_network.node[29].content_store 	misses[29] 	9475
scalar tree_4_3_u04_r7_network.node[29].content_store 	decision_yes[29] 	905
scalar tree_4_3_u04_r7_network.node[29].content_store 	decision_no[29] 	8569
scalar tree_4_3_u04_r7_network.node[29].content_store 	decision_ratio[29] 	0.095524593624657
scalar tree_4_3_u04_r7_network.node[30].core_layer 	interests[30] 	12059
scalar tree_4_3_u04_r7_network.node[30].core_layer 	data[30] 	9478
scalar tree_4_3_u04_r7_network.node[30].content_store 	p_hit[30] 	0.21403101418028
scalar tree_4_3_u04_r7_network.node[30].content_store 	hits[30] 	2581
scalar tree_4_3_u04_r7_network.node[30].content_store 	misses[30] 	9478
scalar tree_4_3_u04_r7_network.node[30].content_store 	decision_yes[30] 	950
scalar tree_4_3_u04_r7_network.node[30].content_store 	decision_no[30] 	8528
scalar tree_4_3_u04_r7_network.node[30].content_store 	decision_ratio[30] 	0.10023211648027
scalar tree_4_3_u04_r7_network.node[31].core_layer 	interests[31] 	11945
scalar tree_4_3_u04_r7_network.node[31].core_layer 	data[31] 	9443
scalar tree_4_3_u04_r7_network.node[31].content_store 	p_hit[31] 	0.20954374215153
scalar tree_4_3_u04_r7_network.node[31].content_store 	hits[31] 	2503
scalar tree_4_3_u04_r7_network.node[31].content_store 	misses[31] 	9442
scalar tree_4_3_u04_r7_network.node[31].content_store 	decision_yes[31] 	921
scalar tree_4_3_u04_r7_network.node[31].content_store 	decision_no[31] 	8522
scalar tree_4_3_u04_r7_network.node[31].content_store 	decision_ratio[31] 	0.097532563803876
scalar tree_4_3_u04_r7_network.node[32].core_layer 	interests[32] 	12011
scalar tree_4_3_u04_r7_network.node[32].core_layer 	data[32] 	9488
scalar tree_4_3_u04_r7_network.node[32].content_store 	p_hit[32] 	0.21005744733994
scalar tree_4_3_u04_r7_network.node[32].content_store 	hits[32] 	2523
scalar tree_4_3_u04_r7_network.node[32].content_store 	misses[32] 	9488
scalar tree_4_3_u04_r7_network.node[32].content_store 	decision_yes[32] 	966
scalar tree_4_3_u04_r7_network.node[32].content_store 	decision_no[32] 	8522
scalar tree_4_3_u04_r7_network.node[32].content_store 	decision_ratio[32] 	0.10181281618887
scalar tree_4_3_u04_r7_network.node[33].core_layer 	interests[33] 	11976
scalar tree_4_3_u04_r7_network.node[33].core_layer 	data[33] 	9600
scalar tree_4_3_u04_r7_network.node[33].content_store 	p_hit[33] 	0.19839679358717
scalar tree_4_3_u04_r7_network.node[33].content_store 	hits[33] 	2376
scalar tree_4_3_u04_r7_network.node[33].content_store 	misses[33] 	9600
scalar tree_4_3_u04_r7_network.node[33].content_store 	decision_yes[33] 	972
scalar tree_4_3_u04_r7_network.node[33].content_store 	decision_no[33] 	8628
scalar tree_4_3_u04_r7_network.node[33].content_store 	decision_ratio[33] 	0.10125
scalar tree_4_3_u04_r7_network.node[34].core_layer 	interests[34] 	12145
scalar tree_4_3_u04_r7_network.node[34].core_layer 	data[34] 	9687
scalar tree_4_3_u04_r7_network.node[34].content_store 	p_hit[34] 	0.20238781391519
scalar tree_4_3_u04_r7_network.node[34].content_store 	hits[34] 	2458
scalar tree_4_3_u04_r7_network.node[34].content_store 	misses[34] 	9687
scalar tree_4_3_u04_r7_network.node[34].content_store 	decision_yes[34] 	943
scalar tree_4_3_u04_r7_network.node[34].content_store 	decision_no[34] 	8744
scalar tree_4_3_u04_r7_network.node[34].content_store 	decision_ratio[34] 	0.097346959843089
scalar tree_4_3_u04_r7_network.node[35].core_layer 	interests[35] 	11710
scalar tree_4_3_u04_r7_network.node[35].core_layer 	data[35] 	9250
scalar tree_4_3_u04_r7_network.node[35].content_store 	p_hit[35] 	0.21007685738685
scalar tree_4_3_u04_r7_network.node[35].content_store 	hits[35] 	2460
scalar tree_4_3_u04_r7_network.node[35].content_store 	misses[35] 	9250
scalar tree_4_3_u04_r7_network.node[35].content_store 	decision_yes[35] 	921
scalar tree_4_3_u04_r7_network.node[35].content_store 	decision_no[35] 	8329
scalar tree_4_3_u04_r7_network.node[35].content_store 	decision_ratio[35] 	0.099567567567568
scalar tree_4_3_u04_r7_network.node[36].core_layer 	interests[36] 	11984
scalar tree_4_3_u04_r7_network.node[36].core_layer 	data[36] 	9533
scalar tree_4_3_u04_r7_network.node[36].content_store 	p_hit[36] 	0.20443925233645
scalar tree_4_3_u04_r7_network.node[36].content_store 	hits[36] 	2450
scalar tree_4_3_u04_r7_network.node[36].content_store 	misses[36] 	9534
scalar tree_4_3_u04_r7_network.node[36].content_store 	decision_yes[36] 	973
scalar tree_4_3_u04_r7_network.node[36].content_store 	decision_no[36] 	8560
scalar tree_4_3_u04_r7_network.node[36].content_store 	decision_ratio[36] 	0.10206650582188
scalar tree_4_3_u04_r7_network.node[37].core_layer 	interests[37] 	12055
scalar tree_4_3_u04_r7_network.node[37].core_layer 	data[37] 	9557
scalar tree_4_3_u04_r7_network.node[37].content_store 	p_hit[37] 	0.20721692243882
scalar tree_4_3_u04_r7_network.node[37].content_store 	hits[37] 	2498
scalar tree_4_3_u04_r7_network.node[37].content_store 	misses[37] 	9557
scalar tree_4_3_u04_r7_network.node[37].content_store 	decision_yes[37] 	978
scalar tree_4_3_u04_r7_network.node[37].content_store 	decision_no[37] 	8579
scalar tree_4_3_u04_r7_network.node[37].content_store 	decision_ratio[37] 	0.10233336821178
scalar tree_4_3_u04_r7_network.node[38].core_layer 	interests[38] 	11864
scalar tree_4_3_u04_r7_network.node[38].core_layer 	data[38] 	9240
scalar tree_4_3_u04_r7_network.node[38].content_store 	p_hit[38] 	0.2211732973702
scalar tree_4_3_u04_r7_network.node[38].content_store 	hits[38] 	2624
scalar tree_4_3_u04_r7_network.node[38].content_store 	misses[38] 	9240
scalar tree_4_3_u04_r7_network.node[38].content_store 	decision_yes[38] 	924
scalar tree_4_3_u04_r7_network.node[38].content_store 	decision_no[38] 	8316
scalar tree_4_3_u04_r7_network.node[38].content_store 	decision_ratio[38] 	0.1
scalar tree_4_3_u04_r7_network.node[39].core_layer 	interests[39] 	11961
scalar tree_4_3_u04_r7_network.node[39].core_layer 	data[39] 	9351
scalar tree_4_3_u04_r7_network.node[39].content_store 	p_hit[39] 	0.21829278488421
scalar tree_4_3_u04_r7_network.node[39].content_store 	hits[39] 	2611
scalar tree_4_3_u04_r7_network.node[39].content_store 	misses[39] 	9350
scalar tree_4_3_u04_r7_network.node[39].content_store 	decision_yes[39] 	983
scalar tree_4_3_u04_r7_network.node[39].content_store 	decision_no[39] 	8368
scalar tree_4_3_u04_r7_network.node[39].content_store 	decision_ratio[39] 	0.10512244679713
scalar tree_4_3_u04_r7_network.client[13] 	hdistance[13] 	3.0046480743692
scalar tree_4_3_u04_r7_network.client[13] 	downloads[13] 	12048
scalar tree_4_3_u04_r7_network.client[13] 	avg_time[13] 	0.004559631199
scalar tree_4_3_u04_r7_network.client[14] 	hdistance[14] 	3.039709317415
scalar tree_4_3_u04_r7_network.client[14] 	downloads[14] 	11559
scalar tree_4_3_u04_r7_network.client[14] 	avg_time[14] 	0.004610430529
scalar tree_4_3_u04_r7_network.client[15] 	hdistance[15] 	3.0306984525303
scalar tree_4_3_u04_r7_network.client[15] 	downloads[15] 	11955
scalar tree_4_3_u04_r7_network.client[15] 	avg_time[15] 	0.004599802407
scalar tree_4_3_u04_r7_network.client[16] 	hdistance[16] 	3.046628227626
scalar tree_4_3_u04_r7_network.client[16] 	downloads[16] 	11967
scalar tree_4_3_u04_r7_network.client[16] 	avg_time[16] 	0.004626553367
scalar tree_4_3_u04_r7_network.client[17] 	hdistance[17] 	3.0381956155143
scalar tree_4_3_u04_r7_network.client[17] 	downloads[17] 	11860
scalar tree_4_3_u04_r7_network.client[17] 	avg_time[17] 	0.004609979929
scalar tree_4_3_u04_r7_network.client[18] 	hdistance[18] 	3.0255266418835
scalar tree_4_3_u04_r7_network.client[18] 	downloads[18] 	12105
scalar tree_4_3_u04_r7_network.client[18] 	avg_time[18] 	0.004593210501
scalar tree_4_3_u04_r7_network.client[19] 	hdistance[19] 	3.0349087893864
scalar tree_4_3_u04_r7_network.client[19] 	downloads[19] 	12060
scalar tree_4_3_u04_r7_network.client[19] 	avg_time[19] 	0.004606132979
scalar tree_4_3_u04_r7_network.client[20] 	hdistance[20] 	3.0421481419902
scalar tree_4_3_u04_r7_network.client[20] 	downloads[20] 	12029
scalar tree_4_3_u04_r7_network.client[20] 	avg_time[20] 	0.004623157687
scalar tree_4_3_u04_r7_network.client[21] 	hdistance[21] 	3.0397997496871
scalar tree_4_3_u04_r7_network.client[21] 	downloads[21] 	11985
scalar tree_4_3_u04_r7_network.client[21] 	avg_time[21] 	0.004610760448
scalar tree_4_3_u04_r7_network.client[22] 	hdistance[22] 	3.0130500250962
scalar tree_4_3_u04_r7_network.client[22] 	downloads[22] 	11954
scalar tree_4_3_u04_r7_network.client[22] 	avg_time[22] 	0.004572065159
scalar tree_4_3_u04_r7_network.client[23] 	hdistance[23] 	3.0419679215491
scalar tree_4_3_u04_r7_network.client[23] 	downloads[23] 	12033
scalar tree_4_3_u04_r7_network.client[23] 	avg_time[23] 	0.004613809004
scalar tree_4_3_u04_r7_network.client[24] 	hdistance[24] 	3.0658682634731
scalar tree_4_3_u04_r7_network.client[24] 	downloads[24] 	12191
scalar tree_4_3_u04_r7_network.client[24] 	avg_time[24] 	0.004656661803
scalar tree_4_3_u04_r7_network.client[25] 	hdistance[25] 	3.050411004865
scalar tree_4_3_u04_r7_network.client[25] 	downloads[25] 	11922
scalar tree_4_3_u04_r7_network.client[25] 	avg_time[25] 	0.004624960162
scalar tree_4_3_u04_r7_network.client[26] 	hdistance[26] 	3.0418526315789
scalar tree_4_3_u04_r7_network.client[26] 	downloads[26] 	11875
scalar tree_4_3_u04_r7_network.client[26] 	avg_time[26] 	0.004613049683
scalar tree_4_3_u04_r7_network.client[27] 	hdistance[27] 	3.0652210036557
scalar tree_4_3_u04_r7_network.client[27] 	downloads[27] 	12036
scalar tree_4_3_u04_r7_network.client[27] 	avg_time[27] 	0.004649372514
scalar tree_4_3_u04_r7_network.client[28] 	hdistance[28] 	3.0298732902576
scalar tree_4_3_u04_r7_network.client[28] 	downloads[28] 	11917
scalar tree_4_3_u04_r7_network.client[28] 	avg_time[28] 	0.004595976092
scalar tree_4_3_u04_r7_network.client[29] 	hdistance[29] 	3.0379514555009
scalar tree_4_3_u04_r7_network.client[29] 	downloads[29] 	11989
scalar tree_4_3_u04_r7_network.client[29] 	avg_time[29] 	0.004606998576
scalar tree_4_3_u04_r7_network.client[30] 	hdistance[30] 	3.0088730408823
scalar tree_4_3_u04_r7_network.client[30] 	downloads[30] 	12059
scalar tree_4_3_u04_r7_network.client[30] 	avg_time[30] 	0.004563227754
scalar tree_4_3_u04_r7_network.client[31] 	hdistance[31] 	3.0225179976561
scalar tree_4_3_u04_r7_network.client[31] 	downloads[31] 	11946
scalar tree_4_3_u04_r7_network.client[31] 	avg_time[31] 	0.004589483033
scalar tree_4_3_u04_r7_network.client[32] 	hdistance[32] 	3.0366330863375
scalar tree_4_3_u04_r7_network.client[32] 	downloads[32] 	12011
scalar tree_4_3_u04_r7_network.client[32] 	avg_time[32] 	0.004605941523
scalar tree_4_3_u04_r7_network.client[33] 	hdistance[33] 	3.0809118236473
scalar tree_4_3_u04_r7_network.client[33] 	downloads[33] 	11976
scalar tree_4_3_u04_r7_network.client[33] 	avg_time[33] 	0.004671673682
scalar tree_4_3_u04_r7_network.client[34] 	hdistance[34] 	3.062083161795
scalar tree_4_3_u04_r7_network.client[34] 	downloads[34] 	12145
scalar tree_4_3_u04_r7_network.client[34] 	avg_time[34] 	0.004646024131
scalar tree_4_3_u04_r7_network.client[35] 	hdistance[35] 	3.030315969257
scalar tree_4_3_u04_r7_network.client[35] 	downloads[35] 	11710
scalar tree_4_3_u04_r7_network.client[35] 	avg_time[35] 	0.004598289127
scalar tree_4_3_u04_r7_network.client[36] 	hdistance[36] 	3.0522406742886
scalar tree_4_3_u04_r7_network.client[36] 	downloads[36] 	11983
scalar tree_4_3_u04_r7_network.client[36] 	avg_time[36] 	0.004631321622
scalar tree_4_3_u04_r7_network.client[37] 	hdistance[37] 	3.0335960182497
scalar tree_4_3_u04_r7_network.client[37] 	downloads[37] 	12055
scalar tree_4_3_u04_r7_network.client[37] 	avg_time[37] 	0.004605886698
scalar tree_4_3_u04_r7_network.client[38] 	hdistance[38] 	2.9993256911666
scalar tree_4_3_u04_r7_network.client[38] 	downloads[38] 	11864
scalar tree_4_3_u04_r7_network.client[38] 	avg_time[38] 	0.004548848644
scalar tree_4_3_u04_r7_network.client[39] 	hdistance[39] 	3.0157164353787
scalar tree_4_3_u04_r7_network.client[39] 	downloads[39] 	11962
scalar tree_4_3_u04_r7_network.client[39] 	avg_time[39] 	0.004570639934
