version 2
run General-80-20160820-03:59:31-14346
attr a 0.9
attr cd fix0.1
attr configname General
attr cr lru
attr datetime 20160820-03:59:31
attr experiment General
attr fsize 1
attr inifile hw5115/scenario_A/SPR-FIX0.1.ini
attr iterationvars "$name=tree_4_3, $un=04, $rep=1, $cd=fix0.1, $cr=lru, $fsize=1, $a=0.9, $sl=spr, $ttl=1000, $variance=0.05"
attr iterationvars2 "$name=tree_4_3, $un=04, $rep=1, $cd=fix0.1, $cr=lru, $fsize=1, $a=0.9, $sl=spr, $ttl=1000, $variance=0.05, $repetition=0"
attr measurement "$name=tree_4_3, $un=04, $rep=1, $cd=fix0.1, $cr=lru, $fsize=1, $a=0.9, $sl=spr, $ttl=1000, $variance=0.05"
attr name tree_4_3
attr network networks.${name}_u${un}_r${rep}_network
attr processid 14346
attr rep 1
attr repetition 0
attr replication #0
attr resultdir results
attr runnumber 80
attr seedset 1
attr sl spr
attr ttl 1000
attr un 04
attr variance 0.05

scalar . 	a 	0.9
scalar . 	fsize 	1
scalar . 	rep 	1
scalar . 	ttl 	1000
scalar . 	un 	04
scalar . 	variance 	0.05
scalar tree_4_3_u04_r1_network.content_distribution 	repo-0 	0
scalar tree_4_3_u04_r1_network.content_distribution 	client-0 	13
scalar tree_4_3_u04_r1_network.content_distribution 	client-1 	14
scalar tree_4_3_u04_r1_network.content_distribution 	client-2 	15
scalar tree_4_3_u04_r1_network.content_distribution 	client-3 	16
scalar tree_4_3_u04_r1_network.content_distribution 	client-4 	17
scalar tree_4_3_u04_r1_network.content_distribution 	client-5 	18
scalar tree_4_3_u04_r1_network.content_distribution 	client-6 	19
scalar tree_4_3_u04_r1_network.content_distribution 	client-7 	20
scalar tree_4_3_u04_r1_network.content_distribution 	client-8 	21
scalar tree_4_3_u04_r1_network.content_distribution 	client-9 	22
scalar tree_4_3_u04_r1_network.content_distribution 	client-10 	23
scalar tree_4_3_u04_r1_network.content_distribution 	client-11 	24
scalar tree_4_3_u04_r1_network.content_distribution 	client-12 	25
scalar tree_4_3_u04_r1_network.content_distribution 	client-13 	26
scalar tree_4_3_u04_r1_network.content_distribution 	client-14 	27
scalar tree_4_3_u04_r1_network.content_distribution 	client-15 	28
scalar tree_4_3_u04_r1_network.content_distribution 	client-16 	29
scalar tree_4_3_u04_r1_network.content_distribution 	client-17 	30
scalar tree_4_3_u04_r1_network.content_distribution 	client-18 	31
scalar tree_4_3_u04_r1_network.content_distribution 	client-19 	32
scalar tree_4_3_u04_r1_network.content_distribution 	client-20 	33
scalar tree_4_3_u04_r1_network.content_distribution 	client-21 	34
scalar tree_4_3_u04_r1_network.content_distribution 	client-22 	35
scalar tree_4_3_u04_r1_network.content_distribution 	client-23 	36
scalar tree_4_3_u04_r1_network.content_distribution 	client-24 	37
scalar tree_4_3_u04_r1_network.content_distribution 	client-25 	38
scalar tree_4_3_u04_r1_network.content_distribution 	client-26 	39
scalar tree_4_3_u04_r1_network.content_distribution 	repo-0_card 	100000
scalar tree_4_3_u04_r1_network.content_distribution 	repo-0_price 	0
scalar tree_4_3_u04_r1_network.statistics 	stabilization_time 	917.8
scalar tree_4_3_u04_r1_network.statistics 	p_hit 	0.14967566165955
scalar tree_4_3_u04_r1_network.statistics 	interests 	26813.275
scalar tree_4_3_u04_r1_network.statistics 	data 	18706.15
scalar tree_4_3_u04_r1_network.statistics 	hdistance 	3.0418671263871
scalar tree_4_3_u04_r1_network.statistics 	avg_time 	0.004614822149
scalar tree_4_3_u04_r1_network.statistics 	downloads 	324274
scalar tree_4_3_u04_r1_network.statistics 	total_cost 	0
scalar tree_4_3_u04_r1_network.statistics 	total_replicas 	100000
scalar tree_4_3_u04_r1_network.statistics 	inner_hit 	0.26563646792527
scalar tree_4_3_u04_r1_network.node[0].core_layer 	interests[0] 	242590
scalar tree_4_3_u04_r1_network.node[0].core_layer 	repo_load[0] 	238135
scalar tree_4_3_u04_r1_network.node[0].core_layer 	data[0] 	0
scalar tree_4_3_u04_r1_network.node[0].core_layer 	repo_int[0] 	238135
scalar tree_4_3_u04_r1_network.node[0].content_store 	p_hit[0] 	0.018364318397296
scalar tree_4_3_u04_r1_network.node[0].content_store 	hits[0] 	4455
scalar tree_4_3_u04_r1_network.node[0].content_store 	misses[0] 	238135
scalar tree_4_3_u04_r1_network.node[0].content_store 	decision_yes[0] 	24044
scalar tree_4_3_u04_r1_network.node[0].content_store 	decision_no[0] 	214091
scalar tree_4_3_u04_r1_network.node[0].content_store 	decision_ratio[0] 	0.10096793835429
scalar tree_4_3_u04_r1_network.node[1].core_layer 	interests[1] 	82644
scalar tree_4_3_u04_r1_network.node[1].core_layer 	data[1] 	80691
scalar tree_4_3_u04_r1_network.node[1].content_store 	p_hit[1] 	0.023619379507284
scalar tree_4_3_u04_r1_network.node[1].content_store 	hits[1] 	1952
scalar tree_4_3_u04_r1_network.node[1].content_store 	misses[1] 	80692
scalar tree_4_3_u04_r1_network.node[1].content_store 	decision_yes[1] 	8190
scalar tree_4_3_u04_r1_network.node[1].content_store 	decision_no[1] 	72501
scalar tree_4_3_u04_r1_network.node[1].content_store 	decision_ratio[1] 	0.10149830836153
scalar tree_4_3_u04_r1_network.node[2].core_layer 	interests[2] 	82776
scalar tree_4_3_u04_r1_network.node[2].core_layer 	data[2] 	80911
scalar tree_4_3_u04_r1_network.node[2].content_store 	p_hit[2] 	0.022494442833672
scalar tree_4_3_u04_r1_network.node[2].content_store 	hits[2] 	1862
scalar tree_4_3_u04_r1_network.node[2].content_store 	misses[2] 	80914
scalar tree_4_3_u04_r1_network.node[2].content_store 	decision_yes[2] 	8114
scalar tree_4_3_u04_r1_network.node[2].content_store 	decision_no[2] 	72797
scalar tree_4_3_u04_r1_network.node[2].content_store 	decision_ratio[2] 	0.1002830270297
scalar tree_4_3_u04_r1_network.node[3].core_layer 	interests[3] 	83031
scalar tree_4_3_u04_r1_network.node[3].core_layer 	data[3] 	80988
scalar tree_4_3_u04_r1_network.node[3].content_store 	p_hit[3] 	0.024581180522937
scalar tree_4_3_u04_r1_network.node[3].content_store 	hits[3] 	2041
scalar tree_4_3_u04_r1_network.node[3].content_store 	misses[3] 	80990
scalar tree_4_3_u04_r1_network.node[3].content_store 	decision_yes[3] 	8032
scalar tree_4_3_u04_r1_network.node[3].content_store 	decision_no[3] 	72956
scalar tree_4_3_u04_r1_network.node[3].content_store 	decision_ratio[3] 	0.099175186447375
scalar tree_4_3_u04_r1_network.node[4].core_layer 	interests[4] 	38173
scalar tree_4_3_u04_r1_network.node[4].core_layer 	data[4] 	36866
scalar tree_4_3_u04_r1_network.node[4].content_store 	p_hit[4] 	0.034212663400833
scalar tree_4_3_u04_r1_network.node[4].content_store 	hits[4] 	1306
scalar tree_4_3_u04_r1_network.node[4].content_store 	misses[4] 	36867
scalar tree_4_3_u04_r1_network.node[4].content_store 	decision_yes[4] 	3579
scalar tree_4_3_u04_r1_network.node[4].content_store 	decision_no[4] 	33287
scalar tree_4_3_u04_r1_network.node[4].content_store 	decision_ratio[4] 	0.097081321542885
scalar tree_4_3_u04_r1_network.node[5].core_layer 	interests[5] 	28624
scalar tree_4_3_u04_r1_network.node[5].core_layer 	data[5] 	27668
scalar tree_4_3_u04_r1_network.node[5].content_store 	p_hit[5] 	0.033328675237563
scalar tree_4_3_u04_r1_network.node[5].content_store 	hits[5] 	954
scalar tree_4_3_u04_r1_network.node[5].content_store 	misses[5] 	27670
scalar tree_4_3_u04_r1_network.node[5].content_store 	decision_yes[5] 	2787
scalar tree_4_3_u04_r1_network.node[5].content_store 	decision_no[5] 	24881
scalar tree_4_3_u04_r1_network.node[5].content_store 	decision_ratio[5] 	0.10073008529709
scalar tree_4_3_u04_r1_network.node[6].core_layer 	interests[6] 	18826
scalar tree_4_3_u04_r1_network.node[6].core_layer 	data[6] 	18109
scalar tree_4_3_u04_r1_network.node[6].content_store 	p_hit[6] 	0.038032508233294
scalar tree_4_3_u04_r1_network.node[6].content_store 	hits[6] 	716
scalar tree_4_3_u04_r1_network.node[6].content_store 	misses[6] 	18110
scalar tree_4_3_u04_r1_network.node[6].content_store 	decision_yes[6] 	1797
scalar tree_4_3_u04_r1_network.node[6].content_store 	decision_no[6] 	16312
scalar tree_4_3_u04_r1_network.node[6].content_store 	decision_ratio[6] 	0.099232425865592
scalar tree_4_3_u04_r1_network.node[7].core_layer 	interests[7] 	47551
scalar tree_4_3_u04_r1_network.node[7].core_layer 	data[7] 	46074
scalar tree_4_3_u04_r1_network.node[7].content_store 	p_hit[7] 	0.030977266513848
scalar tree_4_3_u04_r1_network.node[7].content_store 	hits[7] 	1473
scalar tree_4_3_u04_r1_network.node[7].content_store 	misses[7] 	46078
scalar tree_4_3_u04_r1_network.node[7].content_store 	decision_yes[7] 	4470
scalar tree_4_3_u04_r1_network.node[7].content_store 	decision_no[7] 	41604
scalar tree_4_3_u04_r1_network.node[7].content_store 	decision_ratio[7] 	0.097017840864696
scalar tree_4_3_u04_r1_network.node[8].core_layer 	interests[8] 	18989
scalar tree_4_3_u04_r1_network.node[8].core_layer 	data[8] 	18330
scalar tree_4_3_u04_r1_network.node[8].content_store 	p_hit[8] 	0.034704302490916
scalar tree_4_3_u04_r1_network.node[8].content_store 	hits[8] 	659
scalar tree_4_3_u04_r1_network.node[8].content_store 	misses[8] 	18330
scalar tree_4_3_u04_r1_network.node[8].content_store 	decision_yes[8] 	1869
scalar tree_4_3_u04_r1_network.node[8].content_store 	decision_no[8] 	16461
scalar tree_4_3_u04_r1_network.node[8].content_store 	decision_ratio[8] 	0.10196399345336
scalar tree_4_3_u04_r1_network.node[9].core_layer 	interests[9] 	19153
scalar tree_4_3_u04_r1_network.node[9].core_layer 	data[9] 	18372
scalar tree_4_3_u04_r1_network.node[9].content_store 	p_hit[9] 	0.040776901790842
scalar tree_4_3_u04_r1_network.node[9].content_store 	hits[9] 	781
scalar tree_4_3_u04_r1_network.node[9].content_store 	misses[9] 	18372
scalar tree_4_3_u04_r1_network.node[9].content_store 	decision_yes[9] 	1914
scalar tree_4_3_u04_r1_network.node[9].content_store 	decision_no[9] 	16458
scalar tree_4_3_u04_r1_network.node[9].content_store 	decision_ratio[9] 	0.1041802743305
scalar tree_4_3_u04_r1_network.node[10].core_layer 	interests[10] 	47988
scalar tree_4_3_u04_r1_network.node[10].core_layer 	data[10] 	46443
scalar tree_4_3_u04_r1_network.node[10].content_store 	p_hit[10] 	0.032195548887222
scalar tree_4_3_u04_r1_network.node[10].content_store 	hits[10] 	1545
scalar tree_4_3_u04_r1_network.node[10].content_store 	misses[10] 	46443
scalar tree_4_3_u04_r1_network.node[10].content_store 	decision_yes[10] 	4696
scalar tree_4_3_u04_r1_network.node[10].content_store 	decision_no[10] 	41747
scalar tree_4_3_u04_r1_network.node[10].content_store 	decision_ratio[10] 	0.10111319251556
scalar tree_4_3_u04_r1_network.node[11].core_layer 	interests[11] 	18764
scalar tree_4_3_u04_r1_network.node[11].core_layer 	data[11] 	18122
scalar tree_4_3_u04_r1_network.node[11].content_store 	p_hit[11] 	0.034214453208271
scalar tree_4_3_u04_r1_network.node[11].content_store 	hits[11] 	642
scalar tree_4_3_u04_r1_network.node[11].content_store 	misses[11] 	18122
scalar tree_4_3_u04_r1_network.node[11].content_store 	decision_yes[11] 	1799
scalar tree_4_3_u04_r1_network.node[11].content_store 	decision_no[11] 	16323
scalar tree_4_3_u04_r1_network.node[11].content_store 	decision_ratio[11] 	0.099271603575764
scalar tree_4_3_u04_r1_network.node[12].core_layer 	interests[12] 	19138
scalar tree_4_3_u04_r1_network.node[12].core_layer 	data[12] 	18467
scalar tree_4_3_u04_r1_network.node[12].content_store 	p_hit[12] 	0.035061134914829
scalar tree_4_3_u04_r1_network.node[12].content_store 	hits[12] 	671
scalar tree_4_3_u04_r1_network.node[12].content_store 	misses[12] 	18467
scalar tree_4_3_u04_r1_network.node[12].content_store 	decision_yes[12] 	1892
scalar tree_4_3_u04_r1_network.node[12].content_store 	decision_no[12] 	16575
scalar tree_4_3_u04_r1_network.node[12].content_store 	decision_ratio[12] 	0.10245302431364
scalar tree_4_3_u04_r1_network.node[13].core_layer 	interests[13] 	11902
scalar tree_4_3_u04_r1_network.node[13].core_layer 	data[13] 	9421
scalar tree_4_3_u04_r1_network.node[13].content_store 	p_hit[13] 	0.20836834145522
scalar tree_4_3_u04_r1_network.node[13].content_store 	hits[13] 	2480
scalar tree_4_3_u04_r1_network.node[13].content_store 	misses[13] 	9422
scalar tree_4_3_u04_r1_network.node[13].content_store 	decision_yes[13] 	926
scalar tree_4_3_u04_r1_network.node[13].content_store 	decision_no[13] 	8495
scalar tree_4_3_u04_r1_network.node[13].content_store 	decision_ratio[13] 	0.098291051905318
scalar tree_4_3_u04_r1_network.node[14].core_layer 	interests[14] 	12055
scalar tree_4_3_u04_r1_network.node[14].core_layer 	data[14] 	9539
scalar tree_4_3_u04_r1_network.node[14].content_store 	p_hit[14] 	0.20871007880547
scalar tree_4_3_u04_r1_network.node[14].content_store 	hits[14] 	2516
scalar tree_4_3_u04_r1_network.node[14].content_store 	misses[14] 	9539
scalar tree_4_3_u04_r1_network.node[14].content_store 	decision_yes[14] 	893
scalar tree_4_3_u04_r1_network.node[14].content_store 	decision_no[14] 	8646
scalar tree_4_3_u04_r1_network.node[14].content_store 	decision_ratio[14] 	0.093615682985638
scalar tree_4_3_u04_r1_network.node[15].core_layer 	interests[15] 	12029
scalar tree_4_3_u04_r1_network.node[15].core_layer 	data[15] 	9590
scalar tree_4_3_u04_r1_network.node[15].content_store 	p_hit[15] 	0.20267686424474
scalar tree_4_3_u04_r1_network.node[15].content_store 	hits[15] 	2438
scalar tree_4_3_u04_r1_network.node[15].content_store 	misses[15] 	9591
scalar tree_4_3_u04_r1_network.node[15].content_store 	decision_yes[15] 	992
scalar tree_4_3_u04_r1_network.node[15].content_store 	decision_no[15] 	8598
scalar tree_4_3_u04_r1_network.node[15].content_store 	decision_ratio[15] 	0.10344108446298
scalar tree_4_3_u04_r1_network.node[16].core_layer 	interests[16] 	12078
scalar tree_4_3_u04_r1_network.node[16].core_layer 	data[16] 	9623
scalar tree_4_3_u04_r1_network.node[16].content_store 	p_hit[16] 	0.20326212949164
scalar tree_4_3_u04_r1_network.node[16].content_store 	hits[16] 	2455
scalar tree_4_3_u04_r1_network.node[16].content_store 	misses[16] 	9623
scalar tree_4_3_u04_r1_network.node[16].content_store 	decision_yes[16] 	958
scalar tree_4_3_u04_r1_network.node[16].content_store 	decision_no[16] 	8665
scalar tree_4_3_u04_r1_network.node[16].content_store 	decision_ratio[16] 	0.09955315390211
scalar tree_4_3_u04_r1_network.node[17].core_layer 	interests[17] 	11900
scalar tree_4_3_u04_r1_network.node[17].core_layer 	data[17] 	9426
scalar tree_4_3_u04_r1_network.node[17].content_store 	p_hit[17] 	0.20781512605042
scalar tree_4_3_u04_r1_network.node[17].content_store 	hits[17] 	2473
scalar tree_4_3_u04_r1_network.node[17].content_store 	misses[17] 	9427
scalar tree_4_3_u04_r1_network.node[17].content_store 	decision_yes[17] 	936
scalar tree_4_3_u04_r1_network.node[17].content_store 	decision_no[17] 	8490
scalar tree_4_3_u04_r1_network.node[17].content_store 	decision_ratio[17] 	0.099299809038829
scalar tree_4_3_u04_r1_network.node[18].core_layer 	interests[18] 	12137
scalar tree_4_3_u04_r1_network.node[18].core_layer 	data[18] 	9539
scalar tree_4_3_u04_r1_network.node[18].content_store 	p_hit[18] 	0.21397379912664
scalar tree_4_3_u04_r1_network.node[18].content_store 	hits[18] 	2597
scalar tree_4_3_u04_r1_network.node[18].content_store 	misses[18] 	9540
scalar tree_4_3_u04_r1_network.node[18].content_store 	decision_yes[18] 	952
scalar tree_4_3_u04_r1_network.node[18].content_store 	decision_no[18] 	8587
scalar tree_4_3_u04_r1_network.node[18].content_store 	decision_ratio[18] 	0.099800817695775
scalar tree_4_3_u04_r1_network.node[19].core_layer 	interests[19] 	11823
scalar tree_4_3_u04_r1_network.node[19].core_layer 	data[19] 	9408
scalar tree_4_3_u04_r1_network.node[19].content_store 	p_hit[19] 	0.20426287744227
scalar tree_4_3_u04_r1_network.node[19].content_store 	hits[19] 	2415
scalar tree_4_3_u04_r1_network.node[19].content_store 	misses[19] 	9408
scalar tree_4_3_u04_r1_network.node[19].content_store 	decision_yes[19] 	884
scalar tree_4_3_u04_r1_network.node[19].content_store 	decision_no[19] 	8524
scalar tree_4_3_u04_r1_network.node[19].content_store 	decision_ratio[19] 	0.093962585034014
scalar tree_4_3_u04_r1_network.node[20].core_layer 	interests[20] 	12143
scalar tree_4_3_u04_r1_network.node[20].core_layer 	data[20] 	9659
scalar tree_4_3_u04_r1_network.node[20].content_store 	p_hit[20] 	0.20447994729474
scalar tree_4_3_u04_r1_network.node[20].content_store 	hits[20] 	2483
scalar tree_4_3_u04_r1_network.node[20].content_store 	misses[20] 	9660
scalar tree_4_3_u04_r1_network.node[20].content_store 	decision_yes[20] 	960
scalar tree_4_3_u04_r1_network.node[20].content_store 	decision_no[20] 	8699
scalar tree_4_3_u04_r1_network.node[20].content_store 	decision_ratio[20] 	0.099389170721607
scalar tree_4_3_u04_r1_network.node[21].core_layer 	interests[21] 	11858
scalar tree_4_3_u04_r1_network.node[21].core_layer 	data[21] 	9417
scalar tree_4_3_u04_r1_network.node[21].content_store 	p_hit[21] 	0.20576825771631
scalar tree_4_3_u04_r1_network.node[21].content_store 	hits[21] 	2440
scalar tree_4_3_u04_r1_network.node[21].content_store 	misses[21] 	9418
scalar tree_4_3_u04_r1_network.node[21].content_store 	decision_yes[21] 	946
scalar tree_4_3_u04_r1_network.node[21].content_store 	decision_no[21] 	8471
scalar tree_4_3_u04_r1_network.node[21].content_store 	decision_ratio[21] 	0.10045662100457
scalar tree_4_3_u04_r1_network.node[22].core_layer 	interests[22] 	12001
scalar tree_4_3_u04_r1_network.node[22].core_layer 	data[22] 	9589
scalar tree_4_3_u04_r1_network.node[22].content_store 	p_hit[22] 	0.20089992500625
scalar tree_4_3_u04_r1_network.node[22].content_store 	hits[22] 	2411
scalar tree_4_3_u04_r1_network.node[22].content_store 	misses[22] 	9590
scalar tree_4_3_u04_r1_network.node[22].content_store 	decision_yes[22] 	977
scalar tree_4_3_u04_r1_network.node[22].content_store 	decision_no[22] 	8612
scalar tree_4_3_u04_r1_network.node[22].content_store 	decision_ratio[22] 	0.1018875795182
scalar tree_4_3_u04_r1_network.node[23].core_layer 	interests[23] 	12058
scalar tree_4_3_u04_r1_network.node[23].core_layer 	data[23] 	9445
scalar tree_4_3_u04_r1_network.node[23].content_store 	p_hit[23] 	0.21670260408028
scalar tree_4_3_u04_r1_network.node[23].content_store 	hits[23] 	2613
scalar tree_4_3_u04_r1_network.node[23].content_store 	misses[23] 	9445
scalar tree_4_3_u04_r1_network.node[23].content_store 	decision_yes[23] 	913
scalar tree_4_3_u04_r1_network.node[23].content_store 	decision_no[23] 	8532
scalar tree_4_3_u04_r1_network.node[23].content_store 	decision_ratio[23] 	0.096664902064584
scalar tree_4_3_u04_r1_network.node[24].core_layer 	interests[24] 	12149
scalar tree_4_3_u04_r1_network.node[24].core_layer 	data[24] 	9695
scalar tree_4_3_u04_r1_network.node[24].content_store 	p_hit[24] 	0.20199193349247
scalar tree_4_3_u04_r1_network.node[24].content_store 	hits[24] 	2454
scalar tree_4_3_u04_r1_network.node[24].content_store 	misses[24] 	9695
scalar tree_4_3_u04_r1_network.node[24].content_store 	decision_yes[24] 	972
scalar tree_4_3_u04_r1_network.node[24].content_store 	decision_no[24] 	8723
scalar tree_4_3_u04_r1_network.node[24].content_store 	decision_ratio[24] 	0.1002578648788
scalar tree_4_3_u04_r1_network.node[25].core_layer 	interests[25] 	12067
scalar tree_4_3_u04_r1_network.node[25].core_layer 	data[25] 	9469
scalar tree_4_3_u04_r1_network.node[25].content_store 	p_hit[25] 	0.21529791994696
scalar tree_4_3_u04_r1_network.node[25].content_store 	hits[25] 	2598
scalar tree_4_3_u04_r1_network.node[25].content_store 	misses[25] 	9469
scalar tree_4_3_u04_r1_network.node[25].content_store 	decision_yes[25] 	924
scalar tree_4_3_u04_r1_network.node[25].content_store 	decision_no[25] 	8545
scalar tree_4_3_u04_r1_network.node[25].content_store 	decision_ratio[25] 	0.097581582004436
scalar tree_4_3_u04_r1_network.node[26].core_layer 	interests[26] 	12127
scalar tree_4_3_u04_r1_network.node[26].core_layer 	data[26] 	9549
scalar tree_4_3_u04_r1_network.node[26].content_store 	p_hit[26] 	0.21258349138286
scalar tree_4_3_u04_r1_network.node[26].content_store 	hits[26] 	2578
scalar tree_4_3_u04_r1_network.node[26].content_store 	misses[26] 	9549
scalar tree_4_3_u04_r1_network.node[26].content_store 	decision_yes[26] 	928
scalar tree_4_3_u04_r1_network.node[26].content_store 	decision_no[26] 	8621
scalar tree_4_3_u04_r1_network.node[26].content_store 	decision_ratio[26] 	0.097182951094355
scalar tree_4_3_u04_r1_network.node[27].core_layer 	interests[27] 	11930
scalar tree_4_3_u04_r1_network.node[27].core_layer 	data[27] 	9440
scalar tree_4_3_u04_r1_network.node[27].content_store 	p_hit[27] 	0.20863369656329
scalar tree_4_3_u04_r1_network.node[27].content_store 	hits[27] 	2489
scalar tree_4_3_u04_r1_network.node[27].content_store 	misses[27] 	9441
scalar tree_4_3_u04_r1_network.node[27].content_store 	decision_yes[27] 	938
scalar tree_4_3_u04_r1_network.node[27].content_store 	decision_no[27] 	8502
scalar tree_4_3_u04_r1_network.node[27].content_store 	decision_ratio[27] 	0.099364406779661
scalar tree_4_3_u04_r1_network.node[28].core_layer 	interests[28] 	11856
scalar tree_4_3_u04_r1_network.node[28].core_layer 	data[28] 	9353
scalar tree_4_3_u04_r1_network.node[28].content_store 	p_hit[28] 	0.21111673414305
scalar tree_4_3_u04_r1_network.node[28].content_store 	hits[28] 	2503
scalar tree_4_3_u04_r1_network.node[28].content_store 	misses[28] 	9353
scalar tree_4_3_u04_r1_network.node[28].content_store 	decision_yes[28] 	941
scalar tree_4_3_u04_r1_network.node[28].content_store 	decision_no[28] 	8412
scalar tree_4_3_u04_r1_network.node[28].content_store 	decision_ratio[28] 	0.10060943012937
scalar tree_4_3_u04_r1_network.node[29].core_layer 	interests[29] 	12135
scalar tree_4_3_u04_r1_network.node[29].core_layer 	data[29] 	9621
scalar tree_4_3_u04_r1_network.node[29].content_store 	p_hit[29] 	0.20708693860733
scalar tree_4_3_u04_r1_network.node[29].content_store 	hits[29] 	2513
scalar tree_4_3_u04_r1_network.node[29].content_store 	misses[29] 	9622
scalar tree_4_3_u04_r1_network.node[29].content_store 	decision_yes[29] 	978
scalar tree_4_3_u04_r1_network.node[29].content_store 	decision_no[29] 	8643
scalar tree_4_3_u04_r1_network.node[29].content_store 	decision_ratio[29] 	0.10165263486124
scalar tree_4_3_u04_r1_network.node[30].core_layer 	interests[30] 	12006
scalar tree_4_3_u04_r1_network.node[30].core_layer 	data[30] 	9531
scalar tree_4_3_u04_r1_network.node[30].content_store 	p_hit[30] 	0.20614692653673
scalar tree_4_3_u04_r1_network.node[30].content_store 	hits[30] 	2475
scalar tree_4_3_u04_r1_network.node[30].content_store 	misses[30] 	9531
scalar tree_4_3_u04_r1_network.node[30].content_store 	decision_yes[30] 	932
scalar tree_4_3_u04_r1_network.node[30].content_store 	decision_no[30] 	8599
scalar tree_4_3_u04_r1_network.node[30].content_store 	decision_ratio[30] 	0.097786171440562
scalar tree_4_3_u04_r1_network.node[31].core_layer 	interests[31] 	11999
scalar tree_4_3_u04_r1_network.node[31].core_layer 	data[31] 	9503
scalar tree_4_3_u04_r1_network.node[31].content_store 	p_hit[31] 	0.20810067505625
scalar tree_4_3_u04_r1_network.node[31].content_store 	hits[31] 	2497
scalar tree_4_3_u04_r1_network.node[31].content_store 	misses[31] 	9502
scalar tree_4_3_u04_r1_network.node[31].content_store 	decision_yes[31] 	964
scalar tree_4_3_u04_r1_network.node[31].content_store 	decision_no[31] 	8539
scalar tree_4_3_u04_r1_network.node[31].content_store 	decision_ratio[31] 	0.10144165000526
scalar tree_4_3_u04_r1_network.node[32].core_layer 	interests[32] 	12005
scalar tree_4_3_u04_r1_network.node[32].core_layer 	data[32] 	9571
scalar tree_4_3_u04_r1_network.node[32].content_store 	p_hit[32] 	0.2027488546439
scalar tree_4_3_u04_r1_network.node[32].content_store 	hits[32] 	2434
scalar tree_4_3_u04_r1_network.node[32].content_store 	misses[32] 	9571
scalar tree_4_3_u04_r1_network.node[32].content_store 	decision_yes[32] 	966
scalar tree_4_3_u04_r1_network.node[32].content_store 	decision_no[32] 	8605
scalar tree_4_3_u04_r1_network.node[32].content_store 	decision_ratio[32] 	0.10092989238324
scalar tree_4_3_u04_r1_network.node[33].core_layer 	interests[33] 	12204
scalar tree_4_3_u04_r1_network.node[33].core_layer 	data[33] 	9761
scalar tree_4_3_u04_r1_network.node[33].content_store 	p_hit[33] 	0.20018026876434
scalar tree_4_3_u04_r1_network.node[33].content_store 	hits[33] 	2443
scalar tree_4_3_u04_r1_network.node[33].content_store 	misses[33] 	9761
scalar tree_4_3_u04_r1_network.node[33].content_store 	decision_yes[33] 	1011
scalar tree_4_3_u04_r1_network.node[33].content_store 	decision_no[33] 	8750
scalar tree_4_3_u04_r1_network.node[33].content_store 	decision_ratio[33] 	0.1035754533347
scalar tree_4_3_u04_r1_network.node[34].core_layer 	interests[34] 	12000
scalar tree_4_3_u04_r1_network.node[34].core_layer 	data[34] 	9497
scalar tree_4_3_u04_r1_network.node[34].content_store 	p_hit[34] 	0.20858333333333
scalar tree_4_3_u04_r1_network.node[34].content_store 	hits[34] 	2503
scalar tree_4_3_u04_r1_network.node[34].content_store 	misses[34] 	9497
scalar tree_4_3_u04_r1_network.node[34].content_store 	decision_yes[34] 	981
scalar tree_4_3_u04_r1_network.node[34].content_store 	decision_no[34] 	8516
scalar tree_4_3_u04_r1_network.node[34].content_store 	decision_ratio[34] 	0.10329577761398
scalar tree_4_3_u04_r1_network.node[35].core_layer 	interests[35] 	12041
scalar tree_4_3_u04_r1_network.node[35].core_layer 	data[35] 	9613
scalar tree_4_3_u04_r1_network.node[35].content_store 	p_hit[35] 	0.20164438169587
scalar tree_4_3_u04_r1_network.node[35].content_store 	hits[35] 	2428
scalar tree_4_3_u04_r1_network.node[35].content_store 	misses[35] 	9613
scalar tree_4_3_u04_r1_network.node[35].content_store 	decision_yes[35] 	925
scalar tree_4_3_u04_r1_network.node[35].content_store 	decision_no[35] 	8688
scalar tree_4_3_u04_r1_network.node[35].content_store 	decision_ratio[35] 	0.096223863518152
scalar tree_4_3_u04_r1_network.node[36].core_layer 	interests[36] 	11693
scalar tree_4_3_u04_r1_network.node[36].core_layer 	data[36] 	9151
scalar tree_4_3_u04_r1_network.node[36].content_store 	p_hit[36] 	0.21739502266313
scalar tree_4_3_u04_r1_network.node[36].content_store 	hits[36] 	2542
scalar tree_4_3_u04_r1_network.node[36].content_store 	misses[36] 	9151
scalar tree_4_3_u04_r1_network.node[36].content_store 	decision_yes[36] 	912
scalar tree_4_3_u04_r1_network.node[36].content_store 	decision_no[36] 	8239
scalar tree_4_3_u04_r1_network.node[36].content_store 	decision_ratio[36] 	0.09966123920883
scalar tree_4_3_u04_r1_network.node[37].core_layer 	interests[37] 	12068
scalar tree_4_3_u04_r1_network.node[37].core_layer 	data[37] 	9657
scalar tree_4_3_u04_r1_network.node[37].content_store 	p_hit[37] 	0.19978455419291
scalar tree_4_3_u04_r1_network.node[37].content_store 	hits[37] 	2411
scalar tree_4_3_u04_r1_network.node[37].content_store 	misses[37] 	9657
scalar tree_4_3_u04_r1_network.node[37].content_store 	decision_yes[37] 	927
scalar tree_4_3_u04_r1_network.node[37].content_store 	decision_no[37] 	8730
scalar tree_4_3_u04_r1_network.node[37].content_store 	decision_ratio[37] 	0.095992544268406
scalar tree_4_3_u04_r1_network.node[38].core_layer 	interests[38] 	12135
scalar tree_4_3_u04_r1_network.node[38].core_layer 	data[38] 	9624
scalar tree_4_3_u04_r1_network.node[38].content_store 	p_hit[38] 	0.20692212608158
scalar tree_4_3_u04_r1_network.node[38].content_store 	hits[38] 	2511
scalar tree_4_3_u04_r1_network.node[38].content_store 	misses[38] 	9624
scalar tree_4_3_u04_r1_network.node[38].content_store 	decision_yes[38] 	988
scalar tree_4_3_u04_r1_network.node[38].content_store 	decision_no[38] 	8636
scalar tree_4_3_u04_r1_network.node[38].content_store 	decision_ratio[38] 	0.1026600166251
scalar tree_4_3_u04_r1_network.node[39].core_layer 	interests[39] 	11885
scalar tree_4_3_u04_r1_network.node[39].core_layer 	data[39] 	9514
scalar tree_4_3_u04_r1_network.node[39].content_store 	p_hit[39] 	0.19932688262516
scalar tree_4_3_u04_r1_network.node[39].content_store 	hits[39] 	2369
scalar tree_4_3_u04_r1_network.node[39].content_store 	misses[39] 	9516
scalar tree_4_3_u04_r1_network.node[39].content_store 	decision_yes[39] 	1005
scalar tree_4_3_u04_r1_network.node[39].content_store 	decision_no[39] 	8509
scalar tree_4_3_u04_r1_network.node[39].content_store 	decision_ratio[39] 	0.1056338028169
scalar tree_4_3_u04_r1_network.client[13] 	hdistance[13] 	3.0323502226704
scalar tree_4_3_u04_r1_network.client[13] 	downloads[13] 	11901
scalar tree_4_3_u04_r1_network.client[13] 	avg_time[13] 	0.004602154237
scalar tree_4_3_u04_r1_network.client[14] 	hdistance[14] 	3.0353380340108
scalar tree_4_3_u04_r1_network.client[14] 	downloads[14] 	12055
scalar tree_4_3_u04_r1_network.client[14] 	avg_time[14] 	0.004605542893
scalar tree_4_3_u04_r1_network.client[15] 	hdistance[15] 	3.0581143997339
scalar tree_4_3_u04_r1_network.client[15] 	downloads[15] 	12028
scalar tree_4_3_u04_r1_network.client[15] 	avg_time[15] 	0.004639311506
scalar tree_4_3_u04_r1_network.client[16] 	hdistance[16] 	3.0490975327041
scalar tree_4_3_u04_r1_network.client[16] 	downloads[16] 	12078
scalar tree_4_3_u04_r1_network.client[16] 	avg_time[16] 	0.004628246696
scalar tree_4_3_u04_r1_network.client[17] 	hdistance[17] 	3.0415160937894
scalar tree_4_3_u04_r1_network.client[17] 	downloads[17] 	11899
scalar tree_4_3_u04_r1_network.client[17] 	avg_time[17] 	0.004609473532
scalar tree_4_3_u04_r1_network.client[18] 	hdistance[18] 	3.0216710613052
scalar tree_4_3_u04_r1_network.client[18] 	downloads[18] 	12136
scalar tree_4_3_u04_r1_network.client[18] 	avg_time[18] 	0.004584527763
scalar tree_4_3_u04_r1_network.client[19] 	hdistance[19] 	3.0405988327836
scalar tree_4_3_u04_r1_network.client[19] 	downloads[19] 	11823
scalar tree_4_3_u04_r1_network.client[19] 	avg_time[19] 	0.004614561856
scalar tree_4_3_u04_r1_network.client[20] 	hdistance[20] 	3.051721297974
scalar tree_4_3_u04_r1_network.client[20] 	downloads[20] 	12142
scalar tree_4_3_u04_r1_network.client[20] 	avg_time[20] 	0.004631619913
scalar tree_4_3_u04_r1_network.client[21] 	hdistance[21] 	3.0328919625538
scalar tree_4_3_u04_r1_network.client[21] 	downloads[21] 	11857
scalar tree_4_3_u04_r1_network.client[21] 	avg_time[21] 	0.004607570621
scalar tree_4_3_u04_r1_network.client[22] 	hdistance[22] 	3.07425
scalar tree_4_3_u04_r1_network.client[22] 	downloads[22] 	12000
scalar tree_4_3_u04_r1_network.client[22] 	avg_time[22] 	0.004663538801
scalar tree_4_3_u04_r1_network.client[23] 	hdistance[23] 	3.0081273843092
scalar tree_4_3_u04_r1_network.client[23] 	downloads[23] 	12058
scalar tree_4_3_u04_r1_network.client[23] 	avg_time[23] 	0.004560823773
scalar tree_4_3_u04_r1_network.client[24] 	hdistance[24] 	3.0588525804593
scalar tree_4_3_u04_r1_network.client[24] 	downloads[24] 	12149
scalar tree_4_3_u04_r1_network.client[24] 	avg_time[24] 	0.004641393534
scalar tree_4_3_u04_r1_network.client[25] 	hdistance[25] 	3.024612579763
scalar tree_4_3_u04_r1_network.client[25] 	downloads[25] 	12067
scalar tree_4_3_u04_r1_network.client[25] 	avg_time[25] 	0.004583737781
scalar tree_4_3_u04_r1_network.client[26] 	hdistance[26] 	3.0218520656387
scalar tree_4_3_u04_r1_network.client[26] 	downloads[26] 	12127
scalar tree_4_3_u04_r1_network.client[26] 	avg_time[26] 	0.004581369903
scalar tree_4_3_u04_r1_network.client[27] 	hdistance[27] 	3.0331125827815
scalar tree_4_3_u04_r1_network.client[27] 	downloads[27] 	11929
scalar tree_4_3_u04_r1_network.client[27] 	avg_time[27] 	0.004601835794
scalar tree_4_3_u04_r1_network.client[28] 	hdistance[28] 	3.0424257759784
scalar tree_4_3_u04_r1_network.client[28] 	downloads[28] 	11856
scalar tree_4_3_u04_r1_network.client[28] 	avg_time[28] 	0.004614130568
scalar tree_4_3_u04_r1_network.client[29] 	hdistance[29] 	3.0243942640514
scalar tree_4_3_u04_r1_network.client[29] 	downloads[29] 	12134
scalar tree_4_3_u04_r1_network.client[29] 	avg_time[29] 	0.004589579969
scalar tree_4_3_u04_r1_network.client[30] 	hdistance[30] 	3.0327336331834
scalar tree_4_3_u04_r1_network.client[30] 	downloads[30] 	12006
scalar tree_4_3_u04_r1_network.client[30] 	avg_time[30] 	0.004602529058
scalar tree_4_3_u04_r1_network.client[31] 	hdistance[31] 	3.039
scalar tree_4_3_u04_r1_network.client[31] 	downloads[31] 	12000
scalar tree_4_3_u04_r1_network.client[31] 	avg_time[31] 	0.004611330364
scalar tree_4_3_u04_r1_network.client[32] 	hdistance[32] 	3.0679716784673
scalar tree_4_3_u04_r1_network.client[32] 	downloads[32] 	12005
scalar tree_4_3_u04_r1_network.client[32] 	avg_time[32] 	0.004653630344
scalar tree_4_3_u04_r1_network.client[33] 	hdistance[33] 	3.0801376597837
scalar tree_4_3_u04_r1_network.client[33] 	downloads[33] 	12204
scalar tree_4_3_u04_r1_network.client[33] 	avg_time[33] 	0.004670760636
scalar tree_4_3_u04_r1_network.client[34] 	hdistance[34] 	3.0365
scalar tree_4_3_u04_r1_network.client[34] 	downloads[34] 	12000
scalar tree_4_3_u04_r1_network.client[34] 	avg_time[34] 	0.004606330335
scalar tree_4_3_u04_r1_network.client[35] 	hdistance[35] 	3.0593804501287
scalar tree_4_3_u04_r1_network.client[35] 	downloads[35] 	12041
scalar tree_4_3_u04_r1_network.client[35] 	avg_time[35] 	0.004640274868
scalar tree_4_3_u04_r1_network.client[36] 	hdistance[36] 	3.00547336013
scalar tree_4_3_u04_r1_network.client[36] 	downloads[36] 	11693
scalar tree_4_3_u04_r1_network.client[36] 	avg_time[36] 	0.004556569382
scalar tree_4_3_u04_r1_network.client[37] 	hdistance[37] 	3.0595790520385
scalar tree_4_3_u04_r1_network.client[37] 	downloads[37] 	12068
scalar tree_4_3_u04_r1_network.client[37] 	avg_time[37] 	0.004644179923
scalar tree_4_3_u04_r1_network.client[38] 	hdistance[38] 	3.0398022249691
scalar tree_4_3_u04_r1_network.client[38] 	downloads[38] 	12135
scalar tree_4_3_u04_r1_network.client[38] 	avg_time[38] 	0.004612156218
scalar tree_4_3_u04_r1_network.client[39] 	hdistance[39] 	3.058907683245
scalar tree_4_3_u04_r1_network.client[39] 	downloads[39] 	11883
scalar tree_4_3_u04_r1_network.client[39] 	avg_time[39] 	0.004643017761
