version 2
run General-91-20160820-04:11:39-14346
attr a 0.9
attr cd fix0.1
attr configname General
attr cr lru
attr datetime 20160820-04:11:39
attr experiment General
attr fsize 1
attr inifile hw5115/scenario_A/SPR-FIX0.1.ini
attr iterationvars "$name=tree_4_3, $un=04, $rep=12, $cd=fix0.1, $cr=lru, $fsize=1, $a=0.9, $sl=spr, $ttl=1000, $variance=0.05"
attr iterationvars2 "$name=tree_4_3, $un=04, $rep=12, $cd=fix0.1, $cr=lru, $fsize=1, $a=0.9, $sl=spr, $ttl=1000, $variance=0.05, $repetition=0"
attr measurement "$name=tree_4_3, $un=04, $rep=12, $cd=fix0.1, $cr=lru, $fsize=1, $a=0.9, $sl=spr, $ttl=1000, $variance=0.05"
attr name tree_4_3
attr network networks.${name}_u${un}_r${rep}_network
attr processid 14346
attr rep 12
attr repetition 0
attr replication #0
attr resultdir results
attr runnumber 91
attr seedset 12
attr sl spr
attr ttl 1000
attr un 04
attr variance 0.05

scalar . 	a 	0.9
scalar . 	fsize 	1
scalar . 	rep 	12
scalar . 	ttl 	1000
scalar . 	un 	04
scalar . 	variance 	0.05
scalar tree_4_3_u04_r12_network.content_distribution 	repo-0 	0
scalar tree_4_3_u04_r12_network.content_distribution 	client-0 	13
scalar tree_4_3_u04_r12_network.content_distribution 	client-1 	14
scalar tree_4_3_u04_r12_network.content_distribution 	client-2 	15
scalar tree_4_3_u04_r12_network.content_distribution 	client-3 	16
scalar tree_4_3_u04_r12_network.content_distribution 	client-4 	17
scalar tree_4_3_u04_r12_network.content_distribution 	client-5 	18
scalar tree_4_3_u04_r12_network.content_distribution 	client-6 	19
scalar tree_4_3_u04_r12_network.content_distribution 	client-7 	20
scalar tree_4_3_u04_r12_network.content_distribution 	client-8 	21
scalar tree_4_3_u04_r12_network.content_distribution 	client-9 	22
scalar tree_4_3_u04_r12_network.content_distribution 	client-10 	23
scalar tree_4_3_u04_r12_network.content_distribution 	client-11 	24
scalar tree_4_3_u04_r12_network.content_distribution 	client-12 	25
scalar tree_4_3_u04_r12_network.content_distribution 	client-13 	26
scalar tree_4_3_u04_r12_network.content_distribution 	client-14 	27
scalar tree_4_3_u04_r12_network.content_distribution 	client-15 	28
scalar tree_4_3_u04_r12_network.content_distribution 	client-16 	29
scalar tree_4_3_u04_r12_network.content_distribution 	client-17 	30
scalar tree_4_3_u04_r12_network.content_distribution 	client-18 	31
scalar tree_4_3_u04_r12_network.content_distribution 	client-19 	32
scalar tree_4_3_u04_r12_network.content_distribution 	client-20 	33
scalar tree_4_3_u04_r12_network.content_distribution 	client-21 	34
scalar tree_4_3_u04_r12_network.content_distribution 	client-22 	35
scalar tree_4_3_u04_r12_network.content_distribution 	client-23 	36
scalar tree_4_3_u04_r12_network.content_distribution 	client-24 	37
scalar tree_4_3_u04_r12_network.content_distribution 	client-25 	38
scalar tree_4_3_u04_r12_network.content_distribution 	client-26 	39
scalar tree_4_3_u04_r12_network.content_distribution 	repo-0_card 	100000
scalar tree_4_3_u04_r12_network.content_distribution 	repo-0_price 	0
scalar tree_4_3_u04_r12_network.statistics 	stabilization_time 	773.9
scalar tree_4_3_u04_r12_network.statistics 	p_hit 	0.1496638482089
scalar tree_4_3_u04_r12_network.statistics 	interests 	26836.4
scalar tree_4_3_u04_r12_network.statistics 	data 	18720.75
scalar tree_4_3_u04_r12_network.statistics 	hdistance 	3.0415304941473
scalar tree_4_3_u04_r12_network.statistics 	avg_time 	0.004613507614
scalar tree_4_3_u04_r12_network.statistics 	downloads 	324621
scalar tree_4_3_u04_r12_network.statistics 	total_cost 	0
scalar tree_4_3_u04_r12_network.statistics 	total_replicas 	100000
scalar tree_4_3_u04_r12_network.statistics 	inner_hit 	0.26534635775258
scalar tree_4_3_u04_r12_network.node[0].core_layer 	interests[0] 	242956
scalar tree_4_3_u04_r12_network.node[0].core_layer 	repo_load[0] 	238484
scalar tree_4_3_u04_r12_network.node[0].core_layer 	data[0] 	0
scalar tree_4_3_u04_r12_network.node[0].core_layer 	repo_int[0] 	238484
scalar tree_4_3_u04_r12_network.node[0].content_store 	p_hit[0] 	0.018406625067914
scalar tree_4_3_u04_r12_network.node[0].content_store 	hits[0] 	4472
scalar tree_4_3_u04_r12_network.node[0].content_store 	misses[0] 	238484
scalar tree_4_3_u04_r12_network.node[0].content_store 	decision_yes[0] 	23793
scalar tree_4_3_u04_r12_network.node[0].content_store 	decision_no[0] 	214691
scalar tree_4_3_u04_r12_network.node[0].content_store 	decision_ratio[0] 	0.099767699300582
scalar tree_4_3_u04_r12_network.node[1].core_layer 	interests[1] 	165753
scalar tree_4_3_u04_r12_network.node[1].core_layer 	data[1] 	162065
scalar tree_4_3_u04_r12_network.node[1].content_store 	p_hit[1] 	0.022165511333128
scalar tree_4_3_u04_r12_network.node[1].content_store 	hits[1] 	3674
scalar tree_4_3_u04_r12_network.node[1].content_store 	misses[1] 	162079
scalar tree_4_3_u04_r12_network.node[1].content_store 	decision_yes[1] 	16076
scalar tree_4_3_u04_r12_network.node[1].content_store 	decision_no[1] 	145989
scalar tree_4_3_u04_r12_network.node[1].content_store 	decision_ratio[1] 	0.099194767531546
scalar tree_4_3_u04_r12_network.node[2].core_layer 	interests[2] 	36646
scalar tree_4_3_u04_r12_network.node[2].core_layer 	data[2] 	35818
scalar tree_4_3_u04_r12_network.node[2].content_store 	p_hit[2] 	0.022621841401517
scalar tree_4_3_u04_r12_network.node[2].content_store 	hits[2] 	829
scalar tree_4_3_u04_r12_network.node[2].content_store 	misses[2] 	35817
scalar tree_4_3_u04_r12_network.node[2].content_store 	decision_yes[2] 	3643
scalar tree_4_3_u04_r12_network.node[2].content_store 	decision_no[2] 	32175
scalar tree_4_3_u04_r12_network.node[2].content_store 	decision_ratio[2] 	0.10170863811491
scalar tree_4_3_u04_r12_network.node[3].core_layer 	interests[3] 	46122
scalar tree_4_3_u04_r12_network.node[3].core_layer 	data[3] 	45073
scalar tree_4_3_u04_r12_network.node[3].content_store 	p_hit[3] 	0.022744026711764
scalar tree_4_3_u04_r12_network.node[3].content_store 	hits[3] 	1049
scalar tree_4_3_u04_r12_network.node[3].content_store 	misses[3] 	45073
scalar tree_4_3_u04_r12_network.node[3].content_store 	decision_yes[3] 	4566
scalar tree_4_3_u04_r12_network.node[3].content_store 	decision_no[3] 	40507
scalar tree_4_3_u04_r12_network.node[3].content_store 	decision_ratio[3] 	0.1013023317729
scalar tree_4_3_u04_r12_network.node[4].core_layer 	interests[4] 	28269
scalar tree_4_3_u04_r12_network.node[4].core_layer 	data[4] 	27324
scalar tree_4_3_u04_r12_network.node[4].content_store 	p_hit[4] 	0.033358095440235
scalar tree_4_3_u04_r12_network.node[4].content_store 	hits[4] 	943
scalar tree_4_3_u04_r12_network.node[4].content_store 	misses[4] 	27326
scalar tree_4_3_u04_r12_network.node[4].content_store 	decision_yes[4] 	2668
scalar tree_4_3_u04_r12_network.node[4].content_store 	decision_no[4] 	24656
scalar tree_4_3_u04_r12_network.node[4].content_store 	decision_ratio[4] 	0.097643097643098
scalar tree_4_3_u04_r12_network.node[5].core_layer 	interests[5] 	38507
scalar tree_4_3_u04_r12_network.node[5].core_layer 	data[5] 	37178
scalar tree_4_3_u04_r12_network.node[5].content_store 	p_hit[5] 	0.034513205391228
scalar tree_4_3_u04_r12_network.node[5].content_store 	hits[5] 	1329
scalar tree_4_3_u04_r12_network.node[5].content_store 	misses[5] 	37178
scalar tree_4_3_u04_r12_network.node[5].content_store 	decision_yes[5] 	3742
scalar tree_4_3_u04_r12_network.node[5].content_store 	decision_no[5] 	33436
scalar tree_4_3_u04_r12_network.node[5].content_store 	decision_ratio[5] 	0.10065092258863
scalar tree_4_3_u04_r12_network.node[6].core_layer 	interests[6] 	18927
scalar tree_4_3_u04_r12_network.node[6].core_layer 	data[6] 	18248
scalar tree_4_3_u04_r12_network.node[6].content_store 	p_hit[6] 	0.035874676388228
scalar tree_4_3_u04_r12_network.node[6].content_store 	hits[6] 	679
scalar tree_4_3_u04_r12_network.node[6].content_store 	misses[6] 	18248
scalar tree_4_3_u04_r12_network.node[6].content_store 	decision_yes[6] 	1884
scalar tree_4_3_u04_r12_network.node[6].content_store 	decision_no[6] 	16364
scalar tree_4_3_u04_r12_network.node[6].content_store 	decision_ratio[6] 	0.10324419114423
scalar tree_4_3_u04_r12_network.node[7].core_layer 	interests[7] 	47611
scalar tree_4_3_u04_r12_network.node[7].core_layer 	data[7] 	45925
scalar tree_4_3_u04_r12_network.node[7].content_store 	p_hit[7] 	0.035348973976602
scalar tree_4_3_u04_r12_network.node[7].content_store 	hits[7] 	1683
scalar tree_4_3_u04_r12_network.node[7].content_store 	misses[7] 	45928
scalar tree_4_3_u04_r12_network.node[7].content_store 	decision_yes[7] 	4503
scalar tree_4_3_u04_r12_network.node[7].content_store 	decision_no[7] 	41422
scalar tree_4_3_u04_r12_network.node[7].content_store 	decision_ratio[7] 	0.0980511703865
scalar tree_4_3_u04_r12_network.node[8].core_layer 	interests[8] 	19041
scalar tree_4_3_u04_r12_network.node[8].core_layer 	data[8] 	18361
scalar tree_4_3_u04_r12_network.node[8].content_store 	p_hit[8] 	0.035712410062497
scalar tree_4_3_u04_r12_network.node[8].content_store 	hits[8] 	680
scalar tree_4_3_u04_r12_network.node[8].content_store 	misses[8] 	18361
scalar tree_4_3_u04_r12_network.node[8].content_store 	decision_yes[8] 	1849
scalar tree_4_3_u04_r12_network.node[8].content_store 	decision_no[8] 	16512
scalar tree_4_3_u04_r12_network.node[8].content_store 	decision_ratio[8] 	0.10070257611241
scalar tree_4_3_u04_r12_network.node[9].core_layer 	interests[9] 	18816
scalar tree_4_3_u04_r12_network.node[9].core_layer 	data[9] 	18286
scalar tree_4_3_u04_r12_network.node[9].content_store 	p_hit[9] 	0.028220663265306
scalar tree_4_3_u04_r12_network.node[9].content_store 	hits[9] 	531
scalar tree_4_3_u04_r12_network.node[9].content_store 	misses[9] 	18285
scalar tree_4_3_u04_r12_network.node[9].content_store 	decision_yes[9] 	1848
scalar tree_4_3_u04_r12_network.node[9].content_store 	decision_no[9] 	16438
scalar tree_4_3_u04_r12_network.node[9].content_store 	decision_ratio[9] 	0.10106092092311
scalar tree_4_3_u04_r12_network.node[10].core_layer 	interests[10] 	38449
scalar tree_4_3_u04_r12_network.node[10].core_layer 	data[10] 	37078
scalar tree_4_3_u04_r12_network.node[10].content_store 	p_hit[10] 	0.035631615906786
scalar tree_4_3_u04_r12_network.node[10].content_store 	hits[10] 	1370
scalar tree_4_3_u04_r12_network.node[10].content_store 	misses[10] 	37079
scalar tree_4_3_u04_r12_network.node[10].content_store 	decision_yes[10] 	3748
scalar tree_4_3_u04_r12_network.node[10].content_store 	decision_no[10] 	33330
scalar tree_4_3_u04_r12_network.node[10].content_store 	decision_ratio[10] 	0.10108420087383
scalar tree_4_3_u04_r12_network.node[11].core_layer 	interests[11] 	28522
scalar tree_4_3_u04_r12_network.node[11].core_layer 	data[11] 	27515
scalar tree_4_3_u04_r12_network.node[11].content_store 	p_hit[11] 	0.035306079517565
scalar tree_4_3_u04_r12_network.node[11].content_store 	hits[11] 	1007
scalar tree_4_3_u04_r12_network.node[11].content_store 	misses[11] 	27515
scalar tree_4_3_u04_r12_network.node[11].content_store 	decision_yes[11] 	2748
scalar tree_4_3_u04_r12_network.node[11].content_store 	decision_no[11] 	24767
scalar tree_4_3_u04_r12_network.node[11].content_store 	decision_ratio[11] 	0.099872796656369
scalar tree_4_3_u04_r12_network.node[12].core_layer 	interests[12] 	19209
scalar tree_4_3_u04_r12_network.node[12].core_layer 	data[12] 	18607
scalar tree_4_3_u04_r12_network.node[12].content_store 	p_hit[12] 	0.031391535217867
scalar tree_4_3_u04_r12_network.node[12].content_store 	hits[12] 	603
scalar tree_4_3_u04_r12_network.node[12].content_store 	misses[12] 	18606
scalar tree_4_3_u04_r12_network.node[12].content_store 	decision_yes[12] 	1791
scalar tree_4_3_u04_r12_network.node[12].content_store 	decision_no[12] 	16816
scalar tree_4_3_u04_r12_network.node[12].content_store 	decision_ratio[12] 	0.096254097920138
scalar tree_4_3_u04_r12_network.node[13].core_layer 	interests[13] 	11919
scalar tree_4_3_u04_r12_network.node[13].core_layer 	data[13] 	9335
scalar tree_4_3_u04_r12_network.node[13].content_store 	p_hit[13] 	0.21671281147747
scalar tree_4_3_u04_r12_network.node[13].content_store 	hits[13] 	2583
scalar tree_4_3_u04_r12_network.node[13].content_store 	misses[13] 	9336
scalar tree_4_3_u04_r12_network.node[13].content_store 	decision_yes[13] 	903
scalar tree_4_3_u04_r12_network.node[13].content_store 	decision_no[13] 	8432
scalar tree_4_3_u04_r12_network.node[13].content_store 	decision_ratio[13] 	0.096732726298875
scalar tree_4_3_u04_r12_network.node[14].core_layer 	interests[14] 	12068
scalar tree_4_3_u04_r12_network.node[14].core_layer 	data[14] 	9494
scalar tree_4_3_u04_r12_network.node[14].content_store 	p_hit[14] 	0.21312562147829
scalar tree_4_3_u04_r12_network.node[14].content_store 	hits[14] 	2572
scalar tree_4_3_u04_r12_network.node[14].content_store 	misses[14] 	9496
scalar tree_4_3_u04_r12_network.node[14].content_store 	decision_yes[14] 	926
scalar tree_4_3_u04_r12_network.node[14].content_store 	decision_no[14] 	8568
scalar tree_4_3_u04_r12_network.node[14].content_store 	decision_ratio[14] 	0.097535285443438
scalar tree_4_3_u04_r12_network.node[15].core_layer 	interests[15] 	11950
scalar tree_4_3_u04_r12_network.node[15].core_layer 	data[15] 	9439
scalar tree_4_3_u04_r12_network.node[15].content_store 	p_hit[15] 	0.21004184100418
scalar tree_4_3_u04_r12_network.node[15].content_store 	hits[15] 	2510
scalar tree_4_3_u04_r12_network.node[15].content_store 	misses[15] 	9440
scalar tree_4_3_u04_r12_network.node[15].content_store 	decision_yes[15] 	908
scalar tree_4_3_u04_r12_network.node[15].content_store 	decision_no[15] 	8531
scalar tree_4_3_u04_r12_network.node[15].content_store 	decision_ratio[15] 	0.096196630999047
scalar tree_4_3_u04_r12_network.node[16].core_layer 	interests[16] 	12081
scalar tree_4_3_u04_r12_network.node[16].core_layer 	data[16] 	9737
scalar tree_4_3_u04_r12_network.node[16].content_store 	p_hit[16] 	0.19402367353696
scalar tree_4_3_u04_r12_network.node[16].content_store 	hits[16] 	2344
scalar tree_4_3_u04_r12_network.node[16].content_store 	misses[16] 	9737
scalar tree_4_3_u04_r12_network.node[16].content_store 	decision_yes[16] 	970
scalar tree_4_3_u04_r12_network.node[16].content_store 	decision_no[16] 	8767
scalar tree_4_3_u04_r12_network.node[16].content_store 	decision_ratio[16] 	0.099620006162062
scalar tree_4_3_u04_r12_network.node[17].core_layer 	interests[17] 	12062
scalar tree_4_3_u04_r12_network.node[17].core_layer 	data[17] 	9612
scalar tree_4_3_u04_r12_network.node[17].content_store 	p_hit[17] 	0.20303432266622
scalar tree_4_3_u04_r12_network.node[17].content_store 	hits[17] 	2449
scalar tree_4_3_u04_r12_network.node[17].content_store 	misses[17] 	9613
scalar tree_4_3_u04_r12_network.node[17].content_store 	decision_yes[17] 	954
scalar tree_4_3_u04_r12_network.node[17].content_store 	decision_no[17] 	8658
scalar tree_4_3_u04_r12_network.node[17].content_store 	decision_ratio[17] 	0.099250936329588
scalar tree_4_3_u04_r12_network.node[18].core_layer 	interests[18] 	12136
scalar tree_4_3_u04_r12_network.node[18].core_layer 	data[18] 	9664
scalar tree_4_3_u04_r12_network.node[18].content_store 	p_hit[18] 	0.20369149637442
scalar tree_4_3_u04_r12_network.node[18].content_store 	hits[18] 	2472
scalar tree_4_3_u04_r12_network.node[18].content_store 	misses[18] 	9664
scalar tree_4_3_u04_r12_network.node[18].content_store 	decision_yes[18] 	953
scalar tree_4_3_u04_r12_network.node[18].content_store 	decision_no[18] 	8711
scalar tree_4_3_u04_r12_network.node[18].content_store 	decision_ratio[18] 	0.098613410596026
scalar tree_4_3_u04_r12_network.node[19].core_layer 	interests[19] 	11966
scalar tree_4_3_u04_r12_network.node[19].core_layer 	data[19] 	9474
scalar tree_4_3_u04_r12_network.node[19].content_store 	p_hit[19] 	0.20825672739428
scalar tree_4_3_u04_r12_network.node[19].content_store 	hits[19] 	2492
scalar tree_4_3_u04_r12_network.node[19].content_store 	misses[19] 	9474
scalar tree_4_3_u04_r12_network.node[19].content_store 	decision_yes[19] 	1008
scalar tree_4_3_u04_r12_network.node[19].content_store 	decision_no[19] 	8466
scalar tree_4_3_u04_r12_network.node[19].content_store 	decision_ratio[19] 	0.10639645345155
scalar tree_4_3_u04_r12_network.node[20].core_layer 	interests[20] 	12038
scalar tree_4_3_u04_r12_network.node[20].core_layer 	data[20] 	9495
scalar tree_4_3_u04_r12_network.node[20].content_store 	p_hit[20] 	0.21133078584482
scalar tree_4_3_u04_r12_network.node[20].content_store 	hits[20] 	2544
scalar tree_4_3_u04_r12_network.node[20].content_store 	misses[20] 	9494
scalar tree_4_3_u04_r12_network.node[20].content_store 	decision_yes[20] 	930
scalar tree_4_3_u04_r12_network.node[20].content_store 	decision_no[20] 	8565
scalar tree_4_3_u04_r12_network.node[20].content_store 	decision_ratio[20] 	0.097946287519747
scalar tree_4_3_u04_r12_network.node[21].core_layer 	interests[21] 	12023
scalar tree_4_3_u04_r12_network.node[21].core_layer 	data[21] 	9453
scalar tree_4_3_u04_r12_network.node[21].content_store 	p_hit[21] 	0.21367379189886
scalar tree_4_3_u04_r12_network.node[21].content_store 	hits[21] 	2569
scalar tree_4_3_u04_r12_network.node[21].content_store 	misses[21] 	9454
scalar tree_4_3_u04_r12_network.node[21].content_store 	decision_yes[21] 	917
scalar tree_4_3_u04_r12_network.node[21].content_store 	decision_no[21] 	8536
scalar tree_4_3_u04_r12_network.node[21].content_store 	decision_ratio[21] 	0.097006241404845
scalar tree_4_3_u04_r12_network.node[22].core_layer 	interests[22] 	11854
scalar tree_4_3_u04_r12_network.node[22].core_layer 	data[22] 	9380
scalar tree_4_3_u04_r12_network.node[22].content_store 	p_hit[22] 	0.20870592205163
scalar tree_4_3_u04_r12_network.node[22].content_store 	hits[22] 	2474
scalar tree_4_3_u04_r12_network.node[22].content_store 	misses[22] 	9380
scalar tree_4_3_u04_r12_network.node[22].content_store 	decision_yes[22] 	976
scalar tree_4_3_u04_r12_network.node[22].content_store 	decision_no[22] 	8404
scalar tree_4_3_u04_r12_network.node[22].content_store 	decision_ratio[22] 	0.10405117270789
scalar tree_4_3_u04_r12_network.node[23].core_layer 	interests[23] 	11907
scalar tree_4_3_u04_r12_network.node[23].core_layer 	data[23] 	9422
scalar tree_4_3_u04_r12_network.node[23].content_store 	p_hit[23] 	0.20861678004535
scalar tree_4_3_u04_r12_network.node[23].content_store 	hits[23] 	2484
scalar tree_4_3_u04_r12_network.node[23].content_store 	misses[23] 	9423
scalar tree_4_3_u04_r12_network.node[23].content_store 	decision_yes[23] 	879
scalar tree_4_3_u04_r12_network.node[23].content_store 	decision_no[23] 	8543
scalar tree_4_3_u04_r12_network.node[23].content_store 	decision_ratio[23] 	0.09329229462959
scalar tree_4_3_u04_r12_network.node[24].core_layer 	interests[24] 	12112
scalar tree_4_3_u04_r12_network.node[24].core_layer 	data[24] 	9755
scalar tree_4_3_u04_r12_network.node[24].content_store 	p_hit[24] 	0.1945178335535
scalar tree_4_3_u04_r12_network.node[24].content_store 	hits[24] 	2356
scalar tree_4_3_u04_r12_network.node[24].content_store 	misses[24] 	9756
scalar tree_4_3_u04_r12_network.node[24].content_store 	decision_yes[24] 	999
scalar tree_4_3_u04_r12_network.node[24].content_store 	decision_no[24] 	8756
scalar tree_4_3_u04_r12_network.node[24].content_store 	decision_ratio[24] 	0.10240902101486
scalar tree_4_3_u04_r12_network.node[25].core_layer 	interests[25] 	12054
scalar tree_4_3_u04_r12_network.node[25].core_layer 	data[25] 	9530
scalar tree_4_3_u04_r12_network.node[25].content_store 	p_hit[25] 	0.20939107350257
scalar tree_4_3_u04_r12_network.node[25].content_store 	hits[25] 	2524
scalar tree_4_3_u04_r12_network.node[25].content_store 	misses[25] 	9530
scalar tree_4_3_u04_r12_network.node[25].content_store 	decision_yes[25] 	985
scalar tree_4_3_u04_r12_network.node[25].content_store 	decision_no[25] 	8545
scalar tree_4_3_u04_r12_network.node[25].content_store 	decision_ratio[25] 	0.10335781741868
scalar tree_4_3_u04_r12_network.node[26].core_layer 	interests[26] 	11908
scalar tree_4_3_u04_r12_network.node[26].core_layer 	data[26] 	9414
scalar tree_4_3_u04_r12_network.node[26].content_store 	p_hit[26] 	0.20943903258314
scalar tree_4_3_u04_r12_network.node[26].content_store 	hits[26] 	2494
scalar tree_4_3_u04_r12_network.node[26].content_store 	misses[26] 	9414
scalar tree_4_3_u04_r12_network.node[26].content_store 	decision_yes[26] 	898
scalar tree_4_3_u04_r12_network.node[26].content_store 	decision_no[26] 	8516
scalar tree_4_3_u04_r12_network.node[26].content_store 	decision_ratio[26] 	0.095389844911833
scalar tree_4_3_u04_r12_network.node[27].core_layer 	interests[27] 	12094
scalar tree_4_3_u04_r12_network.node[27].core_layer 	data[27] 	9627
scalar tree_4_3_u04_r12_network.node[27].content_store 	p_hit[27] 	0.20398544732925
scalar tree_4_3_u04_r12_network.node[27].content_store 	hits[27] 	2467
scalar tree_4_3_u04_r12_network.node[27].content_store 	misses[27] 	9627
scalar tree_4_3_u04_r12_network.node[27].content_store 	decision_yes[27] 	982
scalar tree_4_3_u04_r12_network.node[27].content_store 	decision_no[27] 	8645
scalar tree_4_3_u04_r12_network.node[27].content_store 	decision_ratio[27] 	0.1020047782279
scalar tree_4_3_u04_r12_network.node[28].core_layer 	interests[28] 	11982
scalar tree_4_3_u04_r12_network.node[28].core_layer 	data[28] 	9523
scalar tree_4_3_u04_r12_network.node[28].content_store 	p_hit[28] 	0.2052245034218
scalar tree_4_3_u04_r12_network.node[28].content_store 	hits[28] 	2459
scalar tree_4_3_u04_r12_network.node[28].content_store 	misses[28] 	9523
scalar tree_4_3_u04_r12_network.node[28].content_store 	decision_yes[28] 	963
scalar tree_4_3_u04_r12_network.node[28].content_store 	decision_no[28] 	8560
scalar tree_4_3_u04_r12_network.node[28].content_store 	decision_ratio[28] 	0.10112359550562
scalar tree_4_3_u04_r12_network.node[29].core_layer 	interests[29] 	11992
scalar tree_4_3_u04_r12_network.node[29].core_layer 	data[29] 	9522
scalar tree_4_3_u04_r12_network.node[29].content_store 	p_hit[29] 	0.20605403602402
scalar tree_4_3_u04_r12_network.node[29].content_store 	hits[29] 	2471
scalar tree_4_3_u04_r12_network.node[29].content_store 	misses[29] 	9521
scalar tree_4_3_u04_r12_network.node[29].content_store 	decision_yes[29] 	960
scalar tree_4_3_u04_r12_network.node[29].content_store 	decision_no[29] 	8562
scalar tree_4_3_u04_r12_network.node[29].content_store 	decision_ratio[29] 	0.10081915563957
scalar tree_4_3_u04_r12_network.node[30].core_layer 	interests[30] 	11774
scalar tree_4_3_u04_r12_network.node[30].core_layer 	data[30] 	9295
scalar tree_4_3_u04_r12_network.node[30].content_store 	p_hit[30] 	0.21046373365042
scalar tree_4_3_u04_r12_network.node[30].content_store 	hits[30] 	2478
scalar tree_4_3_u04_r12_network.node[30].content_store 	misses[30] 	9296
scalar tree_4_3_u04_r12_network.node[30].content_store 	decision_yes[30] 	957
scalar tree_4_3_u04_r12_network.node[30].content_store 	decision_no[30] 	8338
scalar tree_4_3_u04_r12_network.node[30].content_store 	decision_ratio[30] 	0.10295857988166
scalar tree_4_3_u04_r12_network.node[31].core_layer 	interests[31] 	12005
scalar tree_4_3_u04_r12_network.node[31].core_layer 	data[31] 	9555
scalar tree_4_3_u04_r12_network.node[31].content_store 	p_hit[31] 	0.20399833402749
scalar tree_4_3_u04_r12_network.node[31].content_store 	hits[31] 	2449
scalar tree_4_3_u04_r12_network.node[31].content_store 	misses[31] 	9556
scalar tree_4_3_u04_r12_network.node[31].content_store 	decision_yes[31] 	968
scalar tree_4_3_u04_r12_network.node[31].content_store 	decision_no[31] 	8587
scalar tree_4_3_u04_r12_network.node[31].content_store 	decision_ratio[31] 	0.10130821559393
scalar tree_4_3_u04_r12_network.node[32].core_layer 	interests[32] 	12124
scalar tree_4_3_u04_r12_network.node[32].core_layer 	data[32] 	9589
scalar tree_4_3_u04_r12_network.node[32].content_store 	p_hit[32] 	0.20908940943583
scalar tree_4_3_u04_r12_network.node[32].content_store 	hits[32] 	2535
scalar tree_4_3_u04_r12_network.node[32].content_store 	misses[32] 	9589
scalar tree_4_3_u04_r12_network.node[32].content_store 	decision_yes[32] 	1010
scalar tree_4_3_u04_r12_network.node[32].content_store 	decision_no[32] 	8579
scalar tree_4_3_u04_r12_network.node[32].content_store 	decision_ratio[32] 	0.10532902283867
scalar tree_4_3_u04_r12_network.node[33].core_layer 	interests[33] 	12177
scalar tree_4_3_u04_r12_network.node[33].core_layer 	data[33] 	9629
scalar tree_4_3_u04_r12_network.node[33].content_store 	p_hit[33] 	0.20924694095426
scalar tree_4_3_u04_r12_network.node[33].content_store 	hits[33] 	2548
scalar tree_4_3_u04_r12_network.node[33].content_store 	misses[33] 	9629
scalar tree_4_3_u04_r12_network.node[33].content_store 	decision_yes[33] 	924
scalar tree_4_3_u04_r12_network.node[33].content_store 	decision_no[33] 	8705
scalar tree_4_3_u04_r12_network.node[33].content_store 	decision_ratio[33] 	0.095960120469415
scalar tree_4_3_u04_r12_network.node[34].core_layer 	interests[34] 	11935
scalar tree_4_3_u04_r12_network.node[34].core_layer 	data[34] 	9379
scalar tree_4_3_u04_r12_network.node[34].content_store 	p_hit[34] 	0.21416003351487
scalar tree_4_3_u04_r12_network.node[34].content_store 	hits[34] 	2556
scalar tree_4_3_u04_r12_network.node[34].content_store 	misses[34] 	9379
scalar tree_4_3_u04_r12_network.node[34].content_store 	decision_yes[34] 	944
scalar tree_4_3_u04_r12_network.node[34].content_store 	decision_no[34] 	8435
scalar tree_4_3_u04_r12_network.node[34].content_store 	decision_ratio[34] 	0.10065038916729
scalar tree_4_3_u04_r12_network.node[35].core_layer 	interests[35] 	12156
scalar tree_4_3_u04_r12_network.node[35].core_layer 	data[35] 	9550
scalar tree_4_3_u04_r12_network.node[35].content_store 	p_hit[35] 	0.2143797301744
scalar tree_4_3_u04_r12_network.node[35].content_store 	hits[35] 	2606
scalar tree_4_3_u04_r12_network.node[35].content_store 	misses[35] 	9550
scalar tree_4_3_u04_r12_network.node[35].content_store 	decision_yes[35] 	977
scalar tree_4_3_u04_r12_network.node[35].content_store 	decision_no[35] 	8573
scalar tree_4_3_u04_r12_network.node[35].content_store 	decision_ratio[35] 	0.10230366492147
scalar tree_4_3_u04_r12_network.node[36].core_layer 	interests[36] 	12022
scalar tree_4_3_u04_r12_network.node[36].core_layer 	data[36] 	9593
scalar tree_4_3_u04_r12_network.node[36].content_store 	p_hit[36] 	0.20204624854434
scalar tree_4_3_u04_r12_network.node[36].content_store 	hits[36] 	2429
scalar tree_4_3_u04_r12_network.node[36].content_store 	misses[36] 	9593
scalar tree_4_3_u04_r12_network.node[36].content_store 	decision_yes[36] 	948
scalar tree_4_3_u04_r12_network.node[36].content_store 	decision_no[36] 	8645
scalar tree_4_3_u04_r12_network.node[36].content_store 	decision_ratio[36] 	0.098822057750443
scalar tree_4_3_u04_r12_network.node[37].core_layer 	interests[37] 	12059
scalar tree_4_3_u04_r12_network.node[37].core_layer 	data[37] 	9676
scalar tree_4_3_u04_r12_network.node[37].content_store 	p_hit[37] 	0.19761174226719
scalar tree_4_3_u04_r12_network.node[37].content_store 	hits[37] 	2383
scalar tree_4_3_u04_r12_network.node[37].content_store 	misses[37] 	9676
scalar tree_4_3_u04_r12_network.node[37].content_store 	decision_yes[37] 	1015
scalar tree_4_3_u04_r12_network.node[37].content_store 	decision_no[37] 	8661
scalar tree_4_3_u04_r12_network.node[37].content_store 	decision_ratio[37] 	0.10489871847871
scalar tree_4_3_u04_r12_network.node[38].core_layer 	interests[38] 	12131
scalar tree_4_3_u04_r12_network.node[38].core_layer 	data[38] 	9580
scalar tree_4_3_u04_r12_network.node[38].content_store 	p_hit[38] 	0.21028769268815
scalar tree_4_3_u04_r12_network.node[38].content_store 	hits[38] 	2551
scalar tree_4_3_u04_r12_network.node[38].content_store 	misses[38] 	9580
scalar tree_4_3_u04_r12_network.node[38].content_store 	decision_yes[38] 	950
scalar tree_4_3_u04_r12_network.node[38].content_store 	decision_no[38] 	8630
scalar tree_4_3_u04_r12_network.node[38].content_store 	decision_ratio[38] 	0.099164926931106
scalar tree_4_3_u04_r12_network.node[39].core_layer 	interests[39] 	12099
scalar tree_4_3_u04_r12_network.node[39].core_layer 	data[39] 	9630
scalar tree_4_3_u04_r12_network.node[39].content_store 	p_hit[39] 	0.20414910323167
scalar tree_4_3_u04_r12_network.node[39].content_store 	hits[39] 	2470
scalar tree_4_3_u04_r12_network.node[39].content_store 	misses[39] 	9629
scalar tree_4_3_u04_r12_network.node[39].content_store 	decision_yes[39] 	978
scalar tree_4_3_u04_r12_network.node[39].content_store 	decision_no[39] 	8652
scalar tree_4_3_u04_r12_network.node[39].content_store 	decision_ratio[39] 	0.10155763239875
scalar tree_4_3_u04_r12_network.client[13] 	hdistance[13] 	3.0142641382782
scalar tree_4_3_u04_r12_network.client[13] 	downloads[13] 	11918
scalar tree_4_3_u04_r12_network.client[13] 	avg_time[13] 	0.004569760047
scalar tree_4_3_u04_r12_network.client[14] 	hdistance[14] 	3.0158296038455
scalar tree_4_3_u04_r12_network.client[14] 	downloads[14] 	12066
scalar tree_4_3_u04_r12_network.client[14] 	avg_time[14] 	0.004575845308
scalar tree_4_3_u04_r12_network.client[15] 	hdistance[15] 	3.0307975562809
scalar tree_4_3_u04_r12_network.client[15] 	downloads[15] 	11949
scalar tree_4_3_u04_r12_network.client[15] 	avg_time[15] 	0.004596802482
scalar tree_4_3_u04_r12_network.client[16] 	hdistance[16] 	3.0960185415115
scalar tree_4_3_u04_r12_network.client[16] 	downloads[16] 	12081
scalar tree_4_3_u04_r12_network.client[16] 	avg_time[16] 	0.004692900983
scalar tree_4_3_u04_r12_network.client[17] 	hdistance[17] 	3.0488350883011
scalar tree_4_3_u04_r12_network.client[17] 	downloads[17] 	12061
scalar tree_4_3_u04_r12_network.client[17] 	avg_time[17] 	0.004626251932
scalar tree_4_3_u04_r12_network.client[18] 	hdistance[18] 	3.0603164139749
scalar tree_4_3_u04_r12_network.client[18] 	downloads[18] 	12136
scalar tree_4_3_u04_r12_network.client[18] 	avg_time[18] 	0.004640084587
scalar tree_4_3_u04_r12_network.client[19] 	hdistance[19] 	3.0328430553234
scalar tree_4_3_u04_r12_network.client[19] 	downloads[19] 	11966
scalar tree_4_3_u04_r12_network.client[19] 	avg_time[19] 	0.004597421843
scalar tree_4_3_u04_r12_network.client[20] 	hdistance[20] 	3.0217626048675
scalar tree_4_3_u04_r12_network.client[20] 	downloads[20] 	12039
scalar tree_4_3_u04_r12_network.client[20] 	avg_time[20] 	0.004585261535
scalar tree_4_3_u04_r12_network.client[21] 	hdistance[21] 	3.018382964565
scalar tree_4_3_u04_r12_network.client[21] 	downloads[21] 	12022
scalar tree_4_3_u04_r12_network.client[21] 	avg_time[21] 	0.004578559003
scalar tree_4_3_u04_r12_network.client[22] 	hdistance[22] 	3.0377087902818
scalar tree_4_3_u04_r12_network.client[22] 	downloads[22] 	11854
scalar tree_4_3_u04_r12_network.client[22] 	avg_time[22] 	0.004607527905
scalar tree_4_3_u04_r12_network.client[23] 	hdistance[23] 	3.0351923399966
scalar tree_4_3_u04_r12_network.client[23] 	downloads[23] 	11906
scalar tree_4_3_u04_r12_network.client[23] 	avg_time[23] 	0.004603710078
scalar tree_4_3_u04_r12_network.client[24] 	hdistance[24] 	3.0830649822475
scalar tree_4_3_u04_r12_network.client[24] 	downloads[24] 	12111
scalar tree_4_3_u04_r12_network.client[24] 	avg_time[24] 	0.004681814422
scalar tree_4_3_u04_r12_network.client[25] 	hdistance[25] 	3.0259664841546
scalar tree_4_3_u04_r12_network.client[25] 	downloads[25] 	12054
scalar tree_4_3_u04_r12_network.client[25] 	avg_time[25] 	0.004590340449
scalar tree_4_3_u04_r12_network.client[26] 	hdistance[26] 	3.0355223379241
scalar tree_4_3_u04_r12_network.client[26] 	downloads[26] 	11908
scalar tree_4_3_u04_r12_network.client[26] 	avg_time[26] 	0.004603288929
scalar tree_4_3_u04_r12_network.client[27] 	hdistance[27] 	3.0496940631718
scalar tree_4_3_u04_r12_network.client[27] 	downloads[27] 	12094
scalar tree_4_3_u04_r12_network.client[27] 	avg_time[27] 	0.004625100324
scalar tree_4_3_u04_r12_network.client[28] 	hdistance[28] 	3.0499916541479
scalar tree_4_3_u04_r12_network.client[28] 	downloads[28] 	11982
scalar tree_4_3_u04_r12_network.client[28] 	avg_time[28] 	0.004626008649
scalar tree_4_3_u04_r12_network.client[29] 	hdistance[29] 	3.0551154840324
scalar tree_4_3_u04_r12_network.client[29] 	downloads[29] 	11993
scalar tree_4_3_u04_r12_network.client[29] 	avg_time[29] 	0.004635534406
scalar tree_4_3_u04_r12_network.client[30] 	hdistance[30] 	3.0406863161471
scalar tree_4_3_u04_r12_network.client[30] 	downloads[30] 	11773
scalar tree_4_3_u04_r12_network.client[30] 	avg_time[30] 	0.004612332077
scalar tree_4_3_u04_r12_network.client[31] 	hdistance[31] 	3.0532322559147
scalar tree_4_3_u04_r12_network.client[31] 	downloads[31] 	12004
scalar tree_4_3_u04_r12_network.client[31] 	avg_time[31] 	0.004630299122
scalar tree_4_3_u04_r12_network.client[32] 	hdistance[32] 	3.0300230946882
scalar tree_4_3_u04_r12_network.client[32] 	downloads[32] 	12124
scalar tree_4_3_u04_r12_network.client[32] 	avg_time[32] 	0.004593703716
scalar tree_4_3_u04_r12_network.client[33] 	hdistance[33] 	3.0399934302373
scalar tree_4_3_u04_r12_network.client[33] 	downloads[33] 	12177
scalar tree_4_3_u04_r12_network.client[33] 	avg_time[33] 	0.004609013923
scalar tree_4_3_u04_r12_network.client[34] 	hdistance[34] 	3.024633431085
scalar tree_4_3_u04_r12_network.client[34] 	downloads[34] 	11935
scalar tree_4_3_u04_r12_network.client[34] 	avg_time[34] 	0.004586507279
scalar tree_4_3_u04_r12_network.client[35] 	hdistance[35] 	3.0129154327081
scalar tree_4_3_u04_r12_network.client[35] 	downloads[35] 	12156
scalar tree_4_3_u04_r12_network.client[35] 	avg_time[35] 	0.004569756739
scalar tree_4_3_u04_r12_network.client[36] 	hdistance[36] 	3.0430044917651
scalar tree_4_3_u04_r12_network.client[36] 	downloads[36] 	12022
scalar tree_4_3_u04_r12_network.client[36] 	avg_time[36] 	0.004620692379
scalar tree_4_3_u04_r12_network.client[37] 	hdistance[37] 	3.0719794344473
scalar tree_4_3_u04_r12_network.client[37] 	downloads[37] 	12059
scalar tree_4_3_u04_r12_network.client[37] 	avg_time[37] 	0.004660636692
scalar tree_4_3_u04_r12_network.client[38] 	hdistance[38] 	3.0339625752205
scalar tree_4_3_u04_r12_network.client[38] 	downloads[38] 	12131
scalar tree_4_3_u04_r12_network.client[38] 	avg_time[38] 	0.004605223232
scalar tree_4_3_u04_r12_network.client[39] 	hdistance[39] 	3.0595867768595
scalar tree_4_3_u04_r12_network.client[39] 	downloads[39] 	12100
scalar tree_4_3_u04_r12_network.client[39] 	avg_time[39] 	0.004640327557
