version 2
run General-92-20160820-04:12:39-14346
attr a 0.9
attr cd fix0.1
attr configname General
attr cr lru
attr datetime 20160820-04:12:39
attr experiment General
attr fsize 1
attr inifile hw5115/scenario_A/SPR-FIX0.1.ini
attr iterationvars "$name=tree_4_3, $un=04, $rep=13, $cd=fix0.1, $cr=lru, $fsize=1, $a=0.9, $sl=spr, $ttl=1000, $variance=0.05"
attr iterationvars2 "$name=tree_4_3, $un=04, $rep=13, $cd=fix0.1, $cr=lru, $fsize=1, $a=0.9, $sl=spr, $ttl=1000, $variance=0.05, $repetition=0"
attr measurement "$name=tree_4_3, $un=04, $rep=13, $cd=fix0.1, $cr=lru, $fsize=1, $a=0.9, $sl=spr, $ttl=1000, $variance=0.05"
attr name tree_4_3
attr network networks.${name}_u${un}_r${rep}_network
attr processid 14346
attr rep 13
attr repetition 0
attr replication #0
attr resultdir results
attr runnumber 92
attr seedset 13
attr sl spr
attr ttl 1000
attr un 04
attr variance 0.05

scalar . 	a 	0.9
scalar . 	fsize 	1
scalar . 	rep 	13
scalar . 	ttl 	1000
scalar . 	un 	04
scalar . 	variance 	0.05
scalar tree_4_3_u04_r13_network.content_distribution 	repo-0 	0
scalar tree_4_3_u04_r13_network.content_distribution 	client-0 	13
scalar tree_4_3_u04_r13_network.content_distribution 	client-1 	14
scalar tree_4_3_u04_r13_network.content_distribution 	client-2 	15
scalar tree_4_3_u04_r13_network.content_distribution 	client-3 	16
scalar tree_4_3_u04_r13_network.content_distribution 	client-4 	17
scalar tree_4_3_u04_r13_network.content_distribution 	client-5 	18
scalar tree_4_3_u04_r13_network.content_distribution 	client-6 	19
scalar tree_4_3_u04_r13_network.content_distribution 	client-7 	20
scalar tree_4_3_u04_r13_network.content_distribution 	client-8 	21
scalar tree_4_3_u04_r13_network.content_distribution 	client-9 	22
scalar tree_4_3_u04_r13_network.content_distribution 	client-10 	23
scalar tree_4_3_u04_r13_network.content_distribution 	client-11 	24
scalar tree_4_3_u04_r13_network.content_distribution 	client-12 	25
scalar tree_4_3_u04_r13_network.content_distribution 	client-13 	26
scalar tree_4_3_u04_r13_network.content_distribution 	client-14 	27
scalar tree_4_3_u04_r13_network.content_distribution 	client-15 	28
scalar tree_4_3_u04_r13_network.content_distribution 	client-16 	29
scalar tree_4_3_u04_r13_network.content_distribution 	client-17 	30
scalar tree_4_3_u04_r13_network.content_distribution 	client-18 	31
scalar tree_4_3_u04_r13_network.content_distribution 	client-19 	32
scalar tree_4_3_u04_r13_network.content_distribution 	client-20 	33
scalar tree_4_3_u04_r13_network.content_distribution 	client-21 	34
scalar tree_4_3_u04_r13_network.content_distribution 	client-22 	35
scalar tree_4_3_u04_r13_network.content_distribution 	client-23 	36
scalar tree_4_3_u04_r13_network.content_distribution 	client-24 	37
scalar tree_4_3_u04_r13_network.content_distribution 	client-25 	38
scalar tree_4_3_u04_r13_network.content_distribution 	client-26 	39
scalar tree_4_3_u04_r13_network.content_distribution 	repo-0_card 	100000
scalar tree_4_3_u04_r13_network.content_distribution 	repo-0_price 	0
scalar tree_4_3_u04_r13_network.statistics 	stabilization_time 	887
scalar tree_4_3_u04_r13_network.statistics 	p_hit 	0.150122360335
scalar tree_4_3_u04_r13_network.statistics 	interests 	26789.85
scalar tree_4_3_u04_r13_network.statistics 	data 	18685.2
scalar tree_4_3_u04_r13_network.statistics 	hdistance 	3.0400151753367
scalar tree_4_3_u04_r13_network.statistics 	avg_time 	0.00461108252
scalar tree_4_3_u04_r13_network.statistics 	downloads 	324183
scalar tree_4_3_u04_r13_network.statistics 	total_cost 	0
scalar tree_4_3_u04_r13_network.statistics 	total_replicas 	100000
scalar tree_4_3_u04_r13_network.statistics 	inner_hit 	0.26563700132333
scalar tree_4_3_u04_r13_network.node[0].core_layer 	interests[0] 	242464
scalar tree_4_3_u04_r13_network.node[0].core_layer 	repo_load[0] 	238068
scalar tree_4_3_u04_r13_network.node[0].core_layer 	data[0] 	0
scalar tree_4_3_u04_r13_network.node[0].core_layer 	repo_int[0] 	238068
scalar tree_4_3_u04_r13_network.node[0].content_store 	p_hit[0] 	0.018130526593639
scalar tree_4_3_u04_r13_network.node[0].content_store 	hits[0] 	4396
scalar tree_4_3_u04_r13_network.node[0].content_store 	misses[0] 	238068
scalar tree_4_3_u04_r13_network.node[0].content_store 	decision_yes[0] 	23851
scalar tree_4_3_u04_r13_network.node[0].content_store 	decision_no[0] 	214217
scalar tree_4_3_u04_r13_network.node[0].content_store 	decision_ratio[0] 	0.10018566123965
scalar tree_4_3_u04_r13_network.node[1].core_layer 	interests[1] 	165620
scalar tree_4_3_u04_r13_network.node[1].core_layer 	data[1] 	161871
scalar tree_4_3_u04_r13_network.node[1].content_store 	p_hit[1] 	0.02254558628185
scalar tree_4_3_u04_r13_network.node[1].content_store 	hits[1] 	3734
scalar tree_4_3_u04_r13_network.node[1].content_store 	misses[1] 	161886
scalar tree_4_3_u04_r13_network.node[1].content_store 	decision_yes[1] 	16142
scalar tree_4_3_u04_r13_network.node[1].content_store 	decision_no[1] 	145729
scalar tree_4_3_u04_r13_network.node[1].content_store 	decision_ratio[1] 	0.099721383076647
scalar tree_4_3_u04_r13_network.node[2].core_layer 	interests[2] 	64209
scalar tree_4_3_u04_r13_network.node[2].core_layer 	data[2] 	62742
scalar tree_4_3_u04_r13_network.node[2].content_store 	p_hit[2] 	0.022847264402187
scalar tree_4_3_u04_r13_network.node[2].content_store 	hits[2] 	1467
scalar tree_4_3_u04_r13_network.node[2].content_store 	misses[2] 	62742
scalar tree_4_3_u04_r13_network.node[2].content_store 	decision_yes[2] 	6298
scalar tree_4_3_u04_r13_network.node[2].content_store 	decision_no[2] 	56444
scalar tree_4_3_u04_r13_network.node[2].content_store 	decision_ratio[2] 	0.10037933122948
scalar tree_4_3_u04_r13_network.node[3].core_layer 	interests[3] 	18329
scalar tree_4_3_u04_r13_network.node[3].core_layer 	data[3] 	17851
scalar tree_4_3_u04_r13_network.node[3].content_store 	p_hit[3] 	0.026078891374325
scalar tree_4_3_u04_r13_network.node[3].content_store 	hits[3] 	478
scalar tree_4_3_u04_r13_network.node[3].content_store 	misses[3] 	17851
scalar tree_4_3_u04_r13_network.node[3].content_store 	decision_yes[3] 	1785
scalar tree_4_3_u04_r13_network.node[3].content_store 	decision_no[3] 	16066
scalar tree_4_3_u04_r13_network.node[3].content_store 	decision_ratio[3] 	0.099994398072937
scalar tree_4_3_u04_r13_network.node[4].core_layer 	interests[4] 	38089
scalar tree_4_3_u04_r13_network.node[4].core_layer 	data[4] 	36982
scalar tree_4_3_u04_r13_network.node[4].content_store 	p_hit[4] 	0.029037254850482
scalar tree_4_3_u04_r13_network.node[4].content_store 	hits[4] 	1106
scalar tree_4_3_u04_r13_network.node[4].content_store 	misses[4] 	36983
scalar tree_4_3_u04_r13_network.node[4].content_store 	decision_yes[4] 	3577
scalar tree_4_3_u04_r13_network.node[4].content_store 	decision_no[4] 	33405
scalar tree_4_3_u04_r13_network.node[4].content_store 	decision_ratio[4] 	0.096722729976745
scalar tree_4_3_u04_r13_network.node[5].core_layer 	interests[5] 	18993
scalar tree_4_3_u04_r13_network.node[5].core_layer 	data[5] 	18372
scalar tree_4_3_u04_r13_network.node[5].content_store 	p_hit[5] 	0.032696256515558
scalar tree_4_3_u04_r13_network.node[5].content_store 	hits[5] 	621
scalar tree_4_3_u04_r13_network.node[5].content_store 	misses[5] 	18372
scalar tree_4_3_u04_r13_network.node[5].content_store 	decision_yes[5] 	1777
scalar tree_4_3_u04_r13_network.node[5].content_store 	decision_no[5] 	16595
scalar tree_4_3_u04_r13_network.node[5].content_store 	decision_ratio[5] 	0.096723274548226
scalar tree_4_3_u04_r13_network.node[6].core_layer 	interests[6] 	28680
scalar tree_4_3_u04_r13_network.node[6].core_layer 	data[6] 	27667
scalar tree_4_3_u04_r13_network.node[6].content_store 	p_hit[6] 	0.035320781032078
scalar tree_4_3_u04_r13_network.node[6].content_store 	hits[6] 	1013
scalar tree_4_3_u04_r13_network.node[6].content_store 	misses[6] 	27667
scalar tree_4_3_u04_r13_network.node[6].content_store 	decision_yes[6] 	2725
scalar tree_4_3_u04_r13_network.node[6].content_store 	decision_no[6] 	24942
scalar tree_4_3_u04_r13_network.node[6].content_store 	decision_ratio[6] 	0.098492789243503
scalar tree_4_3_u04_r13_network.node[7].core_layer 	interests[7] 	37856
scalar tree_4_3_u04_r13_network.node[7].core_layer 	data[7] 	36494
scalar tree_4_3_u04_r13_network.node[7].content_store 	p_hit[7] 	0.03595202874049
scalar tree_4_3_u04_r13_network.node[7].content_store 	hits[7] 	1361
scalar tree_4_3_u04_r13_network.node[7].content_store 	misses[7] 	36495
scalar tree_4_3_u04_r13_network.node[7].content_store 	decision_yes[7] 	3633
scalar tree_4_3_u04_r13_network.node[7].content_store 	decision_no[7] 	32861
scalar tree_4_3_u04_r13_network.node[7].content_store 	decision_ratio[7] 	0.099550611059352
scalar tree_4_3_u04_r13_network.node[8].core_layer 	interests[8] 	18752
scalar tree_4_3_u04_r13_network.node[8].core_layer 	data[8] 	18157
scalar tree_4_3_u04_r13_network.node[8].content_store 	p_hit[8] 	0.031729948805461
scalar tree_4_3_u04_r13_network.node[8].content_store 	hits[8] 	595
scalar tree_4_3_u04_r13_network.node[8].content_store 	misses[8] 	18157
scalar tree_4_3_u04_r13_network.node[8].content_store 	decision_yes[8] 	1817
scalar tree_4_3_u04_r13_network.node[8].content_store 	decision_no[8] 	16340
scalar tree_4_3_u04_r13_network.node[8].content_store 	decision_ratio[8] 	0.1000715977309
scalar tree_4_3_u04_r13_network.node[9].core_layer 	interests[9] 	28566
scalar tree_4_3_u04_r13_network.node[9].core_layer 	data[9] 	27618
scalar tree_4_3_u04_r13_network.node[9].content_store 	p_hit[9] 	0.033151298746762
scalar tree_4_3_u04_r13_network.node[9].content_store 	hits[9] 	947
scalar tree_4_3_u04_r13_network.node[9].content_store 	misses[9] 	27619
scalar tree_4_3_u04_r13_network.node[9].content_store 	decision_yes[9] 	2740
scalar tree_4_3_u04_r13_network.node[9].content_store 	decision_no[9] 	24878
scalar tree_4_3_u04_r13_network.node[9].content_store 	decision_ratio[9] 	0.099210659714679
scalar tree_4_3_u04_r13_network.node[10].core_layer 	interests[10] 	47759
scalar tree_4_3_u04_r13_network.node[10].core_layer 	data[10] 	46105
scalar tree_4_3_u04_r13_network.node[10].content_store 	p_hit[10] 	0.034569400531837
scalar tree_4_3_u04_r13_network.node[10].content_store 	hits[10] 	1651
scalar tree_4_3_u04_r13_network.node[10].content_store 	misses[10] 	46108
scalar tree_4_3_u04_r13_network.node[10].content_store 	decision_yes[10] 	4557
scalar tree_4_3_u04_r13_network.node[10].content_store 	decision_no[10] 	41548
scalar tree_4_3_u04_r13_network.node[10].content_store 	decision_ratio[10] 	0.098839605248888
scalar tree_4_3_u04_r13_network.node[11].core_layer 	interests[11] 	19055
scalar tree_4_3_u04_r13_network.node[11].core_layer 	data[11] 	18434
scalar tree_4_3_u04_r13_network.node[11].content_store 	p_hit[11] 	0.032589871424823
scalar tree_4_3_u04_r13_network.node[11].content_store 	hits[11] 	621
scalar tree_4_3_u04_r13_network.node[11].content_store 	misses[11] 	18434
scalar tree_4_3_u04_r13_network.node[11].content_store 	decision_yes[11] 	1821
scalar tree_4_3_u04_r13_network.node[11].content_store 	decision_no[11] 	16613
scalar tree_4_3_u04_r13_network.node[11].content_store 	decision_ratio[11] 	0.098784854073994
scalar tree_4_3_u04_r13_network.node[12].core_layer 	interests[12] 	19035
scalar tree_4_3_u04_r13_network.node[12].core_layer 	data[12] 	18329
scalar tree_4_3_u04_r13_network.node[12].content_store 	p_hit[12] 	0.037089571841345
scalar tree_4_3_u04_r13_network.node[12].content_store 	hits[12] 	706
scalar tree_4_3_u04_r13_network.node[12].content_store 	misses[12] 	18329
scalar tree_4_3_u04_r13_network.node[12].content_store 	decision_yes[12] 	1840
scalar tree_4_3_u04_r13_network.node[12].content_store 	decision_no[12] 	16489
scalar tree_4_3_u04_r13_network.node[12].content_store 	decision_ratio[12] 	0.1003873642861
scalar tree_4_3_u04_r13_network.node[13].core_layer 	interests[13] 	12114
scalar tree_4_3_u04_r13_network.node[13].core_layer 	data[13] 	9629
scalar tree_4_3_u04_r13_network.node[13].content_store 	p_hit[13] 	0.20513455506026
scalar tree_4_3_u04_r13_network.node[13].content_store 	hits[13] 	2485
scalar tree_4_3_u04_r13_network.node[13].content_store 	misses[13] 	9629
scalar tree_4_3_u04_r13_network.node[13].content_store 	decision_yes[13] 	970
scalar tree_4_3_u04_r13_network.node[13].content_store 	decision_no[13] 	8659
scalar tree_4_3_u04_r13_network.node[13].content_store 	decision_ratio[13] 	0.10073735590404
scalar tree_4_3_u04_r13_network.node[14].core_layer 	interests[14] 	11862
scalar tree_4_3_u04_r13_network.node[14].core_layer 	data[14] 	9399
scalar tree_4_3_u04_r13_network.node[14].content_store 	p_hit[14] 	0.20763783510369
scalar tree_4_3_u04_r13_network.node[14].content_store 	hits[14] 	2463
scalar tree_4_3_u04_r13_network.node[14].content_store 	misses[14] 	9399
scalar tree_4_3_u04_r13_network.node[14].content_store 	decision_yes[14] 	968
scalar tree_4_3_u04_r13_network.node[14].content_store 	decision_no[14] 	8431
scalar tree_4_3_u04_r13_network.node[14].content_store 	decision_ratio[14] 	0.10298967975317
scalar tree_4_3_u04_r13_network.node[15].core_layer 	interests[15] 	12006
scalar tree_4_3_u04_r13_network.node[15].core_layer 	data[15] 	9439
scalar tree_4_3_u04_r13_network.node[15].content_store 	p_hit[15] 	0.21389305347326
scalar tree_4_3_u04_r13_network.node[15].content_store 	hits[15] 	2568
scalar tree_4_3_u04_r13_network.node[15].content_store 	misses[15] 	9438
scalar tree_4_3_u04_r13_network.node[15].content_store 	decision_yes[15] 	951
scalar tree_4_3_u04_r13_network.node[15].content_store 	decision_no[15] 	8488
scalar tree_4_3_u04_r13_network.node[15].content_store 	decision_ratio[15] 	0.10075219832609
scalar tree_4_3_u04_r13_network.node[16].core_layer 	interests[16] 	12162
scalar tree_4_3_u04_r13_network.node[16].core_layer 	data[16] 	9623
scalar tree_4_3_u04_r13_network.node[16].content_store 	p_hit[16] 	0.20876500575563
scalar tree_4_3_u04_r13_network.node[16].content_store 	hits[16] 	2539
scalar tree_4_3_u04_r13_network.node[16].content_store 	misses[16] 	9623
scalar tree_4_3_u04_r13_network.node[16].content_store 	decision_yes[16] 	942
scalar tree_4_3_u04_r13_network.node[16].content_store 	decision_no[16] 	8681
scalar tree_4_3_u04_r13_network.node[16].content_store 	decision_ratio[16] 	0.097890470747168
scalar tree_4_3_u04_r13_network.node[17].core_layer 	interests[17] 	11982
scalar tree_4_3_u04_r13_network.node[17].core_layer 	data[17] 	9507
scalar tree_4_3_u04_r13_network.node[17].content_store 	p_hit[17] 	0.20655983975964
scalar tree_4_3_u04_r13_network.node[17].content_store 	hits[17] 	2475
scalar tree_4_3_u04_r13_network.node[17].content_store 	misses[17] 	9507
scalar tree_4_3_u04_r13_network.node[17].content_store 	decision_yes[17] 	970
scalar tree_4_3_u04_r13_network.node[17].content_store 	decision_no[17] 	8537
scalar tree_4_3_u04_r13_network.node[17].content_store 	decision_ratio[17] 	0.10203008309667
scalar tree_4_3_u04_r13_network.node[18].core_layer 	interests[18] 	12004
scalar tree_4_3_u04_r13_network.node[18].core_layer 	data[18] 	9486
scalar tree_4_3_u04_r13_network.node[18].content_store 	p_hit[18] 	0.20976341219593
scalar tree_4_3_u04_r13_network.node[18].content_store 	hits[18] 	2518
scalar tree_4_3_u04_r13_network.node[18].content_store 	misses[18] 	9486
scalar tree_4_3_u04_r13_network.node[18].content_store 	decision_yes[18] 	974
scalar tree_4_3_u04_r13_network.node[18].content_store 	decision_no[18] 	8512
scalar tree_4_3_u04_r13_network.node[18].content_store 	decision_ratio[18] 	0.10267763019186
scalar tree_4_3_u04_r13_network.node[19].core_layer 	interests[19] 	11986
scalar tree_4_3_u04_r13_network.node[19].core_layer 	data[19] 	9458
scalar tree_4_3_u04_r13_network.node[19].content_store 	p_hit[19] 	0.21091273152011
scalar tree_4_3_u04_r13_network.node[19].content_store 	hits[19] 	2528
scalar tree_4_3_u04_r13_network.node[19].content_store 	misses[19] 	9458
scalar tree_4_3_u04_r13_network.node[19].content_store 	decision_yes[19] 	946
scalar tree_4_3_u04_r13_network.node[19].content_store 	decision_no[19] 	8512
scalar tree_4_3_u04_r13_network.node[19].content_store 	decision_ratio[19] 	0.10002114611969
scalar tree_4_3_u04_r13_network.node[20].core_layer 	interests[20] 	12092
scalar tree_4_3_u04_r13_network.node[20].core_layer 	data[20] 	9697
scalar tree_4_3_u04_r13_network.node[20].content_store 	p_hit[20] 	0.19806483625538
scalar tree_4_3_u04_r13_network.node[20].content_store 	hits[20] 	2395
scalar tree_4_3_u04_r13_network.node[20].content_store 	misses[20] 	9697
scalar tree_4_3_u04_r13_network.node[20].content_store 	decision_yes[20] 	1034
scalar tree_4_3_u04_r13_network.node[20].content_store 	decision_no[20] 	8663
scalar tree_4_3_u04_r13_network.node[20].content_store 	decision_ratio[20] 	0.10663091677839
scalar tree_4_3_u04_r13_network.node[21].core_layer 	interests[21] 	12065
scalar tree_4_3_u04_r13_network.node[21].core_layer 	data[21] 	9525
scalar tree_4_3_u04_r13_network.node[21].content_store 	p_hit[21] 	0.21044343141318
scalar tree_4_3_u04_r13_network.node[21].content_store 	hits[21] 	2539
scalar tree_4_3_u04_r13_network.node[21].content_store 	misses[21] 	9526
scalar tree_4_3_u04_r13_network.node[21].content_store 	decision_yes[21] 	946
scalar tree_4_3_u04_r13_network.node[21].content_store 	decision_no[21] 	8579
scalar tree_4_3_u04_r13_network.node[21].content_store 	decision_ratio[21] 	0.099317585301837
scalar tree_4_3_u04_r13_network.node[22].core_layer 	interests[22] 	11842
scalar tree_4_3_u04_r13_network.node[22].core_layer 	data[22] 	9333
scalar tree_4_3_u04_r13_network.node[22].content_store 	p_hit[22] 	0.21187299442662
scalar tree_4_3_u04_r13_network.node[22].content_store 	hits[22] 	2509
scalar tree_4_3_u04_r13_network.node[22].content_store 	misses[22] 	9333
scalar tree_4_3_u04_r13_network.node[22].content_store 	decision_yes[22] 	948
scalar tree_4_3_u04_r13_network.node[22].content_store 	decision_no[22] 	8385
scalar tree_4_3_u04_r13_network.node[22].content_store 	decision_ratio[22] 	0.10157505625201
scalar tree_4_3_u04_r13_network.node[23].core_layer 	interests[23] 	11990
scalar tree_4_3_u04_r13_network.node[23].core_layer 	data[23] 	9547
scalar tree_4_3_u04_r13_network.node[23].content_store 	p_hit[23] 	0.20366972477064
scalar tree_4_3_u04_r13_network.node[23].content_store 	hits[23] 	2442
scalar tree_4_3_u04_r13_network.node[23].content_store 	misses[23] 	9548
scalar tree_4_3_u04_r13_network.node[23].content_store 	decision_yes[23] 	1023
scalar tree_4_3_u04_r13_network.node[23].content_store 	decision_no[23] 	8524
scalar tree_4_3_u04_r13_network.node[23].content_store 	decision_ratio[23] 	0.10715407981565
scalar tree_4_3_u04_r13_network.node[24].core_layer 	interests[24] 	12127
scalar tree_4_3_u04_r13_network.node[24].core_layer 	data[24] 	9575
scalar tree_4_3_u04_r13_network.node[24].content_store 	p_hit[24] 	0.21043951513152
scalar tree_4_3_u04_r13_network.node[24].content_store 	hits[24] 	2552
scalar tree_4_3_u04_r13_network.node[24].content_store 	misses[24] 	9575
scalar tree_4_3_u04_r13_network.node[24].content_store 	decision_yes[24] 	910
scalar tree_4_3_u04_r13_network.node[24].content_store 	decision_no[24] 	8665
scalar tree_4_3_u04_r13_network.node[24].content_store 	decision_ratio[24] 	0.095039164490862
scalar tree_4_3_u04_r13_network.node[25].core_layer 	interests[25] 	11830
scalar tree_4_3_u04_r13_network.node[25].core_layer 	data[25] 	9401
scalar tree_4_3_u04_r13_network.node[25].content_store 	p_hit[25] 	0.20532544378698
scalar tree_4_3_u04_r13_network.node[25].content_store 	hits[25] 	2429
scalar tree_4_3_u04_r13_network.node[25].content_store 	misses[25] 	9401
scalar tree_4_3_u04_r13_network.node[25].content_store 	decision_yes[25] 	932
scalar tree_4_3_u04_r13_network.node[25].content_store 	decision_no[25] 	8469
scalar tree_4_3_u04_r13_network.node[25].content_store 	decision_ratio[25] 	0.099138389533028
scalar tree_4_3_u04_r13_network.node[26].core_layer 	interests[26] 	11800
scalar tree_4_3_u04_r13_network.node[26].core_layer 	data[26] 	9291
scalar tree_4_3_u04_r13_network.node[26].content_store 	p_hit[26] 	0.21254237288136
scalar tree_4_3_u04_r13_network.node[26].content_store 	hits[26] 	2508
scalar tree_4_3_u04_r13_network.node[26].content_store 	misses[26] 	9292
scalar tree_4_3_u04_r13_network.node[26].content_store 	decision_yes[26] 	909
scalar tree_4_3_u04_r13_network.node[26].content_store 	decision_no[26] 	8382
scalar tree_4_3_u04_r13_network.node[26].content_store 	decision_ratio[26] 	0.097836616080077
scalar tree_4_3_u04_r13_network.node[27].core_layer 	interests[27] 	11907
scalar tree_4_3_u04_r13_network.node[27].core_layer 	data[27] 	9461
scalar tree_4_3_u04_r13_network.node[27].content_store 	p_hit[27] 	0.20534139581759
scalar tree_4_3_u04_r13_network.node[27].content_store 	hits[27] 	2445
scalar tree_4_3_u04_r13_network.node[27].content_store 	misses[27] 	9462
scalar tree_4_3_u04_r13_network.node[27].content_store 	decision_yes[27] 	942
scalar tree_4_3_u04_r13_network.node[27].content_store 	decision_no[27] 	8519
scalar tree_4_3_u04_r13_network.node[27].content_store 	decision_ratio[27] 	0.099566642004016
scalar tree_4_3_u04_r13_network.node[28].core_layer 	interests[28] 	11961
scalar tree_4_3_u04_r13_network.node[28].core_layer 	data[28] 	9571
scalar tree_4_3_u04_r13_network.node[28].content_store 	p_hit[28] 	0.19981606889056
scalar tree_4_3_u04_r13_network.node[28].content_store 	hits[28] 	2390
scalar tree_4_3_u04_r13_network.node[28].content_store 	misses[28] 	9571
scalar tree_4_3_u04_r13_network.node[28].content_store 	decision_yes[28] 	1025
scalar tree_4_3_u04_r13_network.node[28].content_store 	decision_no[28] 	8546
scalar tree_4_3_u04_r13_network.node[28].content_store 	decision_ratio[28] 	0.1070943475081
scalar tree_4_3_u04_r13_network.node[29].core_layer 	interests[29] 	12061
scalar tree_4_3_u04_r13_network.node[29].core_layer 	data[29] 	9524
scalar tree_4_3_u04_r13_network.node[29].content_store 	p_hit[29] 	0.21034740071304
scalar tree_4_3_u04_r13_network.node[29].content_store 	hits[29] 	2537
scalar tree_4_3_u04_r13_network.node[29].content_store 	misses[29] 	9524
scalar tree_4_3_u04_r13_network.node[29].content_store 	decision_yes[29] 	953
scalar tree_4_3_u04_r13_network.node[29].content_store 	decision_no[29] 	8571
scalar tree_4_3_u04_r13_network.node[29].content_store 	decision_ratio[29] 	0.10006299874003
scalar tree_4_3_u04_r13_network.node[30].core_layer 	interests[30] 	12007
scalar tree_4_3_u04_r13_network.node[30].core_layer 	data[30] 	9471
scalar tree_4_3_u04_r13_network.node[30].content_store 	p_hit[30] 	0.21121012742567
scalar tree_4_3_u04_r13_network.node[30].content_store 	hits[30] 	2536
scalar tree_4_3_u04_r13_network.node[30].content_store 	misses[30] 	9471
scalar tree_4_3_u04_r13_network.node[30].content_store 	decision_yes[30] 	968
scalar tree_4_3_u04_r13_network.node[30].content_store 	decision_no[30] 	8503
scalar tree_4_3_u04_r13_network.node[30].content_store 	decision_ratio[30] 	0.10220673635308
scalar tree_4_3_u04_r13_network.node[31].core_layer 	interests[31] 	12069
scalar tree_4_3_u04_r13_network.node[31].core_layer 	data[31] 	9600
scalar tree_4_3_u04_r13_network.node[31].content_store 	p_hit[31] 	0.204573701218
scalar tree_4_3_u04_r13_network.node[31].content_store 	hits[31] 	2469
scalar tree_4_3_u04_r13_network.node[31].content_store 	misses[31] 	9600
scalar tree_4_3_u04_r13_network.node[31].content_store 	decision_yes[31] 	980
scalar tree_4_3_u04_r13_network.node[31].content_store 	decision_no[31] 	8620
scalar tree_4_3_u04_r13_network.node[31].content_store 	decision_ratio[31] 	0.10208333333333
scalar tree_4_3_u04_r13_network.node[32].core_layer 	interests[32] 	11976
scalar tree_4_3_u04_r13_network.node[32].core_layer 	data[32] 	9554
scalar tree_4_3_u04_r13_network.node[32].content_store 	p_hit[32] 	0.20215430861723
scalar tree_4_3_u04_r13_network.node[32].content_store 	hits[32] 	2421
scalar tree_4_3_u04_r13_network.node[32].content_store 	misses[32] 	9555
scalar tree_4_3_u04_r13_network.node[32].content_store 	decision_yes[32] 	969
scalar tree_4_3_u04_r13_network.node[32].content_store 	decision_no[32] 	8585
scalar tree_4_3_u04_r13_network.node[32].content_store 	decision_ratio[32] 	0.10142348754448
scalar tree_4_3_u04_r13_network.node[33].core_layer 	interests[33] 	12213
scalar tree_4_3_u04_r13_network.node[33].core_layer 	data[33] 	9654
scalar tree_4_3_u04_r13_network.node[33].content_store 	p_hit[33] 	0.20953082780644
scalar tree_4_3_u04_r13_network.node[33].content_store 	hits[33] 	2559
scalar tree_4_3_u04_r13_network.node[33].content_store 	misses[33] 	9654
scalar tree_4_3_u04_r13_network.node[33].content_store 	decision_yes[33] 	935
scalar tree_4_3_u04_r13_network.node[33].content_store 	decision_no[33] 	8719
scalar tree_4_3_u04_r13_network.node[33].content_store 	decision_ratio[33] 	0.096851046198467
scalar tree_4_3_u04_r13_network.node[34].core_layer 	interests[34] 	11970
scalar tree_4_3_u04_r13_network.node[34].core_layer 	data[34] 	9414
scalar tree_4_3_u04_r13_network.node[34].content_store 	p_hit[34] 	0.21353383458647
scalar tree_4_3_u04_r13_network.node[34].content_store 	hits[34] 	2556
scalar tree_4_3_u04_r13_network.node[34].content_store 	misses[34] 	9414
scalar tree_4_3_u04_r13_network.node[34].content_store 	decision_yes[34] 	920
scalar tree_4_3_u04_r13_network.node[34].content_store 	decision_no[34] 	8494
scalar tree_4_3_u04_r13_network.node[34].content_store 	decision_ratio[34] 	0.097726789887402
scalar tree_4_3_u04_r13_network.node[35].core_layer 	interests[35] 	12110
scalar tree_4_3_u04_r13_network.node[35].core_layer 	data[35] 	9509
scalar tree_4_3_u04_r13_network.node[35].content_store 	p_hit[35] 	0.21478117258464
scalar tree_4_3_u04_r13_network.node[35].content_store 	hits[35] 	2601
scalar tree_4_3_u04_r13_network.node[35].content_store 	misses[35] 	9509
scalar tree_4_3_u04_r13_network.node[35].content_store 	decision_yes[35] 	933
scalar tree_4_3_u04_r13_network.node[35].content_store 	decision_no[35] 	8576
scalar tree_4_3_u04_r13_network.node[35].content_store 	decision_ratio[35] 	0.098117572825744
scalar tree_4_3_u04_r13_network.node[36].core_layer 	interests[36] 	12078
scalar tree_4_3_u04_r13_network.node[36].core_layer 	data[36] 	9546
scalar tree_4_3_u04_r13_network.node[36].content_store 	p_hit[36] 	0.20963735717834
scalar tree_4_3_u04_r13_network.node[36].content_store 	hits[36] 	2532
scalar tree_4_3_u04_r13_network.node[36].content_store 	misses[36] 	9546
scalar tree_4_3_u04_r13_network.node[36].content_store 	decision_yes[36] 	961
scalar tree_4_3_u04_r13_network.node[36].content_store 	decision_no[36] 	8585
scalar tree_4_3_u04_r13_network.node[36].content_store 	decision_ratio[36] 	0.10067043787974
scalar tree_4_3_u04_r13_network.node[37].core_layer 	interests[37] 	12023
scalar tree_4_3_u04_r13_network.node[37].core_layer 	data[37] 	9537
scalar tree_4_3_u04_r13_network.node[37].content_store 	p_hit[37] 	0.2067703568161
scalar tree_4_3_u04_r13_network.node[37].content_store 	hits[37] 	2486
scalar tree_4_3_u04_r13_network.node[37].content_store 	misses[37] 	9537
scalar tree_4_3_u04_r13_network.node[37].content_store 	decision_yes[37] 	933
scalar tree_4_3_u04_r13_network.node[37].content_store 	decision_no[37] 	8604
scalar tree_4_3_u04_r13_network.node[37].content_store 	decision_ratio[37] 	0.097829506134004
scalar tree_4_3_u04_r13_network.node[38].core_layer 	interests[38] 	11953
scalar tree_4_3_u04_r13_network.node[38].core_layer 	data[38] 	9513
scalar tree_4_3_u04_r13_network.node[38].content_store 	p_hit[38] 	0.2041328536769
scalar tree_4_3_u04_r13_network.node[38].content_store 	hits[38] 	2440
scalar tree_4_3_u04_r13_network.node[38].content_store 	misses[38] 	9513
scalar tree_4_3_u04_r13_network.node[38].content_store 	decision_yes[38] 	962
scalar tree_4_3_u04_r13_network.node[38].content_store 	decision_no[38] 	8551
scalar tree_4_3_u04_r13_network.node[38].content_store 	decision_ratio[38] 	0.10112477662147
scalar tree_4_3_u04_r13_network.node[39].core_layer 	interests[39] 	11997
scalar tree_4_3_u04_r13_network.node[39].core_layer 	data[39] 	9522
scalar tree_4_3_u04_r13_network.node[39].content_store 	p_hit[39] 	0.20630157539385
scalar tree_4_3_u04_r13_network.node[39].content_store 	hits[39] 	2475
scalar tree_4_3_u04_r13_network.node[39].content_store 	misses[39] 	9522
scalar tree_4_3_u04_r13_network.node[39].content_store 	decision_yes[39] 	905
scalar tree_4_3_u04_r13_network.node[39].content_store 	decision_no[39] 	8617
scalar tree_4_3_u04_r13_network.node[39].content_store 	decision_ratio[39] 	0.095043058181054
scalar tree_4_3_u04_r13_network.client[13] 	hdistance[13] 	3.0626547795938
scalar tree_4_3_u04_r13_network.client[13] 	downloads[13] 	12114
scalar tree_4_3_u04_r13_network.client[13] 	avg_time[13] 	0.004646653014
scalar tree_4_3_u04_r13_network.client[14] 	hdistance[14] 	3.0507502950598
scalar tree_4_3_u04_r13_network.client[14] 	downloads[14] 	11862
scalar tree_4_3_u04_r13_network.client[14] 	avg_time[14] 	0.00462569254
scalar tree_4_3_u04_r13_network.client[15] 	hdistance[15] 	3.0293162321979
scalar tree_4_3_u04_r13_network.client[15] 	downloads[15] 	12007
scalar tree_4_3_u04_r13_network.client[15] 	avg_time[15] 	0.004591928532
scalar tree_4_3_u04_r13_network.client[16] 	hdistance[16] 	3.0439894754152
scalar tree_4_3_u04_r13_network.client[16] 	downloads[16] 	12162
scalar tree_4_3_u04_r13_network.client[16] 	avg_time[16] 	0.004618027211
scalar tree_4_3_u04_r13_network.client[17] 	hdistance[17] 	3.0399766316141
scalar tree_4_3_u04_r13_network.client[17] 	downloads[17] 	11982
scalar tree_4_3_u04_r13_network.client[17] 	avg_time[17] 	0.004614084787
scalar tree_4_3_u04_r13_network.client[18] 	hdistance[18] 	3.0416527824059
scalar tree_4_3_u04_r13_network.client[18] 	downloads[18] 	12004
scalar tree_4_3_u04_r13_network.client[18] 	avg_time[18] 	0.004611321655
scalar tree_4_3_u04_r13_network.client[19] 	hdistance[19] 	3.0301184715501
scalar tree_4_3_u04_r13_network.client[19] 	downloads[19] 	11986
scalar tree_4_3_u04_r13_network.client[19] 	avg_time[19] 	0.00459687613
scalar tree_4_3_u04_r13_network.client[20] 	hdistance[20] 	3.0630995699636
scalar tree_4_3_u04_r13_network.client[20] 	downloads[20] 	12092
scalar tree_4_3_u04_r13_network.client[20] 	avg_time[20] 	0.004650161049
scalar tree_4_3_u04_r13_network.client[21] 	hdistance[21] 	3.0268567639257
scalar tree_4_3_u04_r13_network.client[21] 	downloads[21] 	12064
scalar tree_4_3_u04_r13_network.client[21] 	avg_time[21] 	0.004590914992
scalar tree_4_3_u04_r13_network.client[22] 	hdistance[22] 	3.0223779766931
scalar tree_4_3_u04_r13_network.client[22] 	downloads[22] 	11842
scalar tree_4_3_u04_r13_network.client[22] 	avg_time[22] 	0.004585567101
scalar tree_4_3_u04_r13_network.client[23] 	hdistance[23] 	3.0521311201935
scalar tree_4_3_u04_r13_network.client[23] 	downloads[23] 	11989
scalar tree_4_3_u04_r13_network.client[23] 	avg_time[23] 	0.004629449657
scalar tree_4_3_u04_r13_network.client[24] 	hdistance[24] 	3.0310876556444
scalar tree_4_3_u04_r13_network.client[24] 	downloads[24] 	12127
scalar tree_4_3_u04_r13_network.client[24] 	avg_time[24] 	0.004595517541
scalar tree_4_3_u04_r13_network.client[25] 	hdistance[25] 	3.0378698224852
scalar tree_4_3_u04_r13_network.client[25] 	downloads[25] 	11830
scalar tree_4_3_u04_r13_network.client[25] 	avg_time[25] 	0.004607097617
scalar tree_4_3_u04_r13_network.client[26] 	hdistance[26] 	3.025171624714
scalar tree_4_3_u04_r13_network.client[26] 	downloads[26] 	11799
scalar tree_4_3_u04_r13_network.client[26] 	avg_time[26] 	0.004589334347
scalar tree_4_3_u04_r13_network.client[27] 	hdistance[27] 	3.0488829161767
scalar tree_4_3_u04_r13_network.client[27] 	downloads[27] 	11906
scalar tree_4_3_u04_r13_network.client[27] 	avg_time[27] 	0.004627326505
scalar tree_4_3_u04_r13_network.client[28] 	hdistance[28] 	3.0674692751442
scalar tree_4_3_u04_r13_network.client[28] 	downloads[28] 	11961
scalar tree_4_3_u04_r13_network.client[28] 	avg_time[28] 	0.004650882882
scalar tree_4_3_u04_r13_network.client[29] 	hdistance[29] 	3.0374761628389
scalar tree_4_3_u04_r13_network.client[29] 	downloads[29] 	12061
scalar tree_4_3_u04_r13_network.client[29] 	avg_time[29] 	0.004604756135
scalar tree_4_3_u04_r13_network.client[30] 	hdistance[30] 	3.03556258849
scalar tree_4_3_u04_r13_network.client[30] 	downloads[30] 	12007
scalar tree_4_3_u04_r13_network.client[30] 	avg_time[30] 	0.0046008132
scalar tree_4_3_u04_r13_network.client[31] 	hdistance[31] 	3.056508409976
scalar tree_4_3_u04_r13_network.client[31] 	downloads[31] 	12069
scalar tree_4_3_u04_r13_network.client[31] 	avg_time[31] 	0.00463418373
scalar tree_4_3_u04_r13_network.client[32] 	hdistance[32] 	3.0530271398747
scalar tree_4_3_u04_r13_network.client[32] 	downloads[32] 	11975
scalar tree_4_3_u04_r13_network.client[32] 	avg_time[32] 	0.004632841014
scalar tree_4_3_u04_r13_network.client[33] 	hdistance[33] 	3.0253827888316
scalar tree_4_3_u04_r13_network.client[33] 	downloads[33] 	12213
scalar tree_4_3_u04_r13_network.client[33] 	avg_time[33] 	0.004590000733
scalar tree_4_3_u04_r13_network.client[34] 	hdistance[34] 	3.0271512113617
scalar tree_4_3_u04_r13_network.client[34] 	downloads[34] 	11970
scalar tree_4_3_u04_r13_network.client[34] 	avg_time[34] 	0.00459057263
scalar tree_4_3_u04_r13_network.client[35] 	hdistance[35] 	3.0204789430223
scalar tree_4_3_u04_r13_network.client[35] 	downloads[35] 	12110
scalar tree_4_3_u04_r13_network.client[35] 	avg_time[35] 	0.004578031663
scalar tree_4_3_u04_r13_network.client[36] 	hdistance[36] 	3.0322901142573
scalar tree_4_3_u04_r13_network.client[36] 	downloads[36] 	12078
scalar tree_4_3_u04_r13_network.client[36] 	avg_time[36] 	0.004599765138
scalar tree_4_3_u04_r13_network.client[37] 	hdistance[37] 	3.0429177409964
scalar tree_4_3_u04_r13_network.client[37] 	downloads[37] 	12023
scalar tree_4_3_u04_r13_network.client[37] 	avg_time[37] 	0.004615653457
scalar tree_4_3_u04_r13_network.client[38] 	hdistance[38] 	3.0518698234753
scalar tree_4_3_u04_r13_network.client[38] 	downloads[38] 	11953
scalar tree_4_3_u04_r13_network.client[38] 	avg_time[38] 	0.004629629755
scalar tree_4_3_u04_r13_network.client[39] 	hdistance[39] 	3.0243394181879
scalar tree_4_3_u04_r13_network.client[39] 	downloads[39] 	11997
scalar tree_4_3_u04_r13_network.client[39] 	avg_time[39] 	0.004592145048
