version 2
run General-98-20160820-04:19:15-14346
attr a 0.9
attr cd fix0.1
attr configname General
attr cr lru
attr datetime 20160820-04:19:15
attr experiment General
attr fsize 1
attr inifile hw5115/scenario_A/SPR-FIX0.1.ini
attr iterationvars "$name=tree_4_3, $un=04, $rep=19, $cd=fix0.1, $cr=lru, $fsize=1, $a=0.9, $sl=spr, $ttl=1000, $variance=0.05"
attr iterationvars2 "$name=tree_4_3, $un=04, $rep=19, $cd=fix0.1, $cr=lru, $fsize=1, $a=0.9, $sl=spr, $ttl=1000, $variance=0.05, $repetition=0"
attr measurement "$name=tree_4_3, $un=04, $rep=19, $cd=fix0.1, $cr=lru, $fsize=1, $a=0.9, $sl=spr, $ttl=1000, $variance=0.05"
attr name tree_4_3
attr network networks.${name}_u${un}_r${rep}_network
attr processid 14346
attr rep 19
attr repetition 0
attr replication #0
attr resultdir results
attr runnumber 98
attr seedset 19
attr sl spr
attr ttl 1000
attr un 04
attr variance 0.05

scalar . 	a 	0.9
scalar . 	fsize 	1
scalar . 	rep 	19
scalar . 	ttl 	1000
scalar . 	un 	04
scalar . 	variance 	0.05
scalar tree_4_3_u04_r19_network.content_distribution 	repo-0 	0
scalar tree_4_3_u04_r19_network.content_distribution 	client-0 	13
scalar tree_4_3_u04_r19_network.content_distribution 	client-1 	14
scalar tree_4_3_u04_r19_network.content_distribution 	client-2 	15
scalar tree_4_3_u04_r19_network.content_distribution 	client-3 	16
scalar tree_4_3_u04_r19_network.content_distribution 	client-4 	17
scalar tree_4_3_u04_r19_network.content_distribution 	client-5 	18
scalar tree_4_3_u04_r19_network.content_distribution 	client-6 	19
scalar tree_4_3_u04_r19_network.content_distribution 	client-7 	20
scalar tree_4_3_u04_r19_network.content_distribution 	client-8 	21
scalar tree_4_3_u04_r19_network.content_distribution 	client-9 	22
scalar tree_4_3_u04_r19_network.content_distribution 	client-10 	23
scalar tree_4_3_u04_r19_network.content_distribution 	client-11 	24
scalar tree_4_3_u04_r19_network.content_distribution 	client-12 	25
scalar tree_4_3_u04_r19_network.content_distribution 	client-13 	26
scalar tree_4_3_u04_r19_network.content_distribution 	client-14 	27
scalar tree_4_3_u04_r19_network.content_distribution 	client-15 	28
scalar tree_4_3_u04_r19_network.content_distribution 	client-16 	29
scalar tree_4_3_u04_r19_network.content_distribution 	client-17 	30
scalar tree_4_3_u04_r19_network.content_distribution 	client-18 	31
scalar tree_4_3_u04_r19_network.content_distribution 	client-19 	32
scalar tree_4_3_u04_r19_network.content_distribution 	client-20 	33
scalar tree_4_3_u04_r19_network.content_distribution 	client-21 	34
scalar tree_4_3_u04_r19_network.content_distribution 	client-22 	35
scalar tree_4_3_u04_r19_network.content_distribution 	client-23 	36
scalar tree_4_3_u04_r19_network.content_distribution 	client-24 	37
scalar tree_4_3_u04_r19_network.content_distribution 	client-25 	38
scalar tree_4_3_u04_r19_network.content_distribution 	client-26 	39
scalar tree_4_3_u04_r19_network.content_distribution 	repo-0_card 	100000
scalar tree_4_3_u04_r19_network.content_distribution 	repo-0_price 	0
scalar tree_4_3_u04_r19_network.statistics 	stabilization_time 	900.2
scalar tree_4_3_u04_r19_network.statistics 	p_hit 	0.14973535963343
scalar tree_4_3_u04_r19_network.statistics 	interests 	26822.6
scalar tree_4_3_u04_r19_network.statistics 	data 	18709.525
scalar tree_4_3_u04_r19_network.statistics 	hdistance 	3.0406256119467
scalar tree_4_3_u04_r19_network.statistics 	avg_time 	0.004612315595
scalar tree_4_3_u04_r19_network.statistics 	downloads 	324517
scalar tree_4_3_u04_r19_network.statistics 	total_cost 	0
scalar tree_4_3_u04_r19_network.statistics 	total_replicas 	100000
scalar tree_4_3_u04_r19_network.statistics 	inner_hit 	0.26568099668122
scalar tree_4_3_u04_r19_network.node[0].core_layer 	interests[0] 	242630
scalar tree_4_3_u04_r19_network.node[0].core_layer 	repo_load[0] 	238299
scalar tree_4_3_u04_r19_network.node[0].core_layer 	data[0] 	0
scalar tree_4_3_u04_r19_network.node[0].core_layer 	repo_int[0] 	238299
scalar tree_4_3_u04_r19_network.node[0].content_store 	p_hit[0] 	0.017850224621852
scalar tree_4_3_u04_r19_network.node[0].content_store 	hits[0] 	4331
scalar tree_4_3_u04_r19_network.node[0].content_store 	misses[0] 	238299
scalar tree_4_3_u04_r19_network.node[0].content_store 	decision_yes[0] 	24059
scalar tree_4_3_u04_r19_network.node[0].content_store 	decision_no[0] 	214240
scalar tree_4_3_u04_r19_network.node[0].content_store 	decision_ratio[0] 	0.10096139723625
scalar tree_4_3_u04_r19_network.node[1].core_layer 	interests[1] 	119051
scalar tree_4_3_u04_r19_network.node[1].core_layer 	data[1] 	116285
scalar tree_4_3_u04_r19_network.node[1].content_store 	p_hit[1] 	0.023149742547312
scalar tree_4_3_u04_r19_network.node[1].content_store 	hits[1] 	2756
scalar tree_4_3_u04_r19_network.node[1].content_store 	misses[1] 	116295
scalar tree_4_3_u04_r19_network.node[1].content_store 	decision_yes[1] 	11794
scalar tree_4_3_u04_r19_network.node[1].content_store 	decision_no[1] 	104491
scalar tree_4_3_u04_r19_network.node[1].content_store 	decision_ratio[1] 	0.1014232274154
scalar tree_4_3_u04_r19_network.node[2].core_layer 	interests[2] 	82923
scalar tree_4_3_u04_r19_network.node[2].core_layer 	data[2] 	80933
scalar tree_4_3_u04_r19_network.node[2].content_store 	p_hit[2] 	0.023974048213403
scalar tree_4_3_u04_r19_network.node[2].content_store 	hits[2] 	1988
scalar tree_4_3_u04_r19_network.node[2].content_store 	misses[2] 	80935
scalar tree_4_3_u04_r19_network.node[2].content_store 	decision_yes[2] 	8060
scalar tree_4_3_u04_r19_network.node[2].content_store 	decision_no[2] 	72873
scalar tree_4_3_u04_r19_network.node[2].content_store 	decision_ratio[2] 	0.099588548552506
scalar tree_4_3_u04_r19_network.node[3].core_layer 	interests[3] 	46440
scalar tree_4_3_u04_r19_network.node[3].core_layer 	data[3] 	45412
scalar tree_4_3_u04_r19_network.node[3].content_store 	p_hit[3] 	0.02213608957795
scalar tree_4_3_u04_r19_network.node[3].content_store 	hits[3] 	1028
scalar tree_4_3_u04_r19_network.node[3].content_store 	misses[3] 	45412
scalar tree_4_3_u04_r19_network.node[3].content_store 	decision_yes[3] 	4637
scalar tree_4_3_u04_r19_network.node[3].content_store 	decision_no[3] 	40775
scalar tree_4_3_u04_r19_network.node[3].content_store 	decision_ratio[3] 	0.10210957456179
scalar tree_4_3_u04_r19_network.node[4].core_layer 	interests[4] 	37867
scalar tree_4_3_u04_r19_network.node[4].core_layer 	data[4] 	36572
scalar tree_4_3_u04_r19_network.node[4].content_store 	p_hit[4] 	0.034172234399345
scalar tree_4_3_u04_r19_network.node[4].content_store 	hits[4] 	1294
scalar tree_4_3_u04_r19_network.node[4].content_store 	misses[4] 	36573
scalar tree_4_3_u04_r19_network.node[4].content_store 	decision_yes[4] 	3686
scalar tree_4_3_u04_r19_network.node[4].content_store 	decision_no[4] 	32886
scalar tree_4_3_u04_r19_network.node[4].content_store 	decision_ratio[4] 	0.1007874876955
scalar tree_4_3_u04_r19_network.node[5].core_layer 	interests[5] 	28418
scalar tree_4_3_u04_r19_network.node[5].core_layer 	data[5] 	27533
scalar tree_4_3_u04_r19_network.node[5].content_store 	p_hit[5] 	0.031107044830741
scalar tree_4_3_u04_r19_network.node[5].content_store 	hits[5] 	884
scalar tree_4_3_u04_r19_network.node[5].content_store 	misses[5] 	27534
scalar tree_4_3_u04_r19_network.node[5].content_store 	decision_yes[5] 	2765
scalar tree_4_3_u04_r19_network.node[5].content_store 	decision_no[5] 	24768
scalar tree_4_3_u04_r19_network.node[5].content_store 	decision_ratio[5] 	0.10042494461192
scalar tree_4_3_u04_r19_network.node[6].core_layer 	interests[6] 	19132
scalar tree_4_3_u04_r19_network.node[6].core_layer 	data[6] 	18397
scalar tree_4_3_u04_r19_network.node[6].content_store 	p_hit[6] 	0.03836504286013
scalar tree_4_3_u04_r19_network.node[6].content_store 	hits[6] 	734
scalar tree_4_3_u04_r19_network.node[6].content_store 	misses[6] 	18398
scalar tree_4_3_u04_r19_network.node[6].content_store 	decision_yes[6] 	1845
scalar tree_4_3_u04_r19_network.node[6].content_store 	decision_no[6] 	16552
scalar tree_4_3_u04_r19_network.node[6].content_store 	decision_ratio[6] 	0.10028809044953
scalar tree_4_3_u04_r19_network.node[7].core_layer 	interests[7] 	47792
scalar tree_4_3_u04_r19_network.node[7].core_layer 	data[7] 	46151
scalar tree_4_3_u04_r19_network.node[7].content_store 	p_hit[7] 	0.034273518580516
scalar tree_4_3_u04_r19_network.node[7].content_store 	hits[7] 	1638
scalar tree_4_3_u04_r19_network.node[7].content_store 	misses[7] 	46154
scalar tree_4_3_u04_r19_network.node[7].content_store 	decision_yes[7] 	4516
scalar tree_4_3_u04_r19_network.node[7].content_store 	decision_no[7] 	41635
scalar tree_4_3_u04_r19_network.node[7].content_store 	decision_ratio[7] 	0.097852700916557
scalar tree_4_3_u04_r19_network.node[8].core_layer 	interests[8] 	19093
scalar tree_4_3_u04_r19_network.node[8].core_layer 	data[8] 	18434
scalar tree_4_3_u04_r19_network.node[8].content_store 	p_hit[8] 	0.034515267375478
scalar tree_4_3_u04_r19_network.node[8].content_store 	hits[8] 	659
scalar tree_4_3_u04_r19_network.node[8].content_store 	misses[8] 	18434
scalar tree_4_3_u04_r19_network.node[8].content_store 	decision_yes[8] 	1889
scalar tree_4_3_u04_r19_network.node[8].content_store 	decision_no[8] 	16545
scalar tree_4_3_u04_r19_network.node[8].content_store 	decision_ratio[8] 	0.1024736899208
scalar tree_4_3_u04_r19_network.node[9].core_layer 	interests[9] 	18995
scalar tree_4_3_u04_r19_network.node[9].core_layer 	data[9] 	18339
scalar tree_4_3_u04_r19_network.node[9].content_store 	p_hit[9] 	0.034535404053698
scalar tree_4_3_u04_r19_network.node[9].content_store 	hits[9] 	656
scalar tree_4_3_u04_r19_network.node[9].content_store 	misses[9] 	18339
scalar tree_4_3_u04_r19_network.node[9].content_store 	decision_yes[9] 	1817
scalar tree_4_3_u04_r19_network.node[9].content_store 	decision_no[9] 	16522
scalar tree_4_3_u04_r19_network.node[9].content_store 	decision_ratio[9] 	0.099078466655761
scalar tree_4_3_u04_r19_network.node[10].core_layer 	interests[10] 	37896
scalar tree_4_3_u04_r19_network.node[10].core_layer 	data[10] 	36549
scalar tree_4_3_u04_r19_network.node[10].content_store 	p_hit[10] 	0.035518260502428
scalar tree_4_3_u04_r19_network.node[10].content_store 	hits[10] 	1346
scalar tree_4_3_u04_r19_network.node[10].content_store 	misses[10] 	36550
scalar tree_4_3_u04_r19_network.node[10].content_store 	decision_yes[10] 	3628
scalar tree_4_3_u04_r19_network.node[10].content_store 	decision_no[10] 	32921
scalar tree_4_3_u04_r19_network.node[10].content_store 	decision_ratio[10] 	0.099264001751074
scalar tree_4_3_u04_r19_network.node[11].core_layer 	interests[11] 	28942
scalar tree_4_3_u04_r19_network.node[11].core_layer 	data[11] 	27911
scalar tree_4_3_u04_r19_network.node[11].content_store 	p_hit[11] 	0.035657521940433
scalar tree_4_3_u04_r19_network.node[11].content_store 	hits[11] 	1032
scalar tree_4_3_u04_r19_network.node[11].content_store 	misses[11] 	27910
scalar tree_4_3_u04_r19_network.node[11].content_store 	decision_yes[11] 	2844
scalar tree_4_3_u04_r19_network.node[11].content_store 	decision_no[11] 	25067
scalar tree_4_3_u04_r19_network.node[11].content_store 	decision_ratio[11] 	0.10189531009279
scalar tree_4_3_u04_r19_network.node[12].core_layer 	interests[12] 	19198
scalar tree_4_3_u04_r19_network.node[12].core_layer 	data[12] 	18530
scalar tree_4_3_u04_r19_network.node[12].content_store 	p_hit[12] 	0.034795291176164
scalar tree_4_3_u04_r19_network.node[12].content_store 	hits[12] 	668
scalar tree_4_3_u04_r19_network.node[12].content_store 	misses[12] 	18530
scalar tree_4_3_u04_r19_network.node[12].content_store 	decision_yes[12] 	1820
scalar tree_4_3_u04_r19_network.node[12].content_store 	decision_no[12] 	16710
scalar tree_4_3_u04_r19_network.node[12].content_store 	decision_ratio[12] 	0.098219104155424
scalar tree_4_3_u04_r19_network.node[13].core_layer 	interests[13] 	12015
scalar tree_4_3_u04_r19_network.node[13].core_layer 	data[13] 	9502
scalar tree_4_3_u04_r19_network.node[13].content_store 	p_hit[13] 	0.20915522263837
scalar tree_4_3_u04_r19_network.node[13].content_store 	hits[13] 	2513
scalar tree_4_3_u04_r19_network.node[13].content_store 	misses[13] 	9502
scalar tree_4_3_u04_r19_network.node[13].content_store 	decision_yes[13] 	975
scalar tree_4_3_u04_r19_network.node[13].content_store 	decision_no[13] 	8527
scalar tree_4_3_u04_r19_network.node[13].content_store 	decision_ratio[13] 	0.10260997684698
scalar tree_4_3_u04_r19_network.node[14].core_layer 	interests[14] 	11995
scalar tree_4_3_u04_r19_network.node[14].core_layer 	data[14] 	9516
scalar tree_4_3_u04_r19_network.node[14].content_store 	p_hit[14] 	0.20658607753231
scalar tree_4_3_u04_r19_network.node[14].content_store 	hits[14] 	2478
scalar tree_4_3_u04_r19_network.node[14].content_store 	misses[14] 	9517
scalar tree_4_3_u04_r19_network.node[14].content_store 	decision_yes[14] 	912
scalar tree_4_3_u04_r19_network.node[14].content_store 	decision_no[14] 	8604
scalar tree_4_3_u04_r19_network.node[14].content_store 	decision_ratio[14] 	0.095838587641866
scalar tree_4_3_u04_r19_network.node[15].core_layer 	interests[15] 	11851
scalar tree_4_3_u04_r19_network.node[15].core_layer 	data[15] 	9409
scalar tree_4_3_u04_r19_network.node[15].content_store 	p_hit[15] 	0.20597417939414
scalar tree_4_3_u04_r19_network.node[15].content_store 	hits[15] 	2441
scalar tree_4_3_u04_r19_network.node[15].content_store 	misses[15] 	9410
scalar tree_4_3_u04_r19_network.node[15].content_store 	decision_yes[15] 	947
scalar tree_4_3_u04_r19_network.node[15].content_store 	decision_no[15] 	8462
scalar tree_4_3_u04_r19_network.node[15].content_store 	decision_ratio[15] 	0.10064831544266
scalar tree_4_3_u04_r19_network.node[16].core_layer 	interests[16] 	11948
scalar tree_4_3_u04_r19_network.node[16].core_layer 	data[16] 	9409
scalar tree_4_3_u04_r19_network.node[16].content_store 	p_hit[16] 	0.2125041848008
scalar tree_4_3_u04_r19_network.node[16].content_store 	hits[16] 	2539
scalar tree_4_3_u04_r19_network.node[16].content_store 	misses[16] 	9409
scalar tree_4_3_u04_r19_network.node[16].content_store 	decision_yes[16] 	924
scalar tree_4_3_u04_r19_network.node[16].content_store 	decision_no[16] 	8485
scalar tree_4_3_u04_r19_network.node[16].content_store 	decision_ratio[16] 	0.098203847380168
scalar tree_4_3_u04_r19_network.node[17].core_layer 	interests[17] 	12104
scalar tree_4_3_u04_r19_network.node[17].core_layer 	data[17] 	9563
scalar tree_4_3_u04_r19_network.node[17].content_store 	p_hit[17] 	0.20993060145406
scalar tree_4_3_u04_r19_network.node[17].content_store 	hits[17] 	2541
scalar tree_4_3_u04_r19_network.node[17].content_store 	misses[17] 	9563
scalar tree_4_3_u04_r19_network.node[17].content_store 	decision_yes[17] 	1001
scalar tree_4_3_u04_r19_network.node[17].content_store 	decision_no[17] 	8562
scalar tree_4_3_u04_r19_network.node[17].content_store 	decision_ratio[17] 	0.10467426539789
scalar tree_4_3_u04_r19_network.node[18].core_layer 	interests[18] 	12040
scalar tree_4_3_u04_r19_network.node[18].core_layer 	data[18] 	9446
scalar tree_4_3_u04_r19_network.node[18].content_store 	p_hit[18] 	0.21536544850498
scalar tree_4_3_u04_r19_network.node[18].content_store 	hits[18] 	2593
scalar tree_4_3_u04_r19_network.node[18].content_store 	misses[18] 	9447
scalar tree_4_3_u04_r19_network.node[18].content_store 	decision_yes[18] 	920
scalar tree_4_3_u04_r19_network.node[18].content_store 	decision_no[18] 	8526
scalar tree_4_3_u04_r19_network.node[18].content_store 	decision_ratio[18] 	0.097395723057379
scalar tree_4_3_u04_r19_network.node[19].core_layer 	interests[19] 	11998
scalar tree_4_3_u04_r19_network.node[19].core_layer 	data[19] 	9440
scalar tree_4_3_u04_r19_network.node[19].content_store 	p_hit[19] 	0.21311885314219
scalar tree_4_3_u04_r19_network.node[19].content_store 	hits[19] 	2557
scalar tree_4_3_u04_r19_network.node[19].content_store 	misses[19] 	9441
scalar tree_4_3_u04_r19_network.node[19].content_store 	decision_yes[19] 	972
scalar tree_4_3_u04_r19_network.node[19].content_store 	decision_no[19] 	8468
scalar tree_4_3_u04_r19_network.node[19].content_store 	decision_ratio[19] 	0.10296610169492
scalar tree_4_3_u04_r19_network.node[20].core_layer 	interests[20] 	12039
scalar tree_4_3_u04_r19_network.node[20].core_layer 	data[20] 	9557
scalar tree_4_3_u04_r19_network.node[20].content_store 	p_hit[20] 	0.20616330259988
scalar tree_4_3_u04_r19_network.node[20].content_store 	hits[20] 	2482
scalar tree_4_3_u04_r19_network.node[20].content_store 	misses[20] 	9557
scalar tree_4_3_u04_r19_network.node[20].content_store 	decision_yes[20] 	941
scalar tree_4_3_u04_r19_network.node[20].content_store 	decision_no[20] 	8616
scalar tree_4_3_u04_r19_network.node[20].content_store 	decision_ratio[20] 	0.098461860416449
scalar tree_4_3_u04_r19_network.node[21].core_layer 	interests[21] 	12023
scalar tree_4_3_u04_r19_network.node[21].core_layer 	data[21] 	9575
scalar tree_4_3_u04_r19_network.node[21].content_store 	p_hit[21] 	0.20352657406637
scalar tree_4_3_u04_r19_network.node[21].content_store 	hits[21] 	2447
scalar tree_4_3_u04_r19_network.node[21].content_store 	misses[21] 	9576
scalar tree_4_3_u04_r19_network.node[21].content_store 	decision_yes[21] 	940
scalar tree_4_3_u04_r19_network.node[21].content_store 	decision_no[21] 	8635
scalar tree_4_3_u04_r19_network.node[21].content_store 	decision_ratio[21] 	0.098172323759791
scalar tree_4_3_u04_r19_network.node[22].core_layer 	interests[22] 	12046
scalar tree_4_3_u04_r19_network.node[22].core_layer 	data[22] 	9583
scalar tree_4_3_u04_r19_network.node[22].content_store 	p_hit[22] 	0.20438319774199
scalar tree_4_3_u04_r19_network.node[22].content_store 	hits[22] 	2462
scalar tree_4_3_u04_r19_network.node[22].content_store 	misses[22] 	9584
scalar tree_4_3_u04_r19_network.node[22].content_store 	decision_yes[22] 	941
scalar tree_4_3_u04_r19_network.node[22].content_store 	decision_no[22] 	8642
scalar tree_4_3_u04_r19_network.node[22].content_store 	decision_ratio[22] 	0.098194719816341
scalar tree_4_3_u04_r19_network.node[23].core_layer 	interests[23] 	12011
scalar tree_4_3_u04_r19_network.node[23].core_layer 	data[23] 	9550
scalar tree_4_3_u04_r19_network.node[23].content_store 	p_hit[23] 	0.20489551244692
scalar tree_4_3_u04_r19_network.node[23].content_store 	hits[23] 	2461
scalar tree_4_3_u04_r19_network.node[23].content_store 	misses[23] 	9550
scalar tree_4_3_u04_r19_network.node[23].content_store 	decision_yes[23] 	976
scalar tree_4_3_u04_r19_network.node[23].content_store 	decision_no[23] 	8574
scalar tree_4_3_u04_r19_network.node[23].content_store 	decision_ratio[23] 	0.10219895287958
scalar tree_4_3_u04_r19_network.node[24].core_layer 	interests[24] 	12013
scalar tree_4_3_u04_r19_network.node[24].core_layer 	data[24] 	9455
scalar tree_4_3_u04_r19_network.node[24].content_store 	p_hit[24] 	0.2130192291684
scalar tree_4_3_u04_r19_network.node[24].content_store 	hits[24] 	2559
scalar tree_4_3_u04_r19_network.node[24].content_store 	misses[24] 	9454
scalar tree_4_3_u04_r19_network.node[24].content_store 	decision_yes[24] 	963
scalar tree_4_3_u04_r19_network.node[24].content_store 	decision_no[24] 	8492
scalar tree_4_3_u04_r19_network.node[24].content_store 	decision_ratio[24] 	0.1018508725542
scalar tree_4_3_u04_r19_network.node[25].core_layer 	interests[25] 	12207
scalar tree_4_3_u04_r19_network.node[25].core_layer 	data[25] 	9674
scalar tree_4_3_u04_r19_network.node[25].content_store 	p_hit[25] 	0.20750389120996
scalar tree_4_3_u04_r19_network.node[25].content_store 	hits[25] 	2533
scalar tree_4_3_u04_r19_network.node[25].content_store 	misses[25] 	9674
scalar tree_4_3_u04_r19_network.node[25].content_store 	decision_yes[25] 	992
scalar tree_4_3_u04_r19_network.node[25].content_store 	decision_no[25] 	8682
scalar tree_4_3_u04_r19_network.node[25].content_store 	decision_ratio[25] 	0.1025428984908
scalar tree_4_3_u04_r19_network.node[26].core_layer 	interests[26] 	12067
scalar tree_4_3_u04_r19_network.node[26].core_layer 	data[26] 	9502
scalar tree_4_3_u04_r19_network.node[26].content_store 	p_hit[26] 	0.21248031822325
scalar tree_4_3_u04_r19_network.node[26].content_store 	hits[26] 	2564
scalar tree_4_3_u04_r19_network.node[26].content_store 	misses[26] 	9503
scalar tree_4_3_u04_r19_network.node[26].content_store 	decision_yes[26] 	949
scalar tree_4_3_u04_r19_network.node[26].content_store 	decision_no[26] 	8553
scalar tree_4_3_u04_r19_network.node[26].content_store 	decision_ratio[26] 	0.099873710797727
scalar tree_4_3_u04_r19_network.node[27].core_layer 	interests[27] 	12064
scalar tree_4_3_u04_r19_network.node[27].core_layer 	data[27] 	9591
scalar tree_4_3_u04_r19_network.node[27].content_store 	p_hit[27] 	0.2049900530504
scalar tree_4_3_u04_r19_network.node[27].content_store 	hits[27] 	2473
scalar tree_4_3_u04_r19_network.node[27].content_store 	misses[27] 	9591
scalar tree_4_3_u04_r19_network.node[27].content_store 	decision_yes[27] 	955
scalar tree_4_3_u04_r19_network.node[27].content_store 	decision_no[27] 	8636
scalar tree_4_3_u04_r19_network.node[27].content_store 	decision_ratio[27] 	0.099572515900323
scalar tree_4_3_u04_r19_network.node[28].core_layer 	interests[28] 	12066
scalar tree_4_3_u04_r19_network.node[28].core_layer 	data[28] 	9531
scalar tree_4_3_u04_r19_network.node[28].content_store 	p_hit[28] 	0.21001160285099
scalar tree_4_3_u04_r19_network.node[28].content_store 	hits[28] 	2534
scalar tree_4_3_u04_r19_network.node[28].content_store 	misses[28] 	9532
scalar tree_4_3_u04_r19_network.node[28].content_store 	decision_yes[28] 	975
scalar tree_4_3_u04_r19_network.node[28].content_store 	decision_no[28] 	8556
scalar tree_4_3_u04_r19_network.node[28].content_store 	decision_ratio[28] 	0.10229776518728
scalar tree_4_3_u04_r19_network.node[29].core_layer 	interests[29] 	11936
scalar tree_4_3_u04_r19_network.node[29].core_layer 	data[29] 	9408
scalar tree_4_3_u04_r19_network.node[29].content_store 	p_hit[29] 	0.21179624664879
scalar tree_4_3_u04_r19_network.node[29].content_store 	hits[29] 	2528
scalar tree_4_3_u04_r19_network.node[29].content_store 	misses[29] 	9408
scalar tree_4_3_u04_r19_network.node[29].content_store 	decision_yes[29] 	925
scalar tree_4_3_u04_r19_network.node[29].content_store 	decision_no[29] 	8483
scalar tree_4_3_u04_r19_network.node[29].content_store 	decision_ratio[29] 	0.098320578231293
scalar tree_4_3_u04_r19_network.node[30].core_layer 	interests[30] 	11947
scalar tree_4_3_u04_r19_network.node[30].core_layer 	data[30] 	9587
scalar tree_4_3_u04_r19_network.node[30].content_store 	p_hit[30] 	0.19745542814096
scalar tree_4_3_u04_r19_network.node[30].content_store 	hits[30] 	2359
scalar tree_4_3_u04_r19_network.node[30].content_store 	misses[30] 	9588
scalar tree_4_3_u04_r19_network.node[30].content_store 	decision_yes[30] 	1002
scalar tree_4_3_u04_r19_network.node[30].content_store 	decision_no[30] 	8585
scalar tree_4_3_u04_r19_network.node[30].content_store 	decision_ratio[30] 	0.10451653280484
scalar tree_4_3_u04_r19_network.node[31].core_layer 	interests[31] 	11996
scalar tree_4_3_u04_r19_network.node[31].core_layer 	data[31] 	9512
scalar tree_4_3_u04_r19_network.node[31].content_store 	p_hit[31] 	0.2069856618873
scalar tree_4_3_u04_r19_network.node[31].content_store 	hits[31] 	2483
scalar tree_4_3_u04_r19_network.node[31].content_store 	misses[31] 	9513
scalar tree_4_3_u04_r19_network.node[31].content_store 	decision_yes[31] 	964
scalar tree_4_3_u04_r19_network.node[31].content_store 	decision_no[31] 	8548
scalar tree_4_3_u04_r19_network.node[31].content_store 	decision_ratio[31] 	0.1013456686291
scalar tree_4_3_u04_r19_network.node[32].core_layer 	interests[32] 	11894
scalar tree_4_3_u04_r19_network.node[32].core_layer 	data[32] 	9430
scalar tree_4_3_u04_r19_network.node[32].content_store 	p_hit[32] 	0.20707919959644
scalar tree_4_3_u04_r19_network.node[32].content_store 	hits[32] 	2463
scalar tree_4_3_u04_r19_network.node[32].content_store 	misses[32] 	9431
scalar tree_4_3_u04_r19_network.node[32].content_store 	decision_yes[32] 	995
scalar tree_4_3_u04_r19_network.node[32].content_store 	decision_no[32] 	8435
scalar tree_4_3_u04_r19_network.node[32].content_store 	decision_ratio[32] 	0.10551431601273
scalar tree_4_3_u04_r19_network.node[33].core_layer 	interests[33] 	12046
scalar tree_4_3_u04_r19_network.node[33].core_layer 	data[33] 	9529
scalar tree_4_3_u04_r19_network.node[33].content_store 	p_hit[33] 	0.20894902872323
scalar tree_4_3_u04_r19_network.node[33].content_store 	hits[33] 	2517
scalar tree_4_3_u04_r19_network.node[33].content_store 	misses[33] 	9529
scalar tree_4_3_u04_r19_network.node[33].content_store 	decision_yes[33] 	992
scalar tree_4_3_u04_r19_network.node[33].content_store 	decision_no[33] 	8537
scalar tree_4_3_u04_r19_network.node[33].content_store 	decision_ratio[33] 	0.10410326372127
scalar tree_4_3_u04_r19_network.node[34].core_layer 	interests[34] 	12014
scalar tree_4_3_u04_r19_network.node[34].core_layer 	data[34] 	9587
scalar tree_4_3_u04_r19_network.node[34].content_store 	p_hit[34] 	0.2020143166306
scalar tree_4_3_u04_r19_network.node[34].content_store 	hits[34] 	2427
scalar tree_4_3_u04_r19_network.node[34].content_store 	misses[34] 	9587
scalar tree_4_3_u04_r19_network.node[34].content_store 	decision_yes[34] 	987
scalar tree_4_3_u04_r19_network.node[34].content_store 	decision_no[34] 	8600
scalar tree_4_3_u04_r19_network.node[34].content_store 	decision_ratio[34] 	0.10295191405028
scalar tree_4_3_u04_r19_network.node[35].core_layer 	interests[35] 	12026
scalar tree_4_3_u04_r19_network.node[35].core_layer 	data[35] 	9630
scalar tree_4_3_u04_r19_network.node[35].content_store 	p_hit[35] 	0.19923499085315
scalar tree_4_3_u04_r19_network.node[35].content_store 	hits[35] 	2396
scalar tree_4_3_u04_r19_network.node[35].content_store 	misses[35] 	9630
scalar tree_4_3_u04_r19_network.node[35].content_store 	decision_yes[35] 	1003
scalar tree_4_3_u04_r19_network.node[35].content_store 	decision_no[35] 	8627
scalar tree_4_3_u04_r19_network.node[35].content_store 	decision_ratio[35] 	0.10415368639668
scalar tree_4_3_u04_r19_network.node[36].core_layer 	interests[36] 	12086
scalar tree_4_3_u04_r19_network.node[36].core_layer 	data[36] 	9726
scalar tree_4_3_u04_r19_network.node[36].content_store 	p_hit[36] 	0.19534999172596
scalar tree_4_3_u04_r19_network.node[36].content_store 	hits[36] 	2361
scalar tree_4_3_u04_r19_network.node[36].content_store 	misses[36] 	9725
scalar tree_4_3_u04_r19_network.node[36].content_store 	decision_yes[36] 	1042
scalar tree_4_3_u04_r19_network.node[36].content_store 	decision_no[36] 	8684
scalar tree_4_3_u04_r19_network.node[36].content_store 	decision_ratio[36] 	0.10713551305778
scalar tree_4_3_u04_r19_network.node[37].core_layer 	interests[37] 	11836
scalar tree_4_3_u04_r19_network.node[37].core_layer 	data[37] 	9425
scalar tree_4_3_u04_r19_network.node[37].content_store 	p_hit[37] 	0.20361608651571
scalar tree_4_3_u04_r19_network.node[37].content_store 	hits[37] 	2410
scalar tree_4_3_u04_r19_network.node[37].content_store 	misses[37] 	9426
scalar tree_4_3_u04_r19_network.node[37].content_store 	decision_yes[37] 	914
scalar tree_4_3_u04_r19_network.node[37].content_store 	decision_no[37] 	8511
scalar tree_4_3_u04_r19_network.node[37].content_store 	decision_ratio[37] 	0.096976127320955
scalar tree_4_3_u04_r19_network.node[38].core_layer 	interests[38] 	12213
scalar tree_4_3_u04_r19_network.node[38].core_layer 	data[38] 	9690
scalar tree_4_3_u04_r19_network.node[38].content_store 	p_hit[38] 	0.20658314910341
scalar tree_4_3_u04_r19_network.node[38].content_store 	hits[38] 	2523
scalar tree_4_3_u04_r19_network.node[38].content_store 	misses[38] 	9690
scalar tree_4_3_u04_r19_network.node[38].content_store 	decision_yes[38] 	989
scalar tree_4_3_u04_r19_network.node[38].content_store 	decision_no[38] 	8701
scalar tree_4_3_u04_r19_network.node[38].content_store 	decision_ratio[38] 	0.10206398348813
scalar tree_4_3_u04_r19_network.node[39].core_layer 	interests[39] 	12046
scalar tree_4_3_u04_r19_network.node[39].core_layer 	data[39] 	9508
scalar tree_4_3_u04_r19_network.node[39].content_store 	p_hit[39] 	0.21069234600697
scalar tree_4_3_u04_r19_network.node[39].content_store 	hits[39] 	2538
scalar tree_4_3_u04_r19_network.node[39].content_store 	misses[39] 	9508
scalar tree_4_3_u04_r19_network.node[39].content_store 	decision_yes[39] 	965
scalar tree_4_3_u04_r19_network.node[39].content_store 	decision_no[39] 	8543
scalar tree_4_3_u04_r19_network.node[39].content_store 	decision_ratio[39] 	0.10149347917543
scalar tree_4_3_u04_r19_network.client[13] 	hdistance[13] 	3.0262172284644
scalar tree_4_3_u04_r19_network.client[13] 	downloads[13] 	12015
scalar tree_4_3_u04_r19_network.client[13] 	avg_time[13] 	0.004593573665
scalar tree_4_3_u04_r19_network.client[14] 	hdistance[14] 	3.0413540103385
scalar tree_4_3_u04_r19_network.client[14] 	downloads[14] 	11994
scalar tree_4_3_u04_r19_network.client[14] 	avg_time[14] 	0.00461324822
scalar tree_4_3_u04_r19_network.client[15] 	hdistance[15] 	3.0483544303798
scalar tree_4_3_u04_r19_network.client[15] 	downloads[15] 	11850
scalar tree_4_3_u04_r19_network.client[15] 	avg_time[15] 	0.004622293532
scalar tree_4_3_u04_r19_network.client[16] 	hdistance[16] 	3.0362403749582
scalar tree_4_3_u04_r19_network.client[16] 	downloads[16] 	11948
scalar tree_4_3_u04_r19_network.client[16] 	avg_time[16] 	0.004603947471
scalar tree_4_3_u04_r19_network.client[17] 	hdistance[17] 	3.0367647058824
scalar tree_4_3_u04_r19_network.client[17] 	downloads[17] 	12104
scalar tree_4_3_u04_r19_network.client[17] 	avg_time[17] 	0.004604770088
scalar tree_4_3_u04_r19_network.client[18] 	hdistance[18] 	3.0127086967356
scalar tree_4_3_u04_r19_network.client[18] 	downloads[18] 	12039
scalar tree_4_3_u04_r19_network.client[18] 	avg_time[18] 	0.00456648178
scalar tree_4_3_u04_r19_network.client[19] 	hdistance[19] 	3.0280070017504
scalar tree_4_3_u04_r19_network.client[19] 	downloads[19] 	11997
scalar tree_4_3_u04_r19_network.client[19] 	avg_time[19] 	0.004591035192
scalar tree_4_3_u04_r19_network.client[20] 	hdistance[20] 	3.0392889774898
scalar tree_4_3_u04_r19_network.client[20] 	downloads[20] 	12039
scalar tree_4_3_u04_r19_network.client[20] 	avg_time[20] 	0.004609451147
scalar tree_4_3_u04_r19_network.client[21] 	hdistance[21] 	3.0460821826651
scalar tree_4_3_u04_r19_network.client[21] 	downloads[21] 	12022
scalar tree_4_3_u04_r19_network.client[21] 	avg_time[21] 	0.004619999735
scalar tree_4_3_u04_r19_network.client[22] 	hdistance[22] 	3.0553756745538
scalar tree_4_3_u04_r19_network.client[22] 	downloads[22] 	12045
scalar tree_4_3_u04_r19_network.client[22] 	avg_time[22] 	0.004633101648
scalar tree_4_3_u04_r19_network.client[23] 	hdistance[23] 	3.0498709516277
scalar tree_4_3_u04_r19_network.client[23] 	downloads[23] 	12011
scalar tree_4_3_u04_r19_network.client[23] 	avg_time[23] 	0.004624424613
scalar tree_4_3_u04_r19_network.client[24] 	hdistance[24] 	3.0259697020143
scalar tree_4_3_u04_r19_network.client[24] 	downloads[24] 	12014
scalar tree_4_3_u04_r19_network.client[24] 	avg_time[24] 	0.004586020518
scalar tree_4_3_u04_r19_network.client[25] 	hdistance[25] 	3.0291635946588
scalar tree_4_3_u04_r19_network.client[25] 	downloads[25] 	12207
scalar tree_4_3_u04_r19_network.client[25] 	avg_time[25] 	0.004599161365
scalar tree_4_3_u04_r19_network.client[26] 	hdistance[26] 	3.0237029670148
scalar tree_4_3_u04_r19_network.client[26] 	downloads[26] 	12066
scalar tree_4_3_u04_r19_network.client[26] 	avg_time[26] 	0.00458378615
scalar tree_4_3_u04_r19_network.client[27] 	hdistance[27] 	3.0479940318302
scalar tree_4_3_u04_r19_network.client[27] 	downloads[27] 	12064
scalar tree_4_3_u04_r19_network.client[27] 	avg_time[27] 	0.004624233772
scalar tree_4_3_u04_r19_network.client[28] 	hdistance[28] 	3.0251139660174
scalar tree_4_3_u04_r19_network.client[28] 	downloads[28] 	12065
scalar tree_4_3_u04_r19_network.client[28] 	avg_time[28] 	0.004590980678
scalar tree_4_3_u04_r19_network.client[29] 	hdistance[29] 	3.0196045576407
scalar tree_4_3_u04_r19_network.client[29] 	downloads[29] 	11936
scalar tree_4_3_u04_r19_network.client[29] 	avg_time[29] 	0.004581431293
scalar tree_4_3_u04_r19_network.client[30] 	hdistance[30] 	3.0752553155868
scalar tree_4_3_u04_r19_network.client[30] 	downloads[30] 	11946
scalar tree_4_3_u04_r19_network.client[30] 	avg_time[30] 	0.004664390812
scalar tree_4_3_u04_r19_network.client[31] 	hdistance[31] 	3.0448520216757
scalar tree_4_3_u04_r19_network.client[31] 	downloads[31] 	11995
scalar tree_4_3_u04_r19_network.client[31] 	avg_time[31] 	0.004616237242
scalar tree_4_3_u04_r19_network.client[32] 	hdistance[32] 	3.0279996636677
scalar tree_4_3_u04_r19_network.client[32] 	downloads[32] 	11893
scalar tree_4_3_u04_r19_network.client[32] 	avg_time[32] 	0.004598377758
scalar tree_4_3_u04_r19_network.client[33] 	hdistance[33] 	3.0230782002324
scalar tree_4_3_u04_r19_network.client[33] 	downloads[33] 	12046
scalar tree_4_3_u04_r19_network.client[33] 	avg_time[33] 	0.004591276268
scalar tree_4_3_u04_r19_network.client[34] 	hdistance[34] 	3.0646745463626
scalar tree_4_3_u04_r19_network.client[34] 	downloads[34] 	12014
scalar tree_4_3_u04_r19_network.client[34] 	avg_time[34] 	0.00464740835
scalar tree_4_3_u04_r19_network.client[35] 	hdistance[35] 	3.0568767670048
scalar tree_4_3_u04_r19_network.client[35] 	downloads[35] 	12026
scalar tree_4_3_u04_r19_network.client[35] 	avg_time[35] 	0.004641274262
scalar tree_4_3_u04_r19_network.client[36] 	hdistance[36] 	3.0899313311823
scalar tree_4_3_u04_r19_network.client[36] 	downloads[36] 	12087
scalar tree_4_3_u04_r19_network.client[36] 	avg_time[36] 	0.004688670785
scalar tree_4_3_u04_r19_network.client[37] 	hdistance[37] 	3.0543303760034
scalar tree_4_3_u04_r19_network.client[37] 	downloads[37] 	11835
scalar tree_4_3_u04_r19_network.client[37] 	avg_time[37] 	0.004630812304
scalar tree_4_3_u04_r19_network.client[38] 	hdistance[38] 	3.0413493818063
scalar tree_4_3_u04_r19_network.client[38] 	downloads[38] 	12213
scalar tree_4_3_u04_r19_network.client[38] 	avg_time[38] 	0.004615898023
scalar tree_4_3_u04_r19_network.client[39] 	hdistance[39] 	3.0267308650174
scalar tree_4_3_u04_r19_network.client[39] 	downloads[39] 	12046
scalar tree_4_3_u04_r19_network.client[39] 	avg_time[39] 	0.004590234406
