version 2
run General-293-20160901-03:55:00-8710
attr a 0.9
attr cd tfc
attr configname General
attr cr lru
attr datetime 20160901-03:55:00
attr experiment General
attr fsize 1
attr inifile hw5115/scenario_Y/omnetp.ini
attr iterationvars "$name=tree_4_3, $un=04, $rep=18, $cd=tfc, $cr=lru, $fsize=1, $a=0.9, $sl=nrr, $ttl=1000, $variance=0.05"
attr iterationvars2 "$name=tree_4_3, $un=04, $rep=18, $cd=tfc, $cr=lru, $fsize=1, $a=0.9, $sl=nrr, $ttl=1000, $variance=0.05, $repetition=0"
attr measurement "$name=tree_4_3, $un=04, $rep=18, $cd=tfc, $cr=lru, $fsize=1, $a=0.9, $sl=nrr, $ttl=1000, $variance=0.05"
attr name tree_4_3
attr network networks.${name}_u${un}_r${rep}_network
attr processid 8710
attr rep 18
attr repetition 0
attr replication #0
attr resultdir results
attr runnumber 293
attr seedset 18
attr sl nrr
attr ttl 1000
attr un 04
attr variance 0.05

scalar . 	a 	0.9
scalar . 	fsize 	1
scalar . 	rep 	18
scalar . 	ttl 	1000
scalar . 	un 	04
scalar . 	variance 	0.05
scalar tree_4_3_u04_r18_network.content_distribution 	repo-0 	0
scalar tree_4_3_u04_r18_network.content_distribution 	client-0 	13
scalar tree_4_3_u04_r18_network.content_distribution 	client-1 	14
scalar tree_4_3_u04_r18_network.content_distribution 	client-2 	15
scalar tree_4_3_u04_r18_network.content_distribution 	client-3 	16
scalar tree_4_3_u04_r18_network.content_distribution 	client-4 	17
scalar tree_4_3_u04_r18_network.content_distribution 	client-5 	18
scalar tree_4_3_u04_r18_network.content_distribution 	client-6 	19
scalar tree_4_3_u04_r18_network.content_distribution 	client-7 	20
scalar tree_4_3_u04_r18_network.content_distribution 	client-8 	21
scalar tree_4_3_u04_r18_network.content_distribution 	client-9 	22
scalar tree_4_3_u04_r18_network.content_distribution 	client-10 	23
scalar tree_4_3_u04_r18_network.content_distribution 	client-11 	24
scalar tree_4_3_u04_r18_network.content_distribution 	client-12 	25
scalar tree_4_3_u04_r18_network.content_distribution 	client-13 	26
scalar tree_4_3_u04_r18_network.content_distribution 	client-14 	27
scalar tree_4_3_u04_r18_network.content_distribution 	client-15 	28
scalar tree_4_3_u04_r18_network.content_distribution 	client-16 	29
scalar tree_4_3_u04_r18_network.content_distribution 	client-17 	30
scalar tree_4_3_u04_r18_network.content_distribution 	client-18 	31
scalar tree_4_3_u04_r18_network.content_distribution 	client-19 	32
scalar tree_4_3_u04_r18_network.content_distribution 	client-20 	33
scalar tree_4_3_u04_r18_network.content_distribution 	client-21 	34
scalar tree_4_3_u04_r18_network.content_distribution 	client-22 	35
scalar tree_4_3_u04_r18_network.content_distribution 	client-23 	36
scalar tree_4_3_u04_r18_network.content_distribution 	client-24 	37
scalar tree_4_3_u04_r18_network.content_distribution 	client-25 	38
scalar tree_4_3_u04_r18_network.content_distribution 	client-26 	39
scalar tree_4_3_u04_r18_network.content_distribution 	repo-0_card 	100000
scalar tree_4_3_u04_r18_network.content_distribution 	repo-0_price 	0
scalar tree_4_3_u04_r18_network.statistics 	stabilization_time 	3556.6
scalar tree_4_3_u04_r18_network.statistics 	p_hit 	0.22351610878701
scalar tree_4_3_u04_r18_network.statistics 	interests 	24596.25
scalar tree_4_3_u04_r18_network.statistics 	data 	16485.3
scalar tree_4_3_u04_r18_network.statistics 	hdistance 	2.6335156035749
scalar tree_4_3_u04_r18_network.statistics 	avg_time 	0.004065021101
scalar tree_4_3_u04_r18_network.statistics 	downloads 	324429
scalar tree_4_3_u04_r18_network.statistics 	total_cost 	0
scalar tree_4_3_u04_r18_network.statistics 	total_replicas 	100000
scalar tree_4_3_u04_r18_network.statistics 	inner_hit 	0.3990302963052
scalar tree_4_3_u04_r18_network.node[0].core_layer 	interests[0] 	198450
scalar tree_4_3_u04_r18_network.node[0].core_layer 	repo_load[0] 	194972
scalar tree_4_3_u04_r18_network.node[0].core_layer 	data[0] 	0
scalar tree_4_3_u04_r18_network.node[0].core_layer 	repo_int[0] 	194972
scalar tree_4_3_u04_r18_network.node[0].content_store 	p_hit[0] 	0.017525825144873
scalar tree_4_3_u04_r18_network.node[0].content_store 	hits[0] 	3478
scalar tree_4_3_u04_r18_network.node[0].content_store 	misses[0] 	194972
scalar tree_4_3_u04_r18_network.node[0].content_store 	decision_yes[0] 	1011
scalar tree_4_3_u04_r18_network.node[0].content_store 	decision_no[0] 	193961
scalar tree_4_3_u04_r18_network.node[0].content_store 	decision_ratio[0] 	0.0051853599491209
scalar tree_4_3_u04_r18_network.node[1].core_layer 	interests[1] 	68864
scalar tree_4_3_u04_r18_network.node[1].core_layer 	data[1] 	66903
scalar tree_4_3_u04_r18_network.node[1].content_store 	p_hit[1] 	0.028476417286245
scalar tree_4_3_u04_r18_network.node[1].content_store 	hits[1] 	1961
scalar tree_4_3_u04_r18_network.node[1].content_store 	misses[1] 	66903
scalar tree_4_3_u04_r18_network.node[1].content_store 	decision_yes[1] 	54
scalar tree_4_3_u04_r18_network.node[1].content_store 	decision_no[1] 	66849
scalar tree_4_3_u04_r18_network.node[1].content_store 	decision_ratio[1] 	0.00080713869333214
scalar tree_4_3_u04_r18_network.node[2].core_layer 	interests[2] 	71597
scalar tree_4_3_u04_r18_network.node[2].core_layer 	data[2] 	69013
scalar tree_4_3_u04_r18_network.node[2].content_store 	p_hit[2] 	0.036062963531992
scalar tree_4_3_u04_r18_network.node[2].content_store 	hits[2] 	2582
scalar tree_4_3_u04_r18_network.node[2].content_store 	misses[2] 	69015
scalar tree_4_3_u04_r18_network.node[2].content_store 	decision_yes[2] 	99
scalar tree_4_3_u04_r18_network.node[2].content_store 	decision_no[2] 	68914
scalar tree_4_3_u04_r18_network.node[2].content_store 	decision_ratio[2] 	0.0014345123382551
scalar tree_4_3_u04_r18_network.node[3].core_layer 	interests[3] 	71492
scalar tree_4_3_u04_r18_network.node[3].core_layer 	data[3] 	68748
scalar tree_4_3_u04_r18_network.node[3].content_store 	p_hit[3] 	0.038339954120741
scalar tree_4_3_u04_r18_network.node[3].content_store 	hits[3] 	2741
scalar tree_4_3_u04_r18_network.node[3].content_store 	misses[3] 	68751
scalar tree_4_3_u04_r18_network.node[3].content_store 	decision_yes[3] 	108
scalar tree_4_3_u04_r18_network.node[3].content_store 	decision_no[3] 	68640
scalar tree_4_3_u04_r18_network.node[3].content_store 	decision_ratio[3] 	0.0015709547914121
scalar tree_4_3_u04_r18_network.node[4].core_layer 	interests[4] 	26430
scalar tree_4_3_u04_r18_network.node[4].core_layer 	data[4] 	24851
scalar tree_4_3_u04_r18_network.node[4].content_store 	p_hit[4] 	0.059704880817253
scalar tree_4_3_u04_r18_network.node[4].content_store 	hits[4] 	1578
scalar tree_4_3_u04_r18_network.node[4].content_store 	misses[4] 	24852
scalar tree_4_3_u04_r18_network.node[4].content_store 	decision_yes[4] 	59
scalar tree_4_3_u04_r18_network.node[4].content_store 	decision_no[4] 	24792
scalar tree_4_3_u04_r18_network.node[4].content_store 	decision_ratio[4] 	0.0023741499336043
scalar tree_4_3_u04_r18_network.node[5].core_layer 	interests[5] 	26608
scalar tree_4_3_u04_r18_network.node[5].core_layer 	data[5] 	24056
scalar tree_4_3_u04_r18_network.node[5].content_store 	p_hit[5] 	0.09591100420926
scalar tree_4_3_u04_r18_network.node[5].content_store 	hits[5] 	2552
scalar tree_4_3_u04_r18_network.node[5].content_store 	misses[5] 	24056
scalar tree_4_3_u04_r18_network.node[5].content_store 	decision_yes[5] 	82
scalar tree_4_3_u04_r18_network.node[5].content_store 	decision_no[5] 	23974
scalar tree_4_3_u04_r18_network.node[5].content_store 	decision_ratio[5] 	0.003408713002993
scalar tree_4_3_u04_r18_network.node[6].core_layer 	interests[6] 	28005
scalar tree_4_3_u04_r18_network.node[6].core_layer 	data[6] 	25124
scalar tree_4_3_u04_r18_network.node[6].content_store 	p_hit[6] 	0.1028387787895
scalar tree_4_3_u04_r18_network.node[6].content_store 	hits[6] 	2880
scalar tree_4_3_u04_r18_network.node[6].content_store 	misses[6] 	25125
scalar tree_4_3_u04_r18_network.node[6].content_store 	decision_yes[6] 	140
scalar tree_4_3_u04_r18_network.node[6].content_store 	decision_no[6] 	24984
scalar tree_4_3_u04_r18_network.node[6].content_store 	decision_ratio[6] 	0.0055723610889986
scalar tree_4_3_u04_r18_network.node[7].core_layer 	interests[7] 	43197
scalar tree_4_3_u04_r18_network.node[7].core_layer 	data[7] 	40595
scalar tree_4_3_u04_r18_network.node[7].content_store 	p_hit[7] 	0.060212514757969
scalar tree_4_3_u04_r18_network.node[7].content_store 	hits[7] 	2601
scalar tree_4_3_u04_r18_network.node[7].content_store 	misses[7] 	40596
scalar tree_4_3_u04_r18_network.node[7].content_store 	decision_yes[7] 	94
scalar tree_4_3_u04_r18_network.node[7].content_store 	decision_no[7] 	40501
scalar tree_4_3_u04_r18_network.node[7].content_store 	decision_ratio[7] 	0.0023155561029683
scalar tree_4_3_u04_r18_network.node[8].core_layer 	interests[8] 	26495
scalar tree_4_3_u04_r18_network.node[8].core_layer 	data[8] 	24282
scalar tree_4_3_u04_r18_network.node[8].content_store 	p_hit[8] 	0.08344970749198
scalar tree_4_3_u04_r18_network.node[8].content_store 	hits[8] 	2211
scalar tree_4_3_u04_r18_network.node[8].content_store 	misses[8] 	24284
scalar tree_4_3_u04_r18_network.node[8].content_store 	decision_yes[8] 	64
scalar tree_4_3_u04_r18_network.node[8].content_store 	decision_no[8] 	24218
scalar tree_4_3_u04_r18_network.node[8].content_store 	decision_ratio[8] 	0.0026356972242814
scalar tree_4_3_u04_r18_network.node[9].core_layer 	interests[9] 	10017
scalar tree_4_3_u04_r18_network.node[9].core_layer 	data[9] 	8387
scalar tree_4_3_u04_r18_network.node[9].content_store 	p_hit[9] 	0.16272337027054
scalar tree_4_3_u04_r18_network.node[9].content_store 	hits[9] 	1630
scalar tree_4_3_u04_r18_network.node[9].content_store 	misses[9] 	8387
scalar tree_4_3_u04_r18_network.node[9].content_store 	decision_yes[9] 	37
scalar tree_4_3_u04_r18_network.node[9].content_store 	decision_no[9] 	8350
scalar tree_4_3_u04_r18_network.node[9].content_store 	decision_ratio[9] 	0.0044115893644927
scalar tree_4_3_u04_r18_network.node[10].core_layer 	interests[10] 	33730
scalar tree_4_3_u04_r18_network.node[10].core_layer 	data[10] 	31580
scalar tree_4_3_u04_r18_network.node[10].content_store 	p_hit[10] 	0.063741476430477
scalar tree_4_3_u04_r18_network.node[10].content_store 	hits[10] 	2150
scalar tree_4_3_u04_r18_network.node[10].content_store 	misses[10] 	31580
scalar tree_4_3_u04_r18_network.node[10].content_store 	decision_yes[10] 	56
scalar tree_4_3_u04_r18_network.node[10].content_store 	decision_no[10] 	31524
scalar tree_4_3_u04_r18_network.node[10].content_store 	decision_ratio[10] 	0.0017732742241925
scalar tree_4_3_u04_r18_network.node[11].core_layer 	interests[11] 	27267
scalar tree_4_3_u04_r18_network.node[11].core_layer 	data[11] 	24798
scalar tree_4_3_u04_r18_network.node[11].content_store 	p_hit[11] 	0.090512340924928
scalar tree_4_3_u04_r18_network.node[11].content_store 	hits[11] 	2468
scalar tree_4_3_u04_r18_network.node[11].content_store 	misses[11] 	24799
scalar tree_4_3_u04_r18_network.node[11].content_store 	decision_yes[11] 	89
scalar tree_4_3_u04_r18_network.node[11].content_store 	decision_no[11] 	24709
scalar tree_4_3_u04_r18_network.node[11].content_store 	decision_ratio[11] 	0.0035889991128317
scalar tree_4_3_u04_r18_network.node[12].core_layer 	interests[12] 	18817
scalar tree_4_3_u04_r18_network.node[12].core_layer 	data[12] 	16727
scalar tree_4_3_u04_r18_network.node[12].content_store 	p_hit[12] 	0.11106977732901
scalar tree_4_3_u04_r18_network.node[12].content_store 	hits[12] 	2090
scalar tree_4_3_u04_r18_network.node[12].content_store 	misses[12] 	16727
scalar tree_4_3_u04_r18_network.node[12].content_store 	decision_yes[12] 	64
scalar tree_4_3_u04_r18_network.node[12].content_store 	decision_no[12] 	16663
scalar tree_4_3_u04_r18_network.node[12].content_store 	decision_ratio[12] 	0.0038261493393914
scalar tree_4_3_u04_r18_network.node[13].core_layer 	interests[13] 	12375
scalar tree_4_3_u04_r18_network.node[13].core_layer 	data[13] 	8822
scalar tree_4_3_u04_r18_network.node[13].content_store 	p_hit[13] 	0.28711111111111
scalar tree_4_3_u04_r18_network.node[13].content_store 	hits[13] 	3553
scalar tree_4_3_u04_r18_network.node[13].content_store 	misses[13] 	8822
scalar tree_4_3_u04_r18_network.node[13].content_store 	decision_yes[13] 	30
scalar tree_4_3_u04_r18_network.node[13].content_store 	decision_no[13] 	8792
scalar tree_4_3_u04_r18_network.node[13].content_store 	decision_ratio[13] 	0.0034005894355022
scalar tree_4_3_u04_r18_network.node[14].core_layer 	interests[14] 	12363
scalar tree_4_3_u04_r18_network.node[14].core_layer 	data[14] 	8712
scalar tree_4_3_u04_r18_network.node[14].content_store 	p_hit[14] 	0.29531667071099
scalar tree_4_3_u04_r18_network.node[14].content_store 	hits[14] 	3651
scalar tree_4_3_u04_r18_network.node[14].content_store 	misses[14] 	8712
scalar tree_4_3_u04_r18_network.node[14].content_store 	decision_yes[14] 	23
scalar tree_4_3_u04_r18_network.node[14].content_store 	decision_no[14] 	8689
scalar tree_4_3_u04_r18_network.node[14].content_store 	decision_ratio[14] 	0.0026400367309458
scalar tree_4_3_u04_r18_network.node[15].core_layer 	interests[15] 	12239
scalar tree_4_3_u04_r18_network.node[15].core_layer 	data[15] 	8629
scalar tree_4_3_u04_r18_network.node[15].content_store 	p_hit[15] 	0.29495873845902
scalar tree_4_3_u04_r18_network.node[15].content_store 	hits[15] 	3610
scalar tree_4_3_u04_r18_network.node[15].content_store 	misses[15] 	8629
scalar tree_4_3_u04_r18_network.node[15].content_store 	decision_yes[15] 	23
scalar tree_4_3_u04_r18_network.node[15].content_store 	decision_no[15] 	8606
scalar tree_4_3_u04_r18_network.node[15].content_store 	decision_ratio[15] 	0.0026654305249739
scalar tree_4_3_u04_r18_network.node[16].core_layer 	interests[16] 	12349
scalar tree_4_3_u04_r18_network.node[16].core_layer 	data[16] 	8640
scalar tree_4_3_u04_r18_network.node[16].content_store 	p_hit[16] 	0.3003482063325
scalar tree_4_3_u04_r18_network.node[16].content_store 	hits[16] 	3709
scalar tree_4_3_u04_r18_network.node[16].content_store 	misses[16] 	8640
scalar tree_4_3_u04_r18_network.node[16].content_store 	decision_yes[16] 	25
scalar tree_4_3_u04_r18_network.node[16].content_store 	decision_no[16] 	8615
scalar tree_4_3_u04_r18_network.node[16].content_store 	decision_ratio[16] 	0.0028935185185185
scalar tree_4_3_u04_r18_network.node[17].core_layer 	interests[17] 	12187
scalar tree_4_3_u04_r18_network.node[17].core_layer 	data[17] 	8546
scalar tree_4_3_u04_r18_network.node[17].content_store 	p_hit[17] 	0.29876097480922
scalar tree_4_3_u04_r18_network.node[17].content_store 	hits[17] 	3641
scalar tree_4_3_u04_r18_network.node[17].content_store 	misses[17] 	8546
scalar tree_4_3_u04_r18_network.node[17].content_store 	decision_yes[17] 	32
scalar tree_4_3_u04_r18_network.node[17].content_store 	decision_no[17] 	8514
scalar tree_4_3_u04_r18_network.node[17].content_store 	decision_ratio[17] 	0.0037444418441376
scalar tree_4_3_u04_r18_network.node[18].core_layer 	interests[18] 	12750
scalar tree_4_3_u04_r18_network.node[18].core_layer 	data[18] 	8821
scalar tree_4_3_u04_r18_network.node[18].content_store 	p_hit[18] 	0.3081568627451
scalar tree_4_3_u04_r18_network.node[18].content_store 	hits[18] 	3929
scalar tree_4_3_u04_r18_network.node[18].content_store 	misses[18] 	8821
scalar tree_4_3_u04_r18_network.node[18].content_store 	decision_yes[18] 	35
scalar tree_4_3_u04_r18_network.node[18].content_store 	decision_no[18] 	8786
scalar tree_4_3_u04_r18_network.node[18].content_store 	decision_ratio[18] 	0.0039678041038431
scalar tree_4_3_u04_r18_network.node[19].core_layer 	interests[19] 	12335
scalar tree_4_3_u04_r18_network.node[19].core_layer 	data[19] 	8682
scalar tree_4_3_u04_r18_network.node[19].content_store 	p_hit[19] 	0.29614916903121
scalar tree_4_3_u04_r18_network.node[19].content_store 	hits[19] 	3653
scalar tree_4_3_u04_r18_network.node[19].content_store 	misses[19] 	8682
scalar tree_4_3_u04_r18_network.node[19].content_store 	decision_yes[19] 	21
scalar tree_4_3_u04_r18_network.node[19].content_store 	decision_no[19] 	8661
scalar tree_4_3_u04_r18_network.node[19].content_store 	decision_ratio[19] 	0.002418797512094
scalar tree_4_3_u04_r18_network.node[20].core_layer 	interests[20] 	12427
scalar tree_4_3_u04_r18_network.node[20].core_layer 	data[20] 	8704
scalar tree_4_3_u04_r18_network.node[20].content_store 	p_hit[20] 	0.2995091333387
scalar tree_4_3_u04_r18_network.node[20].content_store 	hits[20] 	3722
scalar tree_4_3_u04_r18_network.node[20].content_store 	misses[20] 	8705
scalar tree_4_3_u04_r18_network.node[20].content_store 	decision_yes[20] 	13
scalar tree_4_3_u04_r18_network.node[20].content_store 	decision_no[20] 	8691
scalar tree_4_3_u04_r18_network.node[20].content_store 	decision_ratio[20] 	0.0014935661764706
scalar tree_4_3_u04_r18_network.node[21].core_layer 	interests[21] 	12088
scalar tree_4_3_u04_r18_network.node[21].core_layer 	data[21] 	8487
scalar tree_4_3_u04_r18_network.node[21].content_store 	p_hit[21] 	0.2978987425546
scalar tree_4_3_u04_r18_network.node[21].content_store 	hits[21] 	3601
scalar tree_4_3_u04_r18_network.node[21].content_store 	misses[21] 	8487
scalar tree_4_3_u04_r18_network.node[21].content_store 	decision_yes[21] 	24
scalar tree_4_3_u04_r18_network.node[21].content_store 	decision_no[21] 	8463
scalar tree_4_3_u04_r18_network.node[21].content_store 	decision_ratio[21] 	0.0028278543655002
scalar tree_4_3_u04_r18_network.node[22].core_layer 	interests[22] 	12189
scalar tree_4_3_u04_r18_network.node[22].core_layer 	data[22] 	8657
scalar tree_4_3_u04_r18_network.node[22].content_store 	p_hit[22] 	0.28976946427106
scalar tree_4_3_u04_r18_network.node[22].content_store 	hits[22] 	3532
scalar tree_4_3_u04_r18_network.node[22].content_store 	misses[22] 	8657
scalar tree_4_3_u04_r18_network.node[22].content_store 	decision_yes[22] 	27
scalar tree_4_3_u04_r18_network.node[22].content_store 	decision_no[22] 	8630
scalar tree_4_3_u04_r18_network.node[22].content_store 	decision_ratio[22] 	0.00311886334758
scalar tree_4_3_u04_r18_network.node[23].core_layer 	interests[23] 	12249
scalar tree_4_3_u04_r18_network.node[23].core_layer 	data[23] 	8667
scalar tree_4_3_u04_r18_network.node[23].content_store 	p_hit[23] 	0.29243203526819
scalar tree_4_3_u04_r18_network.node[23].content_store 	hits[23] 	3582
scalar tree_4_3_u04_r18_network.node[23].content_store 	misses[23] 	8667
scalar tree_4_3_u04_r18_network.node[23].content_store 	decision_yes[23] 	26
scalar tree_4_3_u04_r18_network.node[23].content_store 	decision_no[23] 	8641
scalar tree_4_3_u04_r18_network.node[23].content_store 	decision_ratio[23] 	0.0029998846198223
scalar tree_4_3_u04_r18_network.node[24].core_layer 	interests[24] 	12211
scalar tree_4_3_u04_r18_network.node[24].core_layer 	data[24] 	8691
scalar tree_4_3_u04_r18_network.node[24].content_store 	p_hit[24] 	0.28826467938744
scalar tree_4_3_u04_r18_network.node[24].content_store 	hits[24] 	3520
scalar tree_4_3_u04_r18_network.node[24].content_store 	misses[24] 	8691
scalar tree_4_3_u04_r18_network.node[24].content_store 	decision_yes[24] 	25
scalar tree_4_3_u04_r18_network.node[24].content_store 	decision_no[24] 	8666
scalar tree_4_3_u04_r18_network.node[24].content_store 	decision_ratio[24] 	0.0028765389483374
scalar tree_4_3_u04_r18_network.node[25].core_layer 	interests[25] 	12532
scalar tree_4_3_u04_r18_network.node[25].core_layer 	data[25] 	8780
scalar tree_4_3_u04_r18_network.node[25].content_store 	p_hit[25] 	0.29939355250559
scalar tree_4_3_u04_r18_network.node[25].content_store 	hits[25] 	3752
scalar tree_4_3_u04_r18_network.node[25].content_store 	misses[25] 	8780
scalar tree_4_3_u04_r18_network.node[25].content_store 	decision_yes[25] 	43
scalar tree_4_3_u04_r18_network.node[25].content_store 	decision_no[25] 	8737
scalar tree_4_3_u04_r18_network.node[25].content_store 	decision_ratio[25] 	0.0048974943052392
scalar tree_4_3_u04_r18_network.node[26].core_layer 	interests[26] 	12174
scalar tree_4_3_u04_r18_network.node[26].core_layer 	data[26] 	8534
scalar tree_4_3_u04_r18_network.node[26].content_store 	p_hit[26] 	0.29899786430097
scalar tree_4_3_u04_r18_network.node[26].content_store 	hits[26] 	3640
scalar tree_4_3_u04_r18_network.node[26].content_store 	misses[26] 	8534
scalar tree_4_3_u04_r18_network.node[26].content_store 	decision_yes[26] 	21
scalar tree_4_3_u04_r18_network.node[26].content_store 	decision_no[26] 	8513
scalar tree_4_3_u04_r18_network.node[26].content_store 	decision_ratio[26] 	0.002460745254277
scalar tree_4_3_u04_r18_network.node[27].core_layer 	interests[27] 	12292
scalar tree_4_3_u04_r18_network.node[27].core_layer 	data[27] 	8638
scalar tree_4_3_u04_r18_network.node[27].content_store 	p_hit[27] 	0.29718516108038
scalar tree_4_3_u04_r18_network.node[27].content_store 	hits[27] 	3653
scalar tree_4_3_u04_r18_network.node[27].content_store 	misses[27] 	8639
scalar tree_4_3_u04_r18_network.node[27].content_store 	decision_yes[27] 	32
scalar tree_4_3_u04_r18_network.node[27].content_store 	decision_no[27] 	8606
scalar tree_4_3_u04_r18_network.node[27].content_store 	decision_ratio[27] 	0.003704561241028
scalar tree_4_3_u04_r18_network.node[28].core_layer 	interests[28] 	12568
scalar tree_4_3_u04_r18_network.node[28].core_layer 	data[28] 	8783
scalar tree_4_3_u04_r18_network.node[28].content_store 	p_hit[28] 	0.30116168045831
scalar tree_4_3_u04_r18_network.node[28].content_store 	hits[28] 	3785
scalar tree_4_3_u04_r18_network.node[28].content_store 	misses[28] 	8783
scalar tree_4_3_u04_r18_network.node[28].content_store 	decision_yes[28] 	44
scalar tree_4_3_u04_r18_network.node[28].content_store 	decision_no[28] 	8739
scalar tree_4_3_u04_r18_network.node[28].content_store 	decision_ratio[28] 	0.0050096777866333
scalar tree_4_3_u04_r18_network.node[29].core_layer 	interests[29] 	12341
scalar tree_4_3_u04_r18_network.node[29].core_layer 	data[29] 	8640
scalar tree_4_3_u04_r18_network.node[29].content_store 	p_hit[29] 	0.29989466007617
scalar tree_4_3_u04_r18_network.node[29].content_store 	hits[29] 	3701
scalar tree_4_3_u04_r18_network.node[29].content_store 	misses[29] 	8640
scalar tree_4_3_u04_r18_network.node[29].content_store 	decision_yes[29] 	40
scalar tree_4_3_u04_r18_network.node[29].content_store 	decision_no[29] 	8600
scalar tree_4_3_u04_r18_network.node[29].content_store 	decision_ratio[29] 	0.0046296296296296
scalar tree_4_3_u04_r18_network.node[30].core_layer 	interests[30] 	12178
scalar tree_4_3_u04_r18_network.node[30].core_layer 	data[30] 	8661
scalar tree_4_3_u04_r18_network.node[30].content_store 	p_hit[30] 	0.28879947446214
scalar tree_4_3_u04_r18_network.node[30].content_store 	hits[30] 	3517
scalar tree_4_3_u04_r18_network.node[30].content_store 	misses[30] 	8661
scalar tree_4_3_u04_r18_network.node[30].content_store 	decision_yes[30] 	23
scalar tree_4_3_u04_r18_network.node[30].content_store 	decision_no[30] 	8638
scalar tree_4_3_u04_r18_network.node[30].content_store 	decision_ratio[30] 	0.0026555824962475
scalar tree_4_3_u04_r18_network.node[31].core_layer 	interests[31] 	12199
scalar tree_4_3_u04_r18_network.node[31].core_layer 	data[31] 	8758
scalar tree_4_3_u04_r18_network.node[31].content_store 	p_hit[31] 	0.28207230100828
scalar tree_4_3_u04_r18_network.node[31].content_store 	hits[31] 	3441
scalar tree_4_3_u04_r18_network.node[31].content_store 	misses[31] 	8758
scalar tree_4_3_u04_r18_network.node[31].content_store 	decision_yes[31] 	21
scalar tree_4_3_u04_r18_network.node[31].content_store 	decision_no[31] 	8737
scalar tree_4_3_u04_r18_network.node[31].content_store 	decision_ratio[31] 	0.0023978077186572
scalar tree_4_3_u04_r18_network.node[32].core_layer 	interests[32] 	12478
scalar tree_4_3_u04_r18_network.node[32].core_layer 	data[32] 	8688
scalar tree_4_3_u04_r18_network.node[32].content_store 	p_hit[32] 	0.30365443179997
scalar tree_4_3_u04_r18_network.node[32].content_store 	hits[32] 	3789
scalar tree_4_3_u04_r18_network.node[32].content_store 	misses[32] 	8689
scalar tree_4_3_u04_r18_network.node[32].content_store 	decision_yes[32] 	47
scalar tree_4_3_u04_r18_network.node[32].content_store 	decision_no[32] 	8641
scalar tree_4_3_u04_r18_network.node[32].content_store 	decision_ratio[32] 	0.0054097605893186
scalar tree_4_3_u04_r18_network.node[33].core_layer 	interests[33] 	12414
scalar tree_4_3_u04_r18_network.node[33].core_layer 	data[33] 	8709
scalar tree_4_3_u04_r18_network.node[33].content_store 	p_hit[33] 	0.29853391332367
scalar tree_4_3_u04_r18_network.node[33].content_store 	hits[33] 	3706
scalar tree_4_3_u04_r18_network.node[33].content_store 	misses[33] 	8708
scalar tree_4_3_u04_r18_network.node[33].content_store 	decision_yes[33] 	40
scalar tree_4_3_u04_r18_network.node[33].content_store 	decision_no[33] 	8669
scalar tree_4_3_u04_r18_network.node[33].content_store 	decision_ratio[33] 	0.0045929498220232
scalar tree_4_3_u04_r18_network.node[34].core_layer 	interests[34] 	12421
scalar tree_4_3_u04_r18_network.node[34].core_layer 	data[34] 	8666
scalar tree_4_3_u04_r18_network.node[34].content_store 	p_hit[34] 	0.30231060301103
scalar tree_4_3_u04_r18_network.node[34].content_store 	hits[34] 	3755
scalar tree_4_3_u04_r18_network.node[34].content_store 	misses[34] 	8666
scalar tree_4_3_u04_r18_network.node[34].content_store 	decision_yes[34] 	56
scalar tree_4_3_u04_r18_network.node[34].content_store 	decision_no[34] 	8610
scalar tree_4_3_u04_r18_network.node[34].content_store 	decision_ratio[34] 	0.0064620355411955
scalar tree_4_3_u04_r18_network.node[35].core_layer 	interests[35] 	12478
scalar tree_4_3_u04_r18_network.node[35].core_layer 	data[35] 	8802
scalar tree_4_3_u04_r18_network.node[35].content_store 	p_hit[35] 	0.29459849334829
scalar tree_4_3_u04_r18_network.node[35].content_store 	hits[35] 	3676
scalar tree_4_3_u04_r18_network.node[35].content_store 	misses[35] 	8802
scalar tree_4_3_u04_r18_network.node[35].content_store 	decision_yes[35] 	20
scalar tree_4_3_u04_r18_network.node[35].content_store 	decision_no[35] 	8782
scalar tree_4_3_u04_r18_network.node[35].content_store 	decision_ratio[35] 	0.0022722108611679
scalar tree_4_3_u04_r18_network.node[36].core_layer 	interests[36] 	12239
scalar tree_4_3_u04_r18_network.node[36].core_layer 	data[36] 	8669
scalar tree_4_3_u04_r18_network.node[36].content_store 	p_hit[36] 	0.29169049758967
scalar tree_4_3_u04_r18_network.node[36].content_store 	hits[36] 	3570
scalar tree_4_3_u04_r18_network.node[36].content_store 	misses[36] 	8669
scalar tree_4_3_u04_r18_network.node[36].content_store 	decision_yes[36] 	25
scalar tree_4_3_u04_r18_network.node[36].content_store 	decision_no[36] 	8644
scalar tree_4_3_u04_r18_network.node[36].content_store 	decision_ratio[36] 	0.0028838389664321
scalar tree_4_3_u04_r18_network.node[37].core_layer 	interests[37] 	12134
scalar tree_4_3_u04_r18_network.node[37].core_layer 	data[37] 	8672
scalar tree_4_3_u04_r18_network.node[37].content_store 	p_hit[37] 	0.28531399373661
scalar tree_4_3_u04_r18_network.node[37].content_store 	hits[37] 	3462
scalar tree_4_3_u04_r18_network.node[37].content_store 	misses[37] 	8672
scalar tree_4_3_u04_r18_network.node[37].content_store 	decision_yes[37] 	30
scalar tree_4_3_u04_r18_network.node[37].content_store 	decision_no[37] 	8642
scalar tree_4_3_u04_r18_network.node[37].content_store 	decision_ratio[37] 	0.0034594095940959
scalar tree_4_3_u04_r18_network.node[38].core_layer 	interests[38] 	12551
scalar tree_4_3_u04_r18_network.node[38].core_layer 	data[38] 	8626
scalar tree_4_3_u04_r18_network.node[38].content_store 	p_hit[38] 	0.31264441080392
scalar tree_4_3_u04_r18_network.node[38].content_store 	hits[38] 	3924
scalar tree_4_3_u04_r18_network.node[38].content_store 	misses[38] 	8627
scalar tree_4_3_u04_r18_network.node[38].content_store 	decision_yes[38] 	38
scalar tree_4_3_u04_r18_network.node[38].content_store 	decision_no[38] 	8588
scalar tree_4_3_u04_r18_network.node[38].content_store 	decision_ratio[38] 	0.0044052863436123
scalar tree_4_3_u04_r18_network.node[39].core_layer 	interests[39] 	12120
scalar tree_4_3_u04_r18_network.node[39].core_layer 	data[39] 	8664
scalar tree_4_3_u04_r18_network.node[39].content_store 	p_hit[39] 	0.28514851485149
scalar tree_4_3_u04_r18_network.node[39].content_store 	hits[39] 	3456
scalar tree_4_3_u04_r18_network.node[39].content_store 	misses[39] 	8664
scalar tree_4_3_u04_r18_network.node[39].content_store 	decision_yes[39] 	18
scalar tree_4_3_u04_r18_network.node[39].content_store 	decision_no[39] 	8646
scalar tree_4_3_u04_r18_network.node[39].content_store 	decision_ratio[39] 	0.0020775623268698
scalar tree_4_3_u04_r18_network.client[13] 	hdistance[13] 	2.6873866446826
scalar tree_4_3_u04_r18_network.client[13] 	downloads[13] 	12130
scalar tree_4_3_u04_r18_network.client[13] 	avg_time[13] 	0.004143278066
scalar tree_4_3_u04_r18_network.client[14] 	hdistance[14] 	2.6486887679367
scalar tree_4_3_u04_r18_network.client[14] 	downloads[14] 	12126
scalar tree_4_3_u04_r18_network.client[14] 	avg_time[14] 	0.004081844826
scalar tree_4_3_u04_r18_network.client[15] 	hdistance[15] 	2.6630027479391
scalar tree_4_3_u04_r18_network.client[15] 	downloads[15] 	12009
scalar tree_4_3_u04_r18_network.client[15] 	avg_time[15] 	0.004102253643
scalar tree_4_3_u04_r18_network.client[16] 	hdistance[16] 	2.6033528780246
scalar tree_4_3_u04_r18_network.client[16] 	downloads[16] 	12109
scalar tree_4_3_u04_r18_network.client[16] 	avg_time[16] 	0.004033690948
scalar tree_4_3_u04_r18_network.client[17] 	hdistance[17] 	2.595035105316
scalar tree_4_3_u04_r18_network.client[17] 	downloads[17] 	11964
scalar tree_4_3_u04_r18_network.client[17] 	avg_time[17] 	0.00402390207
scalar tree_4_3_u04_r18_network.client[18] 	hdistance[18] 	2.5938512671375
scalar tree_4_3_u04_r18_network.client[18] 	downloads[18] 	12035
scalar tree_4_3_u04_r18_network.client[18] 	avg_time[18] 	0.004022763915
scalar tree_4_3_u04_r18_network.client[19] 	hdistance[19] 	2.6171400016657
scalar tree_4_3_u04_r18_network.client[19] 	downloads[19] 	12007
scalar tree_4_3_u04_r18_network.client[19] 	avg_time[19] 	0.004057796596
scalar tree_4_3_u04_r18_network.client[20] 	hdistance[20] 	2.6166832174777
scalar tree_4_3_u04_r18_network.client[20] 	downloads[20] 	12084
scalar tree_4_3_u04_r18_network.client[20] 	avg_time[20] 	0.004055305351
scalar tree_4_3_u04_r18_network.client[21] 	hdistance[21] 	2.6084378176889
scalar tree_4_3_u04_r18_network.client[21] 	downloads[21] 	11804
scalar tree_4_3_u04_r18_network.client[21] 	avg_time[21] 	0.004037950284
scalar tree_4_3_u04_r18_network.client[22] 	hdistance[22] 	2.6590089712417
scalar tree_4_3_u04_r18_network.client[22] 	downloads[22] 	11927
scalar tree_4_3_u04_r18_network.client[22] 	avg_time[22] 	0.004102453638
scalar tree_4_3_u04_r18_network.client[23] 	hdistance[23] 	2.6560599750104
scalar tree_4_3_u04_r18_network.client[23] 	downloads[23] 	12005
scalar tree_4_3_u04_r18_network.client[23] 	avg_time[23] 	0.00409529062
scalar tree_4_3_u04_r18_network.client[24] 	hdistance[24] 	2.6684791701522
scalar tree_4_3_u04_r18_network.client[24] 	downloads[24] 	11954
scalar tree_4_3_u04_r18_network.client[24] 	avg_time[24] 	0.004119976901
scalar tree_4_3_u04_r18_network.client[25] 	hdistance[25] 	2.6456388258054
scalar tree_4_3_u04_r18_network.client[25] 	downloads[25] 	11889
scalar tree_4_3_u04_r18_network.client[25] 	avg_time[25] 	0.004074265739
scalar tree_4_3_u04_r18_network.client[26] 	hdistance[26] 	2.6164520983113
scalar tree_4_3_u04_r18_network.client[26] 	downloads[26] 	11962
scalar tree_4_3_u04_r18_network.client[26] 	avg_time[26] 	0.004043635192
scalar tree_4_3_u04_r18_network.client[27] 	hdistance[27] 	2.6304563492063
scalar tree_4_3_u04_r18_network.client[27] 	downloads[27] 	12096
scalar tree_4_3_u04_r18_network.client[27] 	avg_time[27] 	0.004059463039
scalar tree_4_3_u04_r18_network.client[28] 	hdistance[28] 	2.6364088947892
scalar tree_4_3_u04_r18_network.client[28] 	downloads[28] 	12052
scalar tree_4_3_u04_r18_network.client[28] 	avg_time[28] 	0.004057414809
scalar tree_4_3_u04_r18_network.client[29] 	hdistance[29] 	2.5983395599834
scalar tree_4_3_u04_r18_network.client[29] 	downloads[29] 	12045
scalar tree_4_3_u04_r18_network.client[29] 	avg_time[29] 	0.003996510074
scalar tree_4_3_u04_r18_network.client[30] 	hdistance[30] 	2.6488719940501
scalar tree_4_3_u04_r18_network.client[30] 	downloads[30] 	12101
scalar tree_4_3_u04_r18_network.client[30] 	avg_time[30] 	0.004087427769
scalar tree_4_3_u04_r18_network.client[31] 	hdistance[31] 	2.6683521220159
scalar tree_4_3_u04_r18_network.client[31] 	downloads[31] 	12064
scalar tree_4_3_u04_r18_network.client[31] 	avg_time[31] 	0.004117868334
scalar tree_4_3_u04_r18_network.client[32] 	hdistance[32] 	2.5965000418655
scalar tree_4_3_u04_r18_network.client[32] 	downloads[32] 	11943
scalar tree_4_3_u04_r18_network.client[32] 	avg_time[32] 	0.004004890974
scalar tree_4_3_u04_r18_network.client[33] 	hdistance[33] 	2.6148705096073
scalar tree_4_3_u04_r18_network.client[33] 	downloads[33] 	11970
scalar tree_4_3_u04_r18_network.client[33] 	avg_time[33] 	0.004026482369
scalar tree_4_3_u04_r18_network.client[34] 	hdistance[34] 	2.6222936400541
scalar tree_4_3_u04_r18_network.client[34] 	downloads[34] 	11824
scalar tree_4_3_u04_r18_network.client[34] 	avg_time[34] 	0.004038900961
scalar tree_4_3_u04_r18_network.client[35] 	hdistance[35] 	2.6356898517674
scalar tree_4_3_u04_r18_network.client[35] 	downloads[35] 	12278
scalar tree_4_3_u04_r18_network.client[35] 	avg_time[35] 	0.004068737766
scalar tree_4_3_u04_r18_network.client[36] 	hdistance[36] 	2.6459941884599
scalar tree_4_3_u04_r18_network.client[36] 	downloads[36] 	12045
scalar tree_4_3_u04_r18_network.client[36] 	avg_time[36] 	0.004080694383
scalar tree_4_3_u04_r18_network.client[37] 	hdistance[37] 	2.6586851326548
scalar tree_4_3_u04_r18_network.client[37] 	downloads[37] 	11986
scalar tree_4_3_u04_r18_network.client[37] 	avg_time[37] 	0.004107214035
scalar tree_4_3_u04_r18_network.client[38] 	hdistance[38] 	2.5913122772113
scalar tree_4_3_u04_r18_network.client[38] 	downloads[38] 	12063
scalar tree_4_3_u04_r18_network.client[38] 	avg_time[38] 	0.003983085755
scalar tree_4_3_u04_r18_network.client[39] 	hdistance[39] 	2.6779292464665
scalar tree_4_3_u04_r18_network.client[39] 	downloads[39] 	11957
scalar tree_4_3_u04_r18_network.client[39] 	avg_time[39] 	0.004132471695
