version 2
run General-281-20160901-03:30:26-8710
attr a 0.9
attr cd tfc
attr configname General
attr cr lru
attr datetime 20160901-03:30:26
attr experiment General
attr fsize 1
attr inifile hw5115/scenario_Y/omnetp.ini
attr iterationvars "$name=tree_4_3, $un=04, $rep=14, $cd=tfc, $cr=lru, $fsize=1, $a=0.9, $sl=nrr, $ttl=1000, $variance=0.05"
attr iterationvars2 "$name=tree_4_3, $un=04, $rep=14, $cd=tfc, $cr=lru, $fsize=1, $a=0.9, $sl=nrr, $ttl=1000, $variance=0.05, $repetition=0"
attr measurement "$name=tree_4_3, $un=04, $rep=14, $cd=tfc, $cr=lru, $fsize=1, $a=0.9, $sl=nrr, $ttl=1000, $variance=0.05"
attr name tree_4_3
attr network networks.${name}_u${un}_r${rep}_network
attr processid 8710
attr rep 14
attr repetition 0
attr replication #0
attr resultdir results
attr runnumber 281
attr seedset 14
attr sl nrr
attr ttl 1000
attr un 04
attr variance 0.05

scalar . 	a 	0.9
scalar . 	fsize 	1
scalar . 	rep 	14
scalar . 	ttl 	1000
scalar . 	un 	04
scalar . 	variance 	0.05
scalar tree_4_3_u04_r14_network.content_distribution 	repo-0 	0
scalar tree_4_3_u04_r14_network.content_distribution 	client-0 	13
scalar tree_4_3_u04_r14_network.content_distribution 	client-1 	14
scalar tree_4_3_u04_r14_network.content_distribution 	client-2 	15
scalar tree_4_3_u04_r14_network.content_distribution 	client-3 	16
scalar tree_4_3_u04_r14_network.content_distribution 	client-4 	17
scalar tree_4_3_u04_r14_network.content_distribution 	client-5 	18
scalar tree_4_3_u04_r14_network.content_distribution 	client-6 	19
scalar tree_4_3_u04_r14_network.content_distribution 	client-7 	20
scalar tree_4_3_u04_r14_network.content_distribution 	client-8 	21
scalar tree_4_3_u04_r14_network.content_distribution 	client-9 	22
scalar tree_4_3_u04_r14_network.content_distribution 	client-10 	23
scalar tree_4_3_u04_r14_network.content_distribution 	client-11 	24
scalar tree_4_3_u04_r14_network.content_distribution 	client-12 	25
scalar tree_4_3_u04_r14_network.content_distribution 	client-13 	26
scalar tree_4_3_u04_r14_network.content_distribution 	client-14 	27
scalar tree_4_3_u04_r14_network.content_distribution 	client-15 	28
scalar tree_4_3_u04_r14_network.content_distribution 	client-16 	29
scalar tree_4_3_u04_r14_network.content_distribution 	client-17 	30
scalar tree_4_3_u04_r14_network.content_distribution 	client-18 	31
scalar tree_4_3_u04_r14_network.content_distribution 	client-19 	32
scalar tree_4_3_u04_r14_network.content_distribution 	client-20 	33
scalar tree_4_3_u04_r14_network.content_distribution 	client-21 	34
scalar tree_4_3_u04_r14_network.content_distribution 	client-22 	35
scalar tree_4_3_u04_r14_network.content_distribution 	client-23 	36
scalar tree_4_3_u04_r14_network.content_distribution 	client-24 	37
scalar tree_4_3_u04_r14_network.content_distribution 	client-25 	38
scalar tree_4_3_u04_r14_network.content_distribution 	client-26 	39
scalar tree_4_3_u04_r14_network.content_distribution 	repo-0_card 	100000
scalar tree_4_3_u04_r14_network.content_distribution 	repo-0_price 	0
scalar tree_4_3_u04_r14_network.statistics 	stabilization_time 	1726.3
scalar tree_4_3_u04_r14_network.statistics 	p_hit 	0.22283524502788
scalar tree_4_3_u04_r14_network.statistics 	interests 	24525.55
scalar tree_4_3_u04_r14_network.statistics 	data 	16431.85
scalar tree_4_3_u04_r14_network.statistics 	hdistance 	2.6277966263339
scalar tree_4_3_u04_r14_network.statistics 	avg_time 	0.004060440388
scalar tree_4_3_u04_r14_network.statistics 	downloads 	323747
scalar tree_4_3_u04_r14_network.statistics 	total_cost 	0
scalar tree_4_3_u04_r14_network.statistics 	total_replicas 	100000
scalar tree_4_3_u04_r14_network.statistics 	inner_hit 	0.40241299533278
scalar tree_4_3_u04_r14_network.node[0].core_layer 	interests[0] 	197215
scalar tree_4_3_u04_r14_network.node[0].core_layer 	repo_load[0] 	193467
scalar tree_4_3_u04_r14_network.node[0].core_layer 	data[0] 	0
scalar tree_4_3_u04_r14_network.node[0].core_layer 	repo_int[0] 	193467
scalar tree_4_3_u04_r14_network.node[0].content_store 	p_hit[0] 	0.019004639606521
scalar tree_4_3_u04_r14_network.node[0].content_store 	hits[0] 	3748
scalar tree_4_3_u04_r14_network.node[0].content_store 	misses[0] 	193467
scalar tree_4_3_u04_r14_network.node[0].content_store 	decision_yes[0] 	975
scalar tree_4_3_u04_r14_network.node[0].content_store 	decision_no[0] 	192492
scalar tree_4_3_u04_r14_network.node[0].content_store 	decision_ratio[0] 	0.0050396191598567
scalar tree_4_3_u04_r14_network.node[1].core_layer 	interests[1] 	121874
scalar tree_4_3_u04_r14_network.node[1].core_layer 	data[1] 	118556
scalar tree_4_3_u04_r14_network.node[1].content_store 	p_hit[1] 	0.027233043963438
scalar tree_4_3_u04_r14_network.node[1].content_store 	hits[1] 	3319
scalar tree_4_3_u04_r14_network.node[1].content_store 	misses[1] 	118555
scalar tree_4_3_u04_r14_network.node[1].content_store 	decision_yes[1] 	121
scalar tree_4_3_u04_r14_network.node[1].content_store 	decision_no[1] 	118435
scalar tree_4_3_u04_r14_network.node[1].content_store 	decision_ratio[1] 	0.0010206147305915
scalar tree_4_3_u04_r14_network.node[2].core_layer 	interests[2] 	39899
scalar tree_4_3_u04_r14_network.node[2].core_layer 	data[2] 	38012
scalar tree_4_3_u04_r14_network.node[2].content_store 	p_hit[2] 	0.047294418406476
scalar tree_4_3_u04_r14_network.node[2].content_store 	hits[2] 	1887
scalar tree_4_3_u04_r14_network.node[2].content_store 	misses[2] 	38012
scalar tree_4_3_u04_r14_network.node[2].content_store 	decision_yes[2] 	56
scalar tree_4_3_u04_r14_network.node[2].content_store 	decision_no[2] 	37956
scalar tree_4_3_u04_r14_network.node[2].content_store 	decision_ratio[2] 	0.0014732189834789
scalar tree_4_3_u04_r14_network.node[3].core_layer 	interests[3] 	51048
scalar tree_4_3_u04_r14_network.node[3].core_layer 	data[3] 	47495
scalar tree_4_3_u04_r14_network.node[3].content_store 	p_hit[3] 	0.069601159692838
scalar tree_4_3_u04_r14_network.node[3].content_store 	hits[3] 	3553
scalar tree_4_3_u04_r14_network.node[3].content_store 	misses[3] 	47495
scalar tree_4_3_u04_r14_network.node[3].content_store 	decision_yes[3] 	131
scalar tree_4_3_u04_r14_network.node[3].content_store 	decision_no[3] 	47364
scalar tree_4_3_u04_r14_network.node[3].content_store 	decision_ratio[3] 	0.0027581850721129
scalar tree_4_3_u04_r14_network.node[4].core_layer 	interests[4] 	33565
scalar tree_4_3_u04_r14_network.node[4].core_layer 	data[4] 	31446
scalar tree_4_3_u04_r14_network.node[4].content_store 	p_hit[4] 	0.063131237896618
scalar tree_4_3_u04_r14_network.node[4].content_store 	hits[4] 	2119
scalar tree_4_3_u04_r14_network.node[4].content_store 	misses[4] 	31446
scalar tree_4_3_u04_r14_network.node[4].content_store 	decision_yes[4] 	62
scalar tree_4_3_u04_r14_network.node[4].content_store 	decision_no[4] 	31384
scalar tree_4_3_u04_r14_network.node[4].content_store 	decision_ratio[4] 	0.0019716339121033
scalar tree_4_3_u04_r14_network.node[5].core_layer 	interests[5] 	26743
scalar tree_4_3_u04_r14_network.node[5].core_layer 	data[5] 	24350
scalar tree_4_3_u04_r14_network.node[5].content_store 	p_hit[5] 	0.089518752570766
scalar tree_4_3_u04_r14_network.node[5].content_store 	hits[5] 	2394
scalar tree_4_3_u04_r14_network.node[5].content_store 	misses[5] 	24349
scalar tree_4_3_u04_r14_network.node[5].content_store 	decision_yes[5] 	84
scalar tree_4_3_u04_r14_network.node[5].content_store 	decision_no[5] 	24266
scalar tree_4_3_u04_r14_network.node[5].content_store 	decision_ratio[5] 	0.0034496919917864
scalar tree_4_3_u04_r14_network.node[6].core_layer 	interests[6] 	19733
scalar tree_4_3_u04_r14_network.node[6].core_layer 	data[6] 	16917
scalar tree_4_3_u04_r14_network.node[6].content_store 	p_hit[6] 	0.14280646632544
scalar tree_4_3_u04_r14_network.node[6].content_store 	hits[6] 	2818
scalar tree_4_3_u04_r14_network.node[6].content_store 	misses[6] 	16915
scalar tree_4_3_u04_r14_network.node[6].content_store 	decision_yes[6] 	105
scalar tree_4_3_u04_r14_network.node[6].content_store 	decision_no[6] 	16812
scalar tree_4_3_u04_r14_network.node[6].content_store 	decision_ratio[6] 	0.0062067742507537
scalar tree_4_3_u04_r14_network.node[7].core_layer 	interests[7] 	34765
scalar tree_4_3_u04_r14_network.node[7].core_layer 	data[7] 	31977
scalar tree_4_3_u04_r14_network.node[7].content_store 	p_hit[7] 	0.080166834459945
scalar tree_4_3_u04_r14_network.node[7].content_store 	hits[7] 	2787
scalar tree_4_3_u04_r14_network.node[7].content_store 	misses[7] 	31978
scalar tree_4_3_u04_r14_network.node[7].content_store 	decision_yes[7] 	88
scalar tree_4_3_u04_r14_network.node[7].content_store 	decision_no[7] 	31889
scalar tree_4_3_u04_r14_network.node[7].content_store 	decision_ratio[7] 	0.0027519779841761
scalar tree_4_3_u04_r14_network.node[8].core_layer 	interests[8] 	26462
scalar tree_4_3_u04_r14_network.node[8].core_layer 	data[8] 	24569
scalar tree_4_3_u04_r14_network.node[8].content_store 	p_hit[8] 	0.071536542967274
scalar tree_4_3_u04_r14_network.node[8].content_store 	hits[8] 	1893
scalar tree_4_3_u04_r14_network.node[8].content_store 	misses[8] 	24569
scalar tree_4_3_u04_r14_network.node[8].content_store 	decision_yes[8] 	80
scalar tree_4_3_u04_r14_network.node[8].content_store 	decision_no[8] 	24489
scalar tree_4_3_u04_r14_network.node[8].content_store 	decision_ratio[8] 	0.0032561357808621
scalar tree_4_3_u04_r14_network.node[9].core_layer 	interests[9] 	19051
scalar tree_4_3_u04_r14_network.node[9].core_layer 	data[9] 	16763
scalar tree_4_3_u04_r14_network.node[9].content_store 	p_hit[9] 	0.12009868248386
scalar tree_4_3_u04_r14_network.node[9].content_store 	hits[9] 	2288
scalar tree_4_3_u04_r14_network.node[9].content_store 	misses[9] 	16763
scalar tree_4_3_u04_r14_network.node[9].content_store 	decision_yes[9] 	67
scalar tree_4_3_u04_r14_network.node[9].content_store 	decision_no[9] 	16696
scalar tree_4_3_u04_r14_network.node[9].content_store 	decision_ratio[9] 	0.0039968979299648
scalar tree_4_3_u04_r14_network.node[10].core_layer 	interests[10] 	26990
scalar tree_4_3_u04_r14_network.node[10].core_layer 	data[10] 	24598
scalar tree_4_3_u04_r14_network.node[10].content_store 	p_hit[10] 	0.088588366061504
scalar tree_4_3_u04_r14_network.node[10].content_store 	hits[10] 	2391
scalar tree_4_3_u04_r14_network.node[10].content_store 	misses[10] 	24599
scalar tree_4_3_u04_r14_network.node[10].content_store 	decision_yes[10] 	89
scalar tree_4_3_u04_r14_network.node[10].content_store 	decision_no[10] 	24509
scalar tree_4_3_u04_r14_network.node[10].content_store 	decision_ratio[10] 	0.003618180339865
scalar tree_4_3_u04_r14_network.node[11].core_layer 	interests[11] 	26618
scalar tree_4_3_u04_r14_network.node[11].core_layer 	data[11] 	24776
scalar tree_4_3_u04_r14_network.node[11].content_store 	p_hit[11] 	0.069201292358554
scalar tree_4_3_u04_r14_network.node[11].content_store 	hits[11] 	1842
scalar tree_4_3_u04_r14_network.node[11].content_store 	misses[11] 	24776
scalar tree_4_3_u04_r14_network.node[11].content_store 	decision_yes[11] 	61
scalar tree_4_3_u04_r14_network.node[11].content_store 	decision_no[11] 	24715
scalar tree_4_3_u04_r14_network.node[11].content_store 	decision_ratio[11] 	0.0024620600581208
scalar tree_4_3_u04_r14_network.node[12].core_layer 	interests[12] 	26192
scalar tree_4_3_u04_r14_network.node[12].core_layer 	data[12] 	24543
scalar tree_4_3_u04_r14_network.node[12].content_store 	p_hit[12] 	0.062919975565058
scalar tree_4_3_u04_r14_network.node[12].content_store 	hits[12] 	1648
scalar tree_4_3_u04_r14_network.node[12].content_store 	misses[12] 	24544
scalar tree_4_3_u04_r14_network.node[12].content_store 	decision_yes[12] 	58
scalar tree_4_3_u04_r14_network.node[12].content_store 	decision_no[12] 	24485
scalar tree_4_3_u04_r14_network.node[12].content_store 	decision_ratio[12] 	0.0023631992828913
scalar tree_4_3_u04_r14_network.node[13].core_layer 	interests[13] 	12005
scalar tree_4_3_u04_r14_network.node[13].core_layer 	data[13] 	8581
scalar tree_4_3_u04_r14_network.node[13].content_store 	p_hit[13] 	0.28513119533528
scalar tree_4_3_u04_r14_network.node[13].content_store 	hits[13] 	3423
scalar tree_4_3_u04_r14_network.node[13].content_store 	misses[13] 	8582
scalar tree_4_3_u04_r14_network.node[13].content_store 	decision_yes[13] 	19
scalar tree_4_3_u04_r14_network.node[13].content_store 	decision_no[13] 	8562
scalar tree_4_3_u04_r14_network.node[13].content_store 	decision_ratio[13] 	0.002214194149866
scalar tree_4_3_u04_r14_network.node[14].core_layer 	interests[14] 	12504
scalar tree_4_3_u04_r14_network.node[14].core_layer 	data[14] 	8686
scalar tree_4_3_u04_r14_network.node[14].content_store 	p_hit[14] 	0.30542226487524
scalar tree_4_3_u04_r14_network.node[14].content_store 	hits[14] 	3819
scalar tree_4_3_u04_r14_network.node[14].content_store 	misses[14] 	8685
scalar tree_4_3_u04_r14_network.node[14].content_store 	decision_yes[14] 	45
scalar tree_4_3_u04_r14_network.node[14].content_store 	decision_no[14] 	8641
scalar tree_4_3_u04_r14_network.node[14].content_store 	decision_ratio[14] 	0.0051807506332029
scalar tree_4_3_u04_r14_network.node[15].core_layer 	interests[15] 	12413
scalar tree_4_3_u04_r14_network.node[15].core_layer 	data[15] 	8660
scalar tree_4_3_u04_r14_network.node[15].content_store 	p_hit[15] 	0.30226375573995
scalar tree_4_3_u04_r14_network.node[15].content_store 	hits[15] 	3752
scalar tree_4_3_u04_r14_network.node[15].content_store 	misses[15] 	8661
scalar tree_4_3_u04_r14_network.node[15].content_store 	decision_yes[15] 	43
scalar tree_4_3_u04_r14_network.node[15].content_store 	decision_no[15] 	8617
scalar tree_4_3_u04_r14_network.node[15].content_store 	decision_ratio[15] 	0.0049653579676674
scalar tree_4_3_u04_r14_network.node[16].core_layer 	interests[16] 	12538
scalar tree_4_3_u04_r14_network.node[16].core_layer 	data[16] 	8741
scalar tree_4_3_u04_r14_network.node[16].content_store 	p_hit[16] 	0.30283936832031
scalar tree_4_3_u04_r14_network.node[16].content_store 	hits[16] 	3797
scalar tree_4_3_u04_r14_network.node[16].content_store 	misses[16] 	8741
scalar tree_4_3_u04_r14_network.node[16].content_store 	decision_yes[16] 	49
scalar tree_4_3_u04_r14_network.node[16].content_store 	decision_no[16] 	8692
scalar tree_4_3_u04_r14_network.node[16].content_store 	decision_ratio[16] 	0.0056057659306715
scalar tree_4_3_u04_r14_network.node[17].core_layer 	interests[17] 	12206
scalar tree_4_3_u04_r14_network.node[17].core_layer 	data[17] 	8643
scalar tree_4_3_u04_r14_network.node[17].content_store 	p_hit[17] 	0.29182369326561
scalar tree_4_3_u04_r14_network.node[17].content_store 	hits[17] 	3562
scalar tree_4_3_u04_r14_network.node[17].content_store 	misses[17] 	8644
scalar tree_4_3_u04_r14_network.node[17].content_store 	decision_yes[17] 	26
scalar tree_4_3_u04_r14_network.node[17].content_store 	decision_no[17] 	8617
scalar tree_4_3_u04_r14_network.node[17].content_store 	decision_ratio[17] 	0.0030082147402522
scalar tree_4_3_u04_r14_network.node[18].core_layer 	interests[18] 	12085
scalar tree_4_3_u04_r14_network.node[18].core_layer 	data[18] 	8552
scalar tree_4_3_u04_r14_network.node[18].content_store 	p_hit[18] 	0.29234588332644
scalar tree_4_3_u04_r14_network.node[18].content_store 	hits[18] 	3533
scalar tree_4_3_u04_r14_network.node[18].content_store 	misses[18] 	8552
scalar tree_4_3_u04_r14_network.node[18].content_store 	decision_yes[18] 	34
scalar tree_4_3_u04_r14_network.node[18].content_store 	decision_no[18] 	8518
scalar tree_4_3_u04_r14_network.node[18].content_store 	decision_ratio[18] 	0.0039756782039289
scalar tree_4_3_u04_r14_network.node[19].core_layer 	interests[19] 	12099
scalar tree_4_3_u04_r14_network.node[19].core_layer 	data[19] 	8594
scalar tree_4_3_u04_r14_network.node[19].content_store 	p_hit[19] 	0.28985866600546
scalar tree_4_3_u04_r14_network.node[19].content_store 	hits[19] 	3507
scalar tree_4_3_u04_r14_network.node[19].content_store 	misses[19] 	8592
scalar tree_4_3_u04_r14_network.node[19].content_store 	decision_yes[19] 	25
scalar tree_4_3_u04_r14_network.node[19].content_store 	decision_no[19] 	8569
scalar tree_4_3_u04_r14_network.node[19].content_store 	decision_ratio[19] 	0.0029090062834536
scalar tree_4_3_u04_r14_network.node[20].core_layer 	interests[20] 	12623
scalar tree_4_3_u04_r14_network.node[20].core_layer 	data[20] 	8786
scalar tree_4_3_u04_r14_network.node[20].content_store 	p_hit[20] 	0.30396894557554
scalar tree_4_3_u04_r14_network.node[20].content_store 	hits[20] 	3837
scalar tree_4_3_u04_r14_network.node[20].content_store 	misses[20] 	8786
scalar tree_4_3_u04_r14_network.node[20].content_store 	decision_yes[20] 	44
scalar tree_4_3_u04_r14_network.node[20].content_store 	decision_no[20] 	8742
scalar tree_4_3_u04_r14_network.node[20].content_store 	decision_ratio[20] 	0.0050079672205782
scalar tree_4_3_u04_r14_network.node[21].core_layer 	interests[21] 	12058
scalar tree_4_3_u04_r14_network.node[21].core_layer 	data[21] 	8483
scalar tree_4_3_u04_r14_network.node[21].content_store 	p_hit[21] 	0.29648366229889
scalar tree_4_3_u04_r14_network.node[21].content_store 	hits[21] 	3575
scalar tree_4_3_u04_r14_network.node[21].content_store 	misses[21] 	8483
scalar tree_4_3_u04_r14_network.node[21].content_store 	decision_yes[21] 	26
scalar tree_4_3_u04_r14_network.node[21].content_store 	decision_no[21] 	8457
scalar tree_4_3_u04_r14_network.node[21].content_store 	decision_ratio[21] 	0.0030649534362843
scalar tree_4_3_u04_r14_network.node[22].core_layer 	interests[22] 	12134
scalar tree_4_3_u04_r14_network.node[22].core_layer 	data[22] 	8565
scalar tree_4_3_u04_r14_network.node[22].content_store 	p_hit[22] 	0.29413219053898
scalar tree_4_3_u04_r14_network.node[22].content_store 	hits[22] 	3569
scalar tree_4_3_u04_r14_network.node[22].content_store 	misses[22] 	8565
scalar tree_4_3_u04_r14_network.node[22].content_store 	decision_yes[22] 	28
scalar tree_4_3_u04_r14_network.node[22].content_store 	decision_no[22] 	8537
scalar tree_4_3_u04_r14_network.node[22].content_store 	decision_ratio[22] 	0.0032691185055458
scalar tree_4_3_u04_r14_network.node[23].core_layer 	interests[23] 	12543
scalar tree_4_3_u04_r14_network.node[23].core_layer 	data[23] 	8774
scalar tree_4_3_u04_r14_network.node[23].content_store 	p_hit[23] 	0.300486327035
scalar tree_4_3_u04_r14_network.node[23].content_store 	hits[23] 	3769
scalar tree_4_3_u04_r14_network.node[23].content_store 	misses[23] 	8774
scalar tree_4_3_u04_r14_network.node[23].content_store 	decision_yes[23] 	47
scalar tree_4_3_u04_r14_network.node[23].content_store 	decision_no[23] 	8727
scalar tree_4_3_u04_r14_network.node[23].content_store 	decision_ratio[23] 	0.0053567358103488
scalar tree_4_3_u04_r14_network.node[24].core_layer 	interests[24] 	12215
scalar tree_4_3_u04_r14_network.node[24].core_layer 	data[24] 	8532
scalar tree_4_3_u04_r14_network.node[24].content_store 	p_hit[24] 	0.30151453131396
scalar tree_4_3_u04_r14_network.node[24].content_store 	hits[24] 	3683
scalar tree_4_3_u04_r14_network.node[24].content_store 	misses[24] 	8532
scalar tree_4_3_u04_r14_network.node[24].content_store 	decision_yes[24] 	11
scalar tree_4_3_u04_r14_network.node[24].content_store 	decision_no[24] 	8521
scalar tree_4_3_u04_r14_network.node[24].content_store 	decision_ratio[24] 	0.0012892639474918
scalar tree_4_3_u04_r14_network.node[25].core_layer 	interests[25] 	12249
scalar tree_4_3_u04_r14_network.node[25].core_layer 	data[25] 	8707
scalar tree_4_3_u04_r14_network.node[25].content_store 	p_hit[25] 	0.28916646256837
scalar tree_4_3_u04_r14_network.node[25].content_store 	hits[25] 	3542
scalar tree_4_3_u04_r14_network.node[25].content_store 	misses[25] 	8707
scalar tree_4_3_u04_r14_network.node[25].content_store 	decision_yes[25] 	24
scalar tree_4_3_u04_r14_network.node[25].content_store 	decision_no[25] 	8683
scalar tree_4_3_u04_r14_network.node[25].content_store 	decision_ratio[25] 	0.002756402894223
scalar tree_4_3_u04_r14_network.node[26].core_layer 	interests[26] 	11884
scalar tree_4_3_u04_r14_network.node[26].core_layer 	data[26] 	8373
scalar tree_4_3_u04_r14_network.node[26].content_store 	p_hit[26] 	0.2954392460451
scalar tree_4_3_u04_r14_network.node[26].content_store 	hits[26] 	3511
scalar tree_4_3_u04_r14_network.node[26].content_store 	misses[26] 	8373
scalar tree_4_3_u04_r14_network.node[26].content_store 	decision_yes[26] 	32
scalar tree_4_3_u04_r14_network.node[26].content_store 	decision_no[26] 	8341
scalar tree_4_3_u04_r14_network.node[26].content_store 	decision_ratio[26] 	0.0038218081930013
scalar tree_4_3_u04_r14_network.node[27].core_layer 	interests[27] 	12197
scalar tree_4_3_u04_r14_network.node[27].core_layer 	data[27] 	8687
scalar tree_4_3_u04_r14_network.node[27].content_store 	p_hit[27] 	0.28777568254489
scalar tree_4_3_u04_r14_network.node[27].content_store 	hits[27] 	3510
scalar tree_4_3_u04_r14_network.node[27].content_store 	misses[27] 	8687
scalar tree_4_3_u04_r14_network.node[27].content_store 	decision_yes[27] 	30
scalar tree_4_3_u04_r14_network.node[27].content_store 	decision_no[27] 	8657
scalar tree_4_3_u04_r14_network.node[27].content_store 	decision_ratio[27] 	0.0034534361689881
scalar tree_4_3_u04_r14_network.node[28].core_layer 	interests[28] 	12516
scalar tree_4_3_u04_r14_network.node[28].core_layer 	data[28] 	8727
scalar tree_4_3_u04_r14_network.node[28].content_store 	p_hit[28] 	0.30265260466603
scalar tree_4_3_u04_r14_network.node[28].content_store 	hits[28] 	3788
scalar tree_4_3_u04_r14_network.node[28].content_store 	misses[28] 	8728
scalar tree_4_3_u04_r14_network.node[28].content_store 	decision_yes[28] 	29
scalar tree_4_3_u04_r14_network.node[28].content_store 	decision_no[28] 	8698
scalar tree_4_3_u04_r14_network.node[28].content_store 	decision_ratio[28] 	0.0033230205110576
scalar tree_4_3_u04_r14_network.node[29].core_layer 	interests[29] 	12264
scalar tree_4_3_u04_r14_network.node[29].core_layer 	data[29] 	8738
scalar tree_4_3_u04_r14_network.node[29].content_store 	p_hit[29] 	0.28750815394651
scalar tree_4_3_u04_r14_network.node[29].content_store 	hits[29] 	3526
scalar tree_4_3_u04_r14_network.node[29].content_store 	misses[29] 	8738
scalar tree_4_3_u04_r14_network.node[29].content_store 	decision_yes[29] 	27
scalar tree_4_3_u04_r14_network.node[29].content_store 	decision_no[29] 	8711
scalar tree_4_3_u04_r14_network.node[29].content_store 	decision_ratio[29] 	0.003089951934081
scalar tree_4_3_u04_r14_network.node[30].core_layer 	interests[30] 	12177
scalar tree_4_3_u04_r14_network.node[30].core_layer 	data[30] 	8634
scalar tree_4_3_u04_r14_network.node[30].content_store 	p_hit[30] 	0.2909583641291
scalar tree_4_3_u04_r14_network.node[30].content_store 	hits[30] 	3543
scalar tree_4_3_u04_r14_network.node[30].content_store 	misses[30] 	8634
scalar tree_4_3_u04_r14_network.node[30].content_store 	decision_yes[30] 	22
scalar tree_4_3_u04_r14_network.node[30].content_store 	decision_no[30] 	8612
scalar tree_4_3_u04_r14_network.node[30].content_store 	decision_ratio[30] 	0.0025480657864258
scalar tree_4_3_u04_r14_network.node[31].core_layer 	interests[31] 	12220
scalar tree_4_3_u04_r14_network.node[31].core_layer 	data[31] 	8580
scalar tree_4_3_u04_r14_network.node[31].content_store 	p_hit[31] 	0.29787234042553
scalar tree_4_3_u04_r14_network.node[31].content_store 	hits[31] 	3640
scalar tree_4_3_u04_r14_network.node[31].content_store 	misses[31] 	8580
scalar tree_4_3_u04_r14_network.node[31].content_store 	decision_yes[31] 	20
scalar tree_4_3_u04_r14_network.node[31].content_store 	decision_no[31] 	8560
scalar tree_4_3_u04_r14_network.node[31].content_store 	decision_ratio[31] 	0.0023310023310023
scalar tree_4_3_u04_r14_network.node[32].core_layer 	interests[32] 	12079
scalar tree_4_3_u04_r14_network.node[32].core_layer 	data[32] 	8568
scalar tree_4_3_u04_r14_network.node[32].content_store 	p_hit[32] 	0.29058696911996
scalar tree_4_3_u04_r14_network.node[32].content_store 	hits[32] 	3510
scalar tree_4_3_u04_r14_network.node[32].content_store 	misses[32] 	8569
scalar tree_4_3_u04_r14_network.node[32].content_store 	decision_yes[32] 	33
scalar tree_4_3_u04_r14_network.node[32].content_store 	decision_no[32] 	8535
scalar tree_4_3_u04_r14_network.node[32].content_store 	decision_ratio[32] 	0.0038515406162465
scalar tree_4_3_u04_r14_network.node[33].core_layer 	interests[33] 	12334
scalar tree_4_3_u04_r14_network.node[33].core_layer 	data[33] 	8646
scalar tree_4_3_u04_r14_network.node[33].content_store 	p_hit[33] 	0.29901086427761
scalar tree_4_3_u04_r14_network.node[33].content_store 	hits[33] 	3688
scalar tree_4_3_u04_r14_network.node[33].content_store 	misses[33] 	8646
scalar tree_4_3_u04_r14_network.node[33].content_store 	decision_yes[33] 	19
scalar tree_4_3_u04_r14_network.node[33].content_store 	decision_no[33] 	8627
scalar tree_4_3_u04_r14_network.node[33].content_store 	decision_ratio[33] 	0.0021975479990747
scalar tree_4_3_u04_r14_network.node[34].core_layer 	interests[34] 	12457
scalar tree_4_3_u04_r14_network.node[34].core_layer 	data[34] 	8784
scalar tree_4_3_u04_r14_network.node[34].content_store 	p_hit[34] 	0.29485429878783
scalar tree_4_3_u04_r14_network.node[34].content_store 	hits[34] 	3673
scalar tree_4_3_u04_r14_network.node[34].content_store 	misses[34] 	8784
scalar tree_4_3_u04_r14_network.node[34].content_store 	decision_yes[34] 	29
scalar tree_4_3_u04_r14_network.node[34].content_store 	decision_no[34] 	8755
scalar tree_4_3_u04_r14_network.node[34].content_store 	decision_ratio[34] 	0.0033014571948998
scalar tree_4_3_u04_r14_network.node[35].core_layer 	interests[35] 	12304
scalar tree_4_3_u04_r14_network.node[35].core_layer 	data[35] 	8698
scalar tree_4_3_u04_r14_network.node[35].content_store 	p_hit[35] 	0.29307542262679
scalar tree_4_3_u04_r14_network.node[35].content_store 	hits[35] 	3606
scalar tree_4_3_u04_r14_network.node[35].content_store 	misses[35] 	8698
scalar tree_4_3_u04_r14_network.node[35].content_store 	decision_yes[35] 	24
scalar tree_4_3_u04_r14_network.node[35].content_store 	decision_no[35] 	8674
scalar tree_4_3_u04_r14_network.node[35].content_store 	decision_ratio[35] 	0.0027592550011497
scalar tree_4_3_u04_r14_network.node[36].core_layer 	interests[36] 	12299
scalar tree_4_3_u04_r14_network.node[36].core_layer 	data[36] 	8672
scalar tree_4_3_u04_r14_network.node[36].content_store 	p_hit[36] 	0.29490202455484
scalar tree_4_3_u04_r14_network.node[36].content_store 	hits[36] 	3627
scalar tree_4_3_u04_r14_network.node[36].content_store 	misses[36] 	8672
scalar tree_4_3_u04_r14_network.node[36].content_store 	decision_yes[36] 	24
scalar tree_4_3_u04_r14_network.node[36].content_store 	decision_no[36] 	8648
scalar tree_4_3_u04_r14_network.node[36].content_store 	decision_ratio[36] 	0.0027675276752768
scalar tree_4_3_u04_r14_network.node[37].core_layer 	interests[37] 	12111
scalar tree_4_3_u04_r14_network.node[37].core_layer 	data[37] 	8578
scalar tree_4_3_u04_r14_network.node[37].content_store 	p_hit[37] 	0.2917182726447
scalar tree_4_3_u04_r14_network.node[37].content_store 	hits[37] 	3533
scalar tree_4_3_u04_r14_network.node[37].content_store 	misses[37] 	8578
scalar tree_4_3_u04_r14_network.node[37].content_store 	decision_yes[37] 	22
scalar tree_4_3_u04_r14_network.node[37].content_store 	decision_no[37] 	8556
scalar tree_4_3_u04_r14_network.node[37].content_store 	decision_ratio[37] 	0.0025647003963628
scalar tree_4_3_u04_r14_network.node[38].core_layer 	interests[38] 	12257
scalar tree_4_3_u04_r14_network.node[38].core_layer 	data[38] 	8673
scalar tree_4_3_u04_r14_network.node[38].content_store 	p_hit[38] 	0.29232275434446
scalar tree_4_3_u04_r14_network.node[38].content_store 	hits[38] 	3583
scalar tree_4_3_u04_r14_network.node[38].content_store 	misses[38] 	8674
scalar tree_4_3_u04_r14_network.node[38].content_store 	decision_yes[38] 	22
scalar tree_4_3_u04_r14_network.node[38].content_store 	decision_no[38] 	8651
scalar tree_4_3_u04_r14_network.node[38].content_store 	decision_ratio[38] 	0.0025366078634844
scalar tree_4_3_u04_r14_network.node[39].core_layer 	interests[39] 	12096
scalar tree_4_3_u04_r14_network.node[39].core_layer 	data[39] 	8610
scalar tree_4_3_u04_r14_network.node[39].content_store 	p_hit[39] 	0.28819444444444
scalar tree_4_3_u04_r14_network.node[39].content_store 	hits[39] 	3486
scalar tree_4_3_u04_r14_network.node[39].content_store 	misses[39] 	8610
scalar tree_4_3_u04_r14_network.node[39].content_store 	decision_yes[39] 	32
scalar tree_4_3_u04_r14_network.node[39].content_store 	decision_no[39] 	8578
scalar tree_4_3_u04_r14_network.node[39].content_store 	decision_ratio[39] 	0.0037166085946574
scalar tree_4_3_u04_r14_network.client[13] 	hdistance[13] 	2.6492643968054
scalar tree_4_3_u04_r14_network.client[13] 	downloads[13] 	11895
scalar tree_4_3_u04_r14_network.client[13] 	avg_time[13] 	0.004102897423
scalar tree_4_3_u04_r14_network.client[14] 	hdistance[14] 	2.5811526995694
scalar tree_4_3_u04_r14_network.client[14] 	downloads[14] 	12076
scalar tree_4_3_u04_r14_network.client[14] 	avg_time[14] 	0.003982772711
scalar tree_4_3_u04_r14_network.client[15] 	hdistance[15] 	2.5988937311431
scalar tree_4_3_u04_r14_network.client[15] 	downloads[15] 	11932
scalar tree_4_3_u04_r14_network.client[15] 	avg_time[15] 	0.004013804165
scalar tree_4_3_u04_r14_network.client[16] 	hdistance[16] 	2.5933438198526
scalar tree_4_3_u04_r14_network.client[16] 	downloads[16] 	12079
scalar tree_4_3_u04_r14_network.client[16] 	avg_time[16] 	0.004002977379
scalar tree_4_3_u04_r14_network.client[17] 	hdistance[17] 	2.6444758031045
scalar tree_4_3_u04_r14_network.client[17] 	downloads[17] 	12047
scalar tree_4_3_u04_r14_network.client[17] 	avg_time[17] 	0.004087733414
scalar tree_4_3_u04_r14_network.client[18] 	hdistance[18] 	2.6271627750714
scalar tree_4_3_u04_r14_network.client[18] 	downloads[18] 	11906
scalar tree_4_3_u04_r14_network.client[18] 	avg_time[18] 	0.00407088564
scalar tree_4_3_u04_r14_network.client[19] 	hdistance[19] 	2.6197785606442
scalar tree_4_3_u04_r14_network.client[19] 	downloads[19] 	11922
scalar tree_4_3_u04_r14_network.client[19] 	avg_time[19] 	0.004058712008
scalar tree_4_3_u04_r14_network.client[20] 	hdistance[20] 	2.5966846249482
scalar tree_4_3_u04_r14_network.client[20] 	downloads[20] 	12065
scalar tree_4_3_u04_r14_network.client[20] 	avg_time[20] 	0.004011399115
scalar tree_4_3_u04_r14_network.client[21] 	hdistance[21] 	2.6085967130215
scalar tree_4_3_u04_r14_network.client[21] 	downloads[21] 	11865
scalar tree_4_3_u04_r14_network.client[21] 	avg_time[21] 	0.004034215326
scalar tree_4_3_u04_r14_network.client[22] 	hdistance[22] 	2.6129924559933
scalar tree_4_3_u04_r14_network.client[22] 	downloads[22] 	11930
scalar tree_4_3_u04_r14_network.client[22] 	avg_time[22] 	0.004053978576
scalar tree_4_3_u04_r14_network.client[23] 	hdistance[23] 	2.6048662611449
scalar tree_4_3_u04_r14_network.client[23] 	downloads[23] 	12001
scalar tree_4_3_u04_r14_network.client[23] 	avg_time[23] 	0.004029994485
scalar tree_4_3_u04_r14_network.client[24] 	hdistance[24] 	2.5934587217044
scalar tree_4_3_u04_r14_network.client[24] 	downloads[24] 	12016
scalar tree_4_3_u04_r14_network.client[24] 	avg_time[24] 	0.004018472363
scalar tree_4_3_u04_r14_network.client[25] 	hdistance[25] 	2.6579274869327
scalar tree_4_3_u04_r14_network.client[25] 	downloads[25] 	12053
scalar tree_4_3_u04_r14_network.client[25] 	avg_time[25] 	0.004096736371
scalar tree_4_3_u04_r14_network.client[26] 	hdistance[26] 	2.6443263627014
scalar tree_4_3_u04_r14_network.client[26] 	downloads[26] 	11668
scalar tree_4_3_u04_r14_network.client[26] 	avg_time[26] 	0.004071646033
scalar tree_4_3_u04_r14_network.client[27] 	hdistance[27] 	2.68071988002
scalar tree_4_3_u04_r14_network.client[27] 	downloads[27] 	12002
scalar tree_4_3_u04_r14_network.client[27] 	avg_time[27] 	0.004125976011
scalar tree_4_3_u04_r14_network.client[28] 	hdistance[28] 	2.5913181136477
scalar tree_4_3_u04_r14_network.client[28] 	downloads[28] 	12002
scalar tree_4_3_u04_r14_network.client[28] 	avg_time[28] 	0.00400599603
scalar tree_4_3_u04_r14_network.client[29] 	hdistance[29] 	2.6265388746592
scalar tree_4_3_u04_r14_network.client[29] 	downloads[29] 	12103
scalar tree_4_3_u04_r14_network.client[29] 	avg_time[29] 	0.00406527003
scalar tree_4_3_u04_r14_network.client[30] 	hdistance[30] 	2.6290954564402
scalar tree_4_3_u04_r14_network.client[30] 	downloads[30] 	11995
scalar tree_4_3_u04_r14_network.client[30] 	avg_time[30] 	0.004065357579
scalar tree_4_3_u04_r14_network.client[31] 	hdistance[31] 	2.6266274674507
scalar tree_4_3_u04_r14_network.client[31] 	downloads[31] 	11905
scalar tree_4_3_u04_r14_network.client[31] 	avg_time[31] 	0.004070219606
scalar tree_4_3_u04_r14_network.client[32] 	hdistance[32] 	2.6349233245785
scalar tree_4_3_u04_r14_network.client[32] 	downloads[32] 	11803
scalar tree_4_3_u04_r14_network.client[32] 	avg_time[32] 	0.004087601853
scalar tree_4_3_u04_r14_network.client[33] 	hdistance[33] 	2.6212032953316
scalar tree_4_3_u04_r14_network.client[33] 	downloads[33] 	12017
scalar tree_4_3_u04_r14_network.client[33] 	avg_time[33] 	0.00406490509
scalar tree_4_3_u04_r14_network.client[34] 	hdistance[34] 	2.6427057864711
scalar tree_4_3_u04_r14_network.client[34] 	downloads[34] 	12270
scalar tree_4_3_u04_r14_network.client[34] 	avg_time[34] 	0.004068782596
scalar tree_4_3_u04_r14_network.client[35] 	hdistance[35] 	2.6475004124732
scalar tree_4_3_u04_r14_network.client[35] 	downloads[35] 	12122
scalar tree_4_3_u04_r14_network.client[35] 	avg_time[35] 	0.00407655197
scalar tree_4_3_u04_r14_network.client[36] 	hdistance[36] 	2.650622406639
scalar tree_4_3_u04_r14_network.client[36] 	downloads[36] 	12050
scalar tree_4_3_u04_r14_network.client[36] 	avg_time[36] 	0.00408447834
scalar tree_4_3_u04_r14_network.client[37] 	hdistance[37] 	2.6486734523611
scalar tree_4_3_u04_r14_network.client[37] 	downloads[37] 	11986
scalar tree_4_3_u04_r14_network.client[37] 	avg_time[37] 	0.004083594568
scalar tree_4_3_u04_r14_network.client[38] 	hdistance[38] 	2.6571570329943
scalar tree_4_3_u04_r14_network.client[38] 	downloads[38] 	12093
scalar tree_4_3_u04_r14_network.client[38] 	avg_time[38] 	0.004092447177
scalar tree_4_3_u04_r14_network.client[39] 	hdistance[39] 	2.6604989953115
scalar tree_4_3_u04_r14_network.client[39] 	downloads[39] 	11944
scalar tree_4_3_u04_r14_network.client[39] 	avg_time[39] 	0.004104484637
