version 2
run General-266-20160901-02:56:38-8710
attr a 0.9
attr cd tfc
attr configname General
attr cr lru
attr datetime 20160901-02:56:38
attr experiment General
attr fsize 1
attr inifile hw5115/scenario_Y/omnetp.ini
attr iterationvars "$name=tree_4_3, $un=04, $rep=9, $cd=tfc, $cr=lru, $fsize=1, $a=0.9, $sl=nrr, $ttl=1000, $variance=0.05"
attr iterationvars2 "$name=tree_4_3, $un=04, $rep=9, $cd=tfc, $cr=lru, $fsize=1, $a=0.9, $sl=nrr, $ttl=1000, $variance=0.05, $repetition=0"
attr measurement "$name=tree_4_3, $un=04, $rep=9, $cd=tfc, $cr=lru, $fsize=1, $a=0.9, $sl=nrr, $ttl=1000, $variance=0.05"
attr name tree_4_3
attr network networks.${name}_u${un}_r${rep}_network
attr processid 8710
attr rep 9
attr repetition 0
attr replication #0
attr resultdir results
attr runnumber 266
attr seedset 9
attr sl nrr
attr ttl 1000
attr un 04
attr variance 0.05

scalar . 	a 	0.9
scalar . 	fsize 	1
scalar . 	rep 	9
scalar . 	ttl 	1000
scalar . 	un 	04
scalar . 	variance 	0.05
scalar tree_4_3_u04_r9_network.content_distribution 	repo-0 	0
scalar tree_4_3_u04_r9_network.content_distribution 	client-0 	13
scalar tree_4_3_u04_r9_network.content_distribution 	client-1 	14
scalar tree_4_3_u04_r9_network.content_distribution 	client-2 	15
scalar tree_4_3_u04_r9_network.content_distribution 	client-3 	16
scalar tree_4_3_u04_r9_network.content_distribution 	client-4 	17
scalar tree_4_3_u04_r9_network.content_distribution 	client-5 	18
scalar tree_4_3_u04_r9_network.content_distribution 	client-6 	19
scalar tree_4_3_u04_r9_network.content_distribution 	client-7 	20
scalar tree_4_3_u04_r9_network.content_distribution 	client-8 	21
scalar tree_4_3_u04_r9_network.content_distribution 	client-9 	22
scalar tree_4_3_u04_r9_network.content_distribution 	client-10 	23
scalar tree_4_3_u04_r9_network.content_distribution 	client-11 	24
scalar tree_4_3_u04_r9_network.content_distribution 	client-12 	25
scalar tree_4_3_u04_r9_network.content_distribution 	client-13 	26
scalar tree_4_3_u04_r9_network.content_distribution 	client-14 	27
scalar tree_4_3_u04_r9_network.content_distribution 	client-15 	28
scalar tree_4_3_u04_r9_network.content_distribution 	client-16 	29
scalar tree_4_3_u04_r9_network.content_distribution 	client-17 	30
scalar tree_4_3_u04_r9_network.content_distribution 	client-18 	31
scalar tree_4_3_u04_r9_network.content_distribution 	client-19 	32
scalar tree_4_3_u04_r9_network.content_distribution 	client-20 	33
scalar tree_4_3_u04_r9_network.content_distribution 	client-21 	34
scalar tree_4_3_u04_r9_network.content_distribution 	client-22 	35
scalar tree_4_3_u04_r9_network.content_distribution 	client-23 	36
scalar tree_4_3_u04_r9_network.content_distribution 	client-24 	37
scalar tree_4_3_u04_r9_network.content_distribution 	client-25 	38
scalar tree_4_3_u04_r9_network.content_distribution 	client-26 	39
scalar tree_4_3_u04_r9_network.content_distribution 	repo-0_card 	100000
scalar tree_4_3_u04_r9_network.content_distribution 	repo-0_price 	0
scalar tree_4_3_u04_r9_network.statistics 	stabilization_time 	1835.6
scalar tree_4_3_u04_r9_network.statistics 	p_hit 	0.22121722120772
scalar tree_4_3_u04_r9_network.statistics 	interests 	24471.35
scalar tree_4_3_u04_r9_network.statistics 	data 	16394.75
scalar tree_4_3_u04_r9_network.statistics 	hdistance 	2.6339594579195
scalar tree_4_3_u04_r9_network.statistics 	avg_time 	0.004059930476
scalar tree_4_3_u04_r9_network.statistics 	downloads 	323064
scalar tree_4_3_u04_r9_network.statistics 	total_cost 	0
scalar tree_4_3_u04_r9_network.statistics 	total_replicas 	100000
scalar tree_4_3_u04_r9_network.statistics 	inner_hit 	0.39607631924325
scalar tree_4_3_u04_r9_network.node[0].core_layer 	interests[0] 	198810
scalar tree_4_3_u04_r9_network.node[0].core_layer 	repo_load[0] 	195106
scalar tree_4_3_u04_r9_network.node[0].core_layer 	data[0] 	0
scalar tree_4_3_u04_r9_network.node[0].core_layer 	repo_int[0] 	195106
scalar tree_4_3_u04_r9_network.node[0].content_store 	p_hit[0] 	0.018630853578794
scalar tree_4_3_u04_r9_network.node[0].content_store 	hits[0] 	3704
scalar tree_4_3_u04_r9_network.node[0].content_store 	misses[0] 	195106
scalar tree_4_3_u04_r9_network.node[0].content_store 	decision_yes[0] 	988
scalar tree_4_3_u04_r9_network.node[0].content_store 	decision_no[0] 	194118
scalar tree_4_3_u04_r9_network.node[0].content_store 	decision_ratio[0] 	0.0050639139749675
scalar tree_4_3_u04_r9_network.node[1].core_layer 	interests[1] 	123480
scalar tree_4_3_u04_r9_network.node[1].core_layer 	data[1] 	119883
scalar tree_4_3_u04_r9_network.node[1].content_store 	p_hit[1] 	0.029097829608034
scalar tree_4_3_u04_r9_network.node[1].content_store 	hits[1] 	3593
scalar tree_4_3_u04_r9_network.node[1].content_store 	misses[1] 	119887
scalar tree_4_3_u04_r9_network.node[1].content_store 	decision_yes[1] 	151
scalar tree_4_3_u04_r9_network.node[1].content_store 	decision_no[1] 	119732
scalar tree_4_3_u04_r9_network.node[1].content_store 	decision_ratio[1] 	0.0012595614057039
scalar tree_4_3_u04_r9_network.node[2].core_layer 	interests[2] 	48048
scalar tree_4_3_u04_r9_network.node[2].core_layer 	data[2] 	46225
scalar tree_4_3_u04_r9_network.node[2].content_store 	p_hit[2] 	0.037941225441225
scalar tree_4_3_u04_r9_network.node[2].content_store 	hits[2] 	1823
scalar tree_4_3_u04_r9_network.node[2].content_store 	misses[2] 	46225
scalar tree_4_3_u04_r9_network.node[2].content_store 	decision_yes[2] 	46
scalar tree_4_3_u04_r9_network.node[2].content_store 	decision_no[2] 	46179
scalar tree_4_3_u04_r9_network.node[2].content_store 	decision_ratio[2] 	0.00099513250405625
scalar tree_4_3_u04_r9_network.node[3].core_layer 	interests[3] 	40534
scalar tree_4_3_u04_r9_network.node[3].core_layer 	data[3] 	38642
scalar tree_4_3_u04_r9_network.node[3].content_store 	p_hit[3] 	0.046701534514235
scalar tree_4_3_u04_r9_network.node[3].content_store 	hits[3] 	1893
scalar tree_4_3_u04_r9_network.node[3].content_store 	misses[3] 	38641
scalar tree_4_3_u04_r9_network.node[3].content_store 	decision_yes[3] 	45
scalar tree_4_3_u04_r9_network.node[3].content_store 	decision_no[3] 	38597
scalar tree_4_3_u04_r9_network.node[3].content_store 	decision_ratio[3] 	0.0011645359971016
scalar tree_4_3_u04_r9_network.node[4].core_layer 	interests[4] 	34281
scalar tree_4_3_u04_r9_network.node[4].core_layer 	data[4] 	31933
scalar tree_4_3_u04_r9_network.node[4].content_store 	p_hit[4] 	0.068492751086608
scalar tree_4_3_u04_r9_network.node[4].content_store 	hits[4] 	2348
scalar tree_4_3_u04_r9_network.node[4].content_store 	misses[4] 	31933
scalar tree_4_3_u04_r9_network.node[4].content_store 	decision_yes[4] 	61
scalar tree_4_3_u04_r9_network.node[4].content_store 	decision_no[4] 	31872
scalar tree_4_3_u04_r9_network.node[4].content_store 	decision_ratio[4] 	0.0019102495850687
scalar tree_4_3_u04_r9_network.node[5].core_layer 	interests[5] 	27021
scalar tree_4_3_u04_r9_network.node[5].core_layer 	data[5] 	24409
scalar tree_4_3_u04_r9_network.node[5].content_store 	p_hit[5] 	0.096628548166241
scalar tree_4_3_u04_r9_network.node[5].content_store 	hits[5] 	2611
scalar tree_4_3_u04_r9_network.node[5].content_store 	misses[5] 	24410
scalar tree_4_3_u04_r9_network.node[5].content_store 	decision_yes[5] 	81
scalar tree_4_3_u04_r9_network.node[5].content_store 	decision_no[5] 	24328
scalar tree_4_3_u04_r9_network.node[5].content_store 	decision_ratio[5] 	0.0033184481134008
scalar tree_4_3_u04_r9_network.node[6].core_layer 	interests[6] 	18534
scalar tree_4_3_u04_r9_network.node[6].core_layer 	data[6] 	16256
scalar tree_4_3_u04_r9_network.node[6].content_store 	p_hit[6] 	0.12290924786878
scalar tree_4_3_u04_r9_network.node[6].content_store 	hits[6] 	2278
scalar tree_4_3_u04_r9_network.node[6].content_store 	misses[6] 	16256
scalar tree_4_3_u04_r9_network.node[6].content_store 	decision_yes[6] 	51
scalar tree_4_3_u04_r9_network.node[6].content_store 	decision_no[6] 	16205
scalar tree_4_3_u04_r9_network.node[6].content_store 	decision_ratio[6] 	0.0031373031496063
scalar tree_4_3_u04_r9_network.node[7].core_layer 	interests[7] 	26421
scalar tree_4_3_u04_r9_network.node[7].core_layer 	data[7] 	23880
scalar tree_4_3_u04_r9_network.node[7].content_store 	p_hit[7] 	0.096135649672609
scalar tree_4_3_u04_r9_network.node[7].content_store 	hits[7] 	2540
scalar tree_4_3_u04_r9_network.node[7].content_store 	misses[7] 	23881
scalar tree_4_3_u04_r9_network.node[7].content_store 	decision_yes[7] 	52
scalar tree_4_3_u04_r9_network.node[7].content_store 	decision_no[7] 	23828
scalar tree_4_3_u04_r9_network.node[7].content_store 	decision_ratio[7] 	0.002177554438861
scalar tree_4_3_u04_r9_network.node[8].core_layer 	interests[8] 	25589
scalar tree_4_3_u04_r9_network.node[8].core_layer 	data[8] 	24060
scalar tree_4_3_u04_r9_network.node[8].content_store 	p_hit[8] 	0.059634999413811
scalar tree_4_3_u04_r9_network.node[8].content_store 	hits[8] 	1526
scalar tree_4_3_u04_r9_network.node[8].content_store 	misses[8] 	24063
scalar tree_4_3_u04_r9_network.node[8].content_store 	decision_yes[8] 	38
scalar tree_4_3_u04_r9_network.node[8].content_store 	decision_no[8] 	24022
scalar tree_4_3_u04_r9_network.node[8].content_store 	decision_ratio[8] 	0.0015793848711554
scalar tree_4_3_u04_r9_network.node[9].core_layer 	interests[9] 	27077
scalar tree_4_3_u04_r9_network.node[9].core_layer 	data[9] 	24779
scalar tree_4_3_u04_r9_network.node[9].content_store 	p_hit[9] 	0.084869077076486
scalar tree_4_3_u04_r9_network.node[9].content_store 	hits[9] 	2298
scalar tree_4_3_u04_r9_network.node[9].content_store 	misses[9] 	24779
scalar tree_4_3_u04_r9_network.node[9].content_store 	decision_yes[9] 	81
scalar tree_4_3_u04_r9_network.node[9].content_store 	decision_no[9] 	24698
scalar tree_4_3_u04_r9_network.node[9].content_store 	decision_ratio[9] 	0.0032688970499213
scalar tree_4_3_u04_r9_network.node[10].core_layer 	interests[10] 	35731
scalar tree_4_3_u04_r9_network.node[10].core_layer 	data[10] 	32683
scalar tree_4_3_u04_r9_network.node[10].content_store 	p_hit[10] 	0.08530407769164
scalar tree_4_3_u04_r9_network.node[10].content_store 	hits[10] 	3048
scalar tree_4_3_u04_r9_network.node[10].content_store 	misses[10] 	32683
scalar tree_4_3_u04_r9_network.node[10].content_store 	decision_yes[10] 	112
scalar tree_4_3_u04_r9_network.node[10].content_store 	decision_no[10] 	32571
scalar tree_4_3_u04_r9_network.node[10].content_store 	decision_ratio[10] 	0.0034268579995716
scalar tree_4_3_u04_r9_network.node[11].core_layer 	interests[11] 	17236
scalar tree_4_3_u04_r9_network.node[11].core_layer 	data[11] 	15956
scalar tree_4_3_u04_r9_network.node[11].content_store 	p_hit[11] 	0.074147133905779
scalar tree_4_3_u04_r9_network.node[11].content_store 	hits[11] 	1278
scalar tree_4_3_u04_r9_network.node[11].content_store 	misses[11] 	15958
scalar tree_4_3_u04_r9_network.node[11].content_store 	decision_yes[11] 	28
scalar tree_4_3_u04_r9_network.node[11].content_store 	decision_no[11] 	15928
scalar tree_4_3_u04_r9_network.node[11].content_store 	decision_ratio[11] 	0.0017548257708699
scalar tree_4_3_u04_r9_network.node[12].core_layer 	interests[12] 	26475
scalar tree_4_3_u04_r9_network.node[12].core_layer 	data[12] 	24658
scalar tree_4_3_u04_r9_network.node[12].content_store 	p_hit[12] 	0.068630783758263
scalar tree_4_3_u04_r9_network.node[12].content_store 	hits[12] 	1817
scalar tree_4_3_u04_r9_network.node[12].content_store 	misses[12] 	24658
scalar tree_4_3_u04_r9_network.node[12].content_store 	decision_yes[12] 	54
scalar tree_4_3_u04_r9_network.node[12].content_store 	decision_no[12] 	24604
scalar tree_4_3_u04_r9_network.node[12].content_store 	decision_ratio[12] 	0.0021899586341147
scalar tree_4_3_u04_r9_network.node[13].core_layer 	interests[13] 	12190
scalar tree_4_3_u04_r9_network.node[13].core_layer 	data[13] 	8620
scalar tree_4_3_u04_r9_network.node[13].content_store 	p_hit[13] 	0.29286300246103
scalar tree_4_3_u04_r9_network.node[13].content_store 	hits[13] 	3570
scalar tree_4_3_u04_r9_network.node[13].content_store 	misses[13] 	8620
scalar tree_4_3_u04_r9_network.node[13].content_store 	decision_yes[13] 	23
scalar tree_4_3_u04_r9_network.node[13].content_store 	decision_no[13] 	8597
scalar tree_4_3_u04_r9_network.node[13].content_store 	decision_ratio[13] 	0.0026682134570766
scalar tree_4_3_u04_r9_network.node[14].core_layer 	interests[14] 	12531
scalar tree_4_3_u04_r9_network.node[14].core_layer 	data[14] 	8733
scalar tree_4_3_u04_r9_network.node[14].content_store 	p_hit[14] 	0.30308834091453
scalar tree_4_3_u04_r9_network.node[14].content_store 	hits[14] 	3798
scalar tree_4_3_u04_r9_network.node[14].content_store 	misses[14] 	8733
scalar tree_4_3_u04_r9_network.node[14].content_store 	decision_yes[14] 	54
scalar tree_4_3_u04_r9_network.node[14].content_store 	decision_no[14] 	8679
scalar tree_4_3_u04_r9_network.node[14].content_store 	decision_ratio[14] 	0.0061834421161113
scalar tree_4_3_u04_r9_network.node[15].core_layer 	interests[15] 	12090
scalar tree_4_3_u04_r9_network.node[15].core_layer 	data[15] 	8493
scalar tree_4_3_u04_r9_network.node[15].content_store 	p_hit[15] 	0.29751861042184
scalar tree_4_3_u04_r9_network.node[15].content_store 	hits[15] 	3597
scalar tree_4_3_u04_r9_network.node[15].content_store 	misses[15] 	8493
scalar tree_4_3_u04_r9_network.node[15].content_store 	decision_yes[15] 	29
scalar tree_4_3_u04_r9_network.node[15].content_store 	decision_no[15] 	8464
scalar tree_4_3_u04_r9_network.node[15].content_store 	decision_ratio[15] 	0.003414576710232
scalar tree_4_3_u04_r9_network.node[16].core_layer 	interests[16] 	12447
scalar tree_4_3_u04_r9_network.node[16].core_layer 	data[16] 	8735
scalar tree_4_3_u04_r9_network.node[16].content_store 	p_hit[16] 	0.29822447176026
scalar tree_4_3_u04_r9_network.node[16].content_store 	hits[16] 	3712
scalar tree_4_3_u04_r9_network.node[16].content_store 	misses[16] 	8735
scalar tree_4_3_u04_r9_network.node[16].content_store 	decision_yes[16] 	41
scalar tree_4_3_u04_r9_network.node[16].content_store 	decision_no[16] 	8694
scalar tree_4_3_u04_r9_network.node[16].content_store 	decision_ratio[16] 	0.0046937607326846
scalar tree_4_3_u04_r9_network.node[17].core_layer 	interests[17] 	12169
scalar tree_4_3_u04_r9_network.node[17].core_layer 	data[17] 	8567
scalar tree_4_3_u04_r9_network.node[17].content_store 	p_hit[17] 	0.29591585175446
scalar tree_4_3_u04_r9_network.node[17].content_store 	hits[17] 	3601
scalar tree_4_3_u04_r9_network.node[17].content_store 	misses[17] 	8568
scalar tree_4_3_u04_r9_network.node[17].content_store 	decision_yes[17] 	25
scalar tree_4_3_u04_r9_network.node[17].content_store 	decision_no[17] 	8542
scalar tree_4_3_u04_r9_network.node[17].content_store 	decision_ratio[17] 	0.0029181743901016
scalar tree_4_3_u04_r9_network.node[18].core_layer 	interests[18] 	12609
scalar tree_4_3_u04_r9_network.node[18].core_layer 	data[18] 	8827
scalar tree_4_3_u04_r9_network.node[18].content_store 	p_hit[18] 	0.29994448409866
scalar tree_4_3_u04_r9_network.node[18].content_store 	hits[18] 	3782
scalar tree_4_3_u04_r9_network.node[18].content_store 	misses[18] 	8827
scalar tree_4_3_u04_r9_network.node[18].content_store 	decision_yes[18] 	36
scalar tree_4_3_u04_r9_network.node[18].content_store 	decision_no[18] 	8791
scalar tree_4_3_u04_r9_network.node[18].content_store 	decision_ratio[18] 	0.0040783958309732
scalar tree_4_3_u04_r9_network.node[19].core_layer 	interests[19] 	11914
scalar tree_4_3_u04_r9_network.node[19].core_layer 	data[19] 	8542
scalar tree_4_3_u04_r9_network.node[19].content_store 	p_hit[19] 	0.28294443511835
scalar tree_4_3_u04_r9_network.node[19].content_store 	hits[19] 	3371
scalar tree_4_3_u04_r9_network.node[19].content_store 	misses[19] 	8543
scalar tree_4_3_u04_r9_network.node[19].content_store 	decision_yes[19] 	34
scalar tree_4_3_u04_r9_network.node[19].content_store 	decision_no[19] 	8508
scalar tree_4_3_u04_r9_network.node[19].content_store 	decision_ratio[19] 	0.0039803324748303
scalar tree_4_3_u04_r9_network.node[20].core_layer 	interests[20] 	12400
scalar tree_4_3_u04_r9_network.node[20].core_layer 	data[20] 	8717
scalar tree_4_3_u04_r9_network.node[20].content_store 	p_hit[20] 	0.29701612903226
scalar tree_4_3_u04_r9_network.node[20].content_store 	hits[20] 	3683
scalar tree_4_3_u04_r9_network.node[20].content_store 	misses[20] 	8717
scalar tree_4_3_u04_r9_network.node[20].content_store 	decision_yes[20] 	38
scalar tree_4_3_u04_r9_network.node[20].content_store 	decision_no[20] 	8679
scalar tree_4_3_u04_r9_network.node[20].content_store 	decision_ratio[20] 	0.0043592979235976
scalar tree_4_3_u04_r9_network.node[21].core_layer 	interests[21] 	11981
scalar tree_4_3_u04_r9_network.node[21].core_layer 	data[21] 	8484
scalar tree_4_3_u04_r9_network.node[21].content_store 	p_hit[21] 	0.29196227359987
scalar tree_4_3_u04_r9_network.node[21].content_store 	hits[21] 	3498
scalar tree_4_3_u04_r9_network.node[21].content_store 	misses[21] 	8483
scalar tree_4_3_u04_r9_network.node[21].content_store 	decision_yes[21] 	27
scalar tree_4_3_u04_r9_network.node[21].content_store 	decision_no[21] 	8457
scalar tree_4_3_u04_r9_network.node[21].content_store 	decision_ratio[21] 	0.0031824611032532
scalar tree_4_3_u04_r9_network.node[22].core_layer 	interests[22] 	12001
scalar tree_4_3_u04_r9_network.node[22].core_layer 	data[22] 	8498
scalar tree_4_3_u04_r9_network.node[22].content_store 	p_hit[22] 	0.29180901591534
scalar tree_4_3_u04_r9_network.node[22].content_store 	hits[22] 	3502
scalar tree_4_3_u04_r9_network.node[22].content_store 	misses[22] 	8499
scalar tree_4_3_u04_r9_network.node[22].content_store 	decision_yes[22] 	28
scalar tree_4_3_u04_r9_network.node[22].content_store 	decision_no[22] 	8470
scalar tree_4_3_u04_r9_network.node[22].content_store 	decision_ratio[22] 	0.0032948929159802
scalar tree_4_3_u04_r9_network.node[23].core_layer 	interests[23] 	12037
scalar tree_4_3_u04_r9_network.node[23].core_layer 	data[23] 	8416
scalar tree_4_3_u04_r9_network.node[23].content_store 	p_hit[23] 	0.30082246406912
scalar tree_4_3_u04_r9_network.node[23].content_store 	hits[23] 	3621
scalar tree_4_3_u04_r9_network.node[23].content_store 	misses[23] 	8416
scalar tree_4_3_u04_r9_network.node[23].content_store 	decision_yes[23] 	17
scalar tree_4_3_u04_r9_network.node[23].content_store 	decision_no[23] 	8399
scalar tree_4_3_u04_r9_network.node[23].content_store 	decision_ratio[23] 	0.0020199619771863
scalar tree_4_3_u04_r9_network.node[24].core_layer 	interests[24] 	12288
scalar tree_4_3_u04_r9_network.node[24].core_layer 	data[24] 	8548
scalar tree_4_3_u04_r9_network.node[24].content_store 	p_hit[24] 	0.30436197916667
scalar tree_4_3_u04_r9_network.node[24].content_store 	hits[24] 	3740
scalar tree_4_3_u04_r9_network.node[24].content_store 	misses[24] 	8548
scalar tree_4_3_u04_r9_network.node[24].content_store 	decision_yes[24] 	40
scalar tree_4_3_u04_r9_network.node[24].content_store 	decision_no[24] 	8508
scalar tree_4_3_u04_r9_network.node[24].content_store 	decision_ratio[24] 	0.0046794571829668
scalar tree_4_3_u04_r9_network.node[25].core_layer 	interests[25] 	12186
scalar tree_4_3_u04_r9_network.node[25].core_layer 	data[25] 	8595
scalar tree_4_3_u04_r9_network.node[25].content_store 	p_hit[25] 	0.29476448383391
scalar tree_4_3_u04_r9_network.node[25].content_store 	hits[25] 	3592
scalar tree_4_3_u04_r9_network.node[25].content_store 	misses[25] 	8594
scalar tree_4_3_u04_r9_network.node[25].content_store 	decision_yes[25] 	26
scalar tree_4_3_u04_r9_network.node[25].content_store 	decision_no[25] 	8569
scalar tree_4_3_u04_r9_network.node[25].content_store 	decision_ratio[25] 	0.0030250145433392
scalar tree_4_3_u04_r9_network.node[26].core_layer 	interests[26] 	12121
scalar tree_4_3_u04_r9_network.node[26].core_layer 	data[26] 	8661
scalar tree_4_3_u04_r9_network.node[26].content_store 	p_hit[26] 	0.28545499546242
scalar tree_4_3_u04_r9_network.node[26].content_store 	hits[26] 	3460
scalar tree_4_3_u04_r9_network.node[26].content_store 	misses[26] 	8661
scalar tree_4_3_u04_r9_network.node[26].content_store 	decision_yes[26] 	23
scalar tree_4_3_u04_r9_network.node[26].content_store 	decision_no[26] 	8638
scalar tree_4_3_u04_r9_network.node[26].content_store 	decision_ratio[26] 	0.0026555824962475
scalar tree_4_3_u04_r9_network.node[27].core_layer 	interests[27] 	12300
scalar tree_4_3_u04_r9_network.node[27].core_layer 	data[27] 	8582
scalar tree_4_3_u04_r9_network.node[27].content_store 	p_hit[27] 	0.30227642276423
scalar tree_4_3_u04_r9_network.node[27].content_store 	hits[27] 	3718
scalar tree_4_3_u04_r9_network.node[27].content_store 	misses[27] 	8582
scalar tree_4_3_u04_r9_network.node[27].content_store 	decision_yes[27] 	49
scalar tree_4_3_u04_r9_network.node[27].content_store 	decision_no[27] 	8533
scalar tree_4_3_u04_r9_network.node[27].content_store 	decision_ratio[27] 	0.0057096247960848
scalar tree_4_3_u04_r9_network.node[28].core_layer 	interests[28] 	12101
scalar tree_4_3_u04_r9_network.node[28].core_layer 	data[28] 	8616
scalar tree_4_3_u04_r9_network.node[28].content_store 	p_hit[28] 	0.28799272787373
scalar tree_4_3_u04_r9_network.node[28].content_store 	hits[28] 	3485
scalar tree_4_3_u04_r9_network.node[28].content_store 	misses[28] 	8616
scalar tree_4_3_u04_r9_network.node[28].content_store 	decision_yes[28] 	32
scalar tree_4_3_u04_r9_network.node[28].content_store 	decision_no[28] 	8584
scalar tree_4_3_u04_r9_network.node[28].content_store 	decision_ratio[28] 	0.0037140204271123
scalar tree_4_3_u04_r9_network.node[29].core_layer 	interests[29] 	12056
scalar tree_4_3_u04_r9_network.node[29].core_layer 	data[29] 	8510
scalar tree_4_3_u04_r9_network.node[29].content_store 	p_hit[29] 	0.29412740544127
scalar tree_4_3_u04_r9_network.node[29].content_store 	hits[29] 	3546
scalar tree_4_3_u04_r9_network.node[29].content_store 	misses[29] 	8510
scalar tree_4_3_u04_r9_network.node[29].content_store 	decision_yes[29] 	26
scalar tree_4_3_u04_r9_network.node[29].content_store 	decision_no[29] 	8484
scalar tree_4_3_u04_r9_network.node[29].content_store 	decision_ratio[29] 	0.0030552291421857
scalar tree_4_3_u04_r9_network.node[30].core_layer 	interests[30] 	12200
scalar tree_4_3_u04_r9_network.node[30].core_layer 	data[30] 	8731
scalar tree_4_3_u04_r9_network.node[30].content_store 	p_hit[30] 	0.28434426229508
scalar tree_4_3_u04_r9_network.node[30].content_store 	hits[30] 	3469
scalar tree_4_3_u04_r9_network.node[30].content_store 	misses[30] 	8731
scalar tree_4_3_u04_r9_network.node[30].content_store 	decision_yes[30] 	18
scalar tree_4_3_u04_r9_network.node[30].content_store 	decision_no[30] 	8713
scalar tree_4_3_u04_r9_network.node[30].content_store 	decision_ratio[30] 	0.0020616195166648
scalar tree_4_3_u04_r9_network.node[31].core_layer 	interests[31] 	12295
scalar tree_4_3_u04_r9_network.node[31].core_layer 	data[31] 	8649
scalar tree_4_3_u04_r9_network.node[31].content_store 	p_hit[31] 	0.29654331028874
scalar tree_4_3_u04_r9_network.node[31].content_store 	hits[31] 	3646
scalar tree_4_3_u04_r9_network.node[31].content_store 	misses[31] 	8649
scalar tree_4_3_u04_r9_network.node[31].content_store 	decision_yes[31] 	13
scalar tree_4_3_u04_r9_network.node[31].content_store 	decision_no[31] 	8636
scalar tree_4_3_u04_r9_network.node[31].content_store 	decision_ratio[31] 	0.0015030639380275
scalar tree_4_3_u04_r9_network.node[32].core_layer 	interests[32] 	12341
scalar tree_4_3_u04_r9_network.node[32].core_layer 	data[32] 	8673
scalar tree_4_3_u04_r9_network.node[32].content_store 	p_hit[32] 	0.29730167733571
scalar tree_4_3_u04_r9_network.node[32].content_store 	hits[32] 	3669
scalar tree_4_3_u04_r9_network.node[32].content_store 	misses[32] 	8672
scalar tree_4_3_u04_r9_network.node[32].content_store 	decision_yes[32] 	32
scalar tree_4_3_u04_r9_network.node[32].content_store 	decision_no[32] 	8641
scalar tree_4_3_u04_r9_network.node[32].content_store 	decision_ratio[32] 	0.0036896114377955
scalar tree_4_3_u04_r9_network.node[33].core_layer 	interests[33] 	12180
scalar tree_4_3_u04_r9_network.node[33].core_layer 	data[33] 	8523
scalar tree_4_3_u04_r9_network.node[33].content_store 	p_hit[33] 	0.30024630541872
scalar tree_4_3_u04_r9_network.node[33].content_store 	hits[33] 	3657
scalar tree_4_3_u04_r9_network.node[33].content_store 	misses[33] 	8523
scalar tree_4_3_u04_r9_network.node[33].content_store 	decision_yes[33] 	22
scalar tree_4_3_u04_r9_network.node[33].content_store 	decision_no[33] 	8501
scalar tree_4_3_u04_r9_network.node[33].content_store 	decision_ratio[33] 	0.0025812507333099
scalar tree_4_3_u04_r9_network.node[34].core_layer 	interests[34] 	12702
scalar tree_4_3_u04_r9_network.node[34].core_layer 	data[34] 	8811
scalar tree_4_3_u04_r9_network.node[34].content_store 	p_hit[34] 	0.3063297118564
scalar tree_4_3_u04_r9_network.node[34].content_store 	hits[34] 	3891
scalar tree_4_3_u04_r9_network.node[34].content_store 	misses[34] 	8811
scalar tree_4_3_u04_r9_network.node[34].content_store 	decision_yes[34] 	35
scalar tree_4_3_u04_r9_network.node[34].content_store 	decision_no[34] 	8776
scalar tree_4_3_u04_r9_network.node[34].content_store 	decision_ratio[34] 	0.0039723073430939
scalar tree_4_3_u04_r9_network.node[35].core_layer 	interests[35] 	11952
scalar tree_4_3_u04_r9_network.node[35].core_layer 	data[35] 	8474
scalar tree_4_3_u04_r9_network.node[35].content_store 	p_hit[35] 	0.29099732262383
scalar tree_4_3_u04_r9_network.node[35].content_store 	hits[35] 	3478
scalar tree_4_3_u04_r9_network.node[35].content_store 	misses[35] 	8474
scalar tree_4_3_u04_r9_network.node[35].content_store 	decision_yes[35] 	17
scalar tree_4_3_u04_r9_network.node[35].content_store 	decision_no[35] 	8457
scalar tree_4_3_u04_r9_network.node[35].content_store 	decision_ratio[35] 	0.0020061364172764
scalar tree_4_3_u04_r9_network.node[36].core_layer 	interests[36] 	12091
scalar tree_4_3_u04_r9_network.node[36].core_layer 	data[36] 	8491
scalar tree_4_3_u04_r9_network.node[36].content_store 	p_hit[36] 	0.29765941609462
scalar tree_4_3_u04_r9_network.node[36].content_store 	hits[36] 	3599
scalar tree_4_3_u04_r9_network.node[36].content_store 	misses[36] 	8492
scalar tree_4_3_u04_r9_network.node[36].content_store 	decision_yes[36] 	53
scalar tree_4_3_u04_r9_network.node[36].content_store 	decision_no[36] 	8438
scalar tree_4_3_u04_r9_network.node[36].content_store 	decision_ratio[36] 	0.0062419031916147
scalar tree_4_3_u04_r9_network.node[37].core_layer 	interests[37] 	12268
scalar tree_4_3_u04_r9_network.node[37].core_layer 	data[37] 	8745
scalar tree_4_3_u04_r9_network.node[37].content_store 	p_hit[37] 	0.28716987283991
scalar tree_4_3_u04_r9_network.node[37].content_store 	hits[37] 	3523
scalar tree_4_3_u04_r9_network.node[37].content_store 	misses[37] 	8745
scalar tree_4_3_u04_r9_network.node[37].content_store 	decision_yes[37] 	33
scalar tree_4_3_u04_r9_network.node[37].content_store 	decision_no[37] 	8712
scalar tree_4_3_u04_r9_network.node[37].content_store 	decision_ratio[37] 	0.0037735849056604
scalar tree_4_3_u04_r9_network.node[38].core_layer 	interests[38] 	11989
scalar tree_4_3_u04_r9_network.node[38].core_layer 	data[38] 	8532
scalar tree_4_3_u04_r9_network.node[38].content_store 	p_hit[38] 	0.28834765201435
scalar tree_4_3_u04_r9_network.node[38].content_store 	hits[38] 	3457
scalar tree_4_3_u04_r9_network.node[38].content_store 	misses[38] 	8532
scalar tree_4_3_u04_r9_network.node[38].content_store 	decision_yes[38] 	21
scalar tree_4_3_u04_r9_network.node[38].content_store 	decision_no[38] 	8511
scalar tree_4_3_u04_r9_network.node[38].content_store 	decision_ratio[38] 	0.0024613220815752
scalar tree_4_3_u04_r9_network.node[39].core_layer 	interests[39] 	12178
scalar tree_4_3_u04_r9_network.node[39].core_layer 	data[39] 	8653
scalar tree_4_3_u04_r9_network.node[39].content_store 	p_hit[39] 	0.28953851207095
scalar tree_4_3_u04_r9_network.node[39].content_store 	hits[39] 	3526
scalar tree_4_3_u04_r9_network.node[39].content_store 	misses[39] 	8652
scalar tree_4_3_u04_r9_network.node[39].content_store 	decision_yes[39] 	23
scalar tree_4_3_u04_r9_network.node[39].content_store 	decision_no[39] 	8630
scalar tree_4_3_u04_r9_network.node[39].content_store 	decision_ratio[39] 	0.0026580376747949
scalar tree_4_3_u04_r9_network.client[13] 	hdistance[13] 	2.6383757696788
scalar tree_4_3_u04_r9_network.client[13] 	downloads[13] 	12018
scalar tree_4_3_u04_r9_network.client[13] 	avg_time[13] 	0.004078212988
scalar tree_4_3_u04_r9_network.client[14] 	hdistance[14] 	2.6087570621469
scalar tree_4_3_u04_r9_network.client[14] 	downloads[14] 	12036
scalar tree_4_3_u04_r9_network.client[14] 	avg_time[14] 	0.004025919255
scalar tree_4_3_u04_r9_network.client[15] 	hdistance[15] 	2.6119039623909
scalar tree_4_3_u04_r9_network.client[15] 	downloads[15] 	11912
scalar tree_4_3_u04_r9_network.client[15] 	avg_time[15] 	0.004041467828
scalar tree_4_3_u04_r9_network.client[16] 	hdistance[16] 	2.615821094793
scalar tree_4_3_u04_r9_network.client[16] 	downloads[16] 	11984
scalar tree_4_3_u04_r9_network.client[16] 	avg_time[16] 	0.004037046423
scalar tree_4_3_u04_r9_network.client[17] 	hdistance[17] 	2.6099692102854
scalar tree_4_3_u04_r9_network.client[17] 	downloads[17] 	12017
scalar tree_4_3_u04_r9_network.client[17] 	avg_time[17] 	0.004040939
scalar tree_4_3_u04_r9_network.client[18] 	hdistance[18] 	2.6148051097281
scalar tree_4_3_u04_r9_network.client[18] 	downloads[18] 	12212
scalar tree_4_3_u04_r9_network.client[18] 	avg_time[18] 	0.004024071624
scalar tree_4_3_u04_r9_network.client[19] 	hdistance[19] 	2.6564646036456
scalar tree_4_3_u04_r9_network.client[19] 	downloads[19] 	11795
scalar tree_4_3_u04_r9_network.client[19] 	avg_time[19] 	0.004109707854
scalar tree_4_3_u04_r9_network.client[20] 	hdistance[20] 	2.596165020337
scalar tree_4_3_u04_r9_network.client[20] 	downloads[20] 	12047
scalar tree_4_3_u04_r9_network.client[20] 	avg_time[20] 	0.004008795856
scalar tree_4_3_u04_r9_network.client[21] 	hdistance[21] 	2.6239345092413
scalar tree_4_3_u04_r9_network.client[21] 	downloads[21] 	11849
scalar tree_4_3_u04_r9_network.client[21] 	avg_time[21] 	0.004064812635
scalar tree_4_3_u04_r9_network.client[22] 	hdistance[22] 	2.6196028728348
scalar tree_4_3_u04_r9_network.client[22] 	downloads[22] 	11835
scalar tree_4_3_u04_r9_network.client[22] 	avg_time[22] 	0.004056946761
scalar tree_4_3_u04_r9_network.client[23] 	hdistance[23] 	2.588948787062
scalar tree_4_3_u04_r9_network.client[23] 	downloads[23] 	11872
scalar tree_4_3_u04_r9_network.client[23] 	avg_time[23] 	0.00401332729
scalar tree_4_3_u04_r9_network.client[24] 	hdistance[24] 	2.6051943671473
scalar tree_4_3_u04_r9_network.client[24] 	downloads[24] 	11859
scalar tree_4_3_u04_r9_network.client[24] 	avg_time[24] 	0.004015128959
scalar tree_4_3_u04_r9_network.client[25] 	hdistance[25] 	2.6459215002904
scalar tree_4_3_u04_r9_network.client[25] 	downloads[25] 	12051
scalar tree_4_3_u04_r9_network.client[25] 	avg_time[25] 	0.004062254435
scalar tree_4_3_u04_r9_network.client[26] 	hdistance[26] 	2.6781609195402
scalar tree_4_3_u04_r9_network.client[26] 	downloads[26] 	12006
scalar tree_4_3_u04_r9_network.client[26] 	avg_time[26] 	0.004113319901
scalar tree_4_3_u04_r9_network.client[27] 	hdistance[27] 	2.6253269214545
scalar tree_4_3_u04_r9_network.client[27] 	downloads[27] 	11853
scalar tree_4_3_u04_r9_network.client[27] 	avg_time[27] 	0.004028681747
scalar tree_4_3_u04_r9_network.client[28] 	hdistance[28] 	2.6749600739682
scalar tree_4_3_u04_r9_network.client[28] 	downloads[28] 	11897
scalar tree_4_3_u04_r9_network.client[28] 	avg_time[28] 	0.004107419032
scalar tree_4_3_u04_r9_network.client[29] 	hdistance[29] 	2.6594776748104
scalar tree_4_3_u04_r9_network.client[29] 	downloads[29] 	11870
scalar tree_4_3_u04_r9_network.client[29] 	avg_time[29] 	0.00408255812
scalar tree_4_3_u04_r9_network.client[30] 	hdistance[30] 	2.6815461346633
scalar tree_4_3_u04_r9_network.client[30] 	downloads[30] 	12030
scalar tree_4_3_u04_r9_network.client[30] 	avg_time[30] 	0.004120861536
scalar tree_4_3_u04_r9_network.client[31] 	hdistance[31] 	2.6251663339987
scalar tree_4_3_u04_r9_network.client[31] 	downloads[31] 	12024
scalar tree_4_3_u04_r9_network.client[31] 	avg_time[31] 	0.004066401117
scalar tree_4_3_u04_r9_network.client[32] 	hdistance[32] 	2.6189247669774
scalar tree_4_3_u04_r9_network.client[32] 	downloads[32] 	12016
scalar tree_4_3_u04_r9_network.client[32] 	avg_time[32] 	0.004056421767
scalar tree_4_3_u04_r9_network.client[33] 	hdistance[33] 	2.6186234137322
scalar tree_4_3_u04_r9_network.client[33] 	downloads[33] 	11899
scalar tree_4_3_u04_r9_network.client[33] 	avg_time[33] 	0.0040500853
scalar tree_4_3_u04_r9_network.client[34] 	hdistance[34] 	2.5821979277148
scalar tree_4_3_u04_r9_network.client[34] 	downloads[34] 	12257
scalar tree_4_3_u04_r9_network.client[34] 	avg_time[34] 	0.003988248559
scalar tree_4_3_u04_r9_network.client[35] 	hdistance[35] 	2.6600016802487
scalar tree_4_3_u04_r9_network.client[35] 	downloads[35] 	11903
scalar tree_4_3_u04_r9_network.client[35] 	avg_time[35] 	0.004085017594
scalar tree_4_3_u04_r9_network.client[36] 	hdistance[36] 	2.6425665367011
scalar tree_4_3_u04_r9_network.client[36] 	downloads[36] 	11798
scalar tree_4_3_u04_r9_network.client[36] 	avg_time[36] 	0.004044541069
scalar tree_4_3_u04_r9_network.client[37] 	hdistance[37] 	2.6526827660101
scalar tree_4_3_u04_r9_network.client[37] 	downloads[37] 	12133
scalar tree_4_3_u04_r9_network.client[37] 	avg_time[37] 	0.004079779388
scalar tree_4_3_u04_r9_network.client[38] 	hdistance[38] 	2.6792261552758
scalar tree_4_3_u04_r9_network.client[38] 	downloads[38] 	11837
scalar tree_4_3_u04_r9_network.client[38] 	avg_time[38] 	0.004104993399
scalar tree_4_3_u04_r9_network.client[39] 	hdistance[39] 	2.6821801891488
scalar tree_4_3_u04_r9_network.client[39] 	downloads[39] 	12054
scalar tree_4_3_u04_r9_network.client[39] 	avg_time[39] 	0.00411116343
