version 2
run General-263-20160901-02:50:36-8710
attr a 0.9
attr cd tfc
attr configname General
attr cr lru
attr datetime 20160901-02:50:36
attr experiment General
attr fsize 1
attr inifile hw5115/scenario_Y/omnetp.ini
attr iterationvars "$name=tree_4_3, $un=04, $rep=8, $cd=tfc, $cr=lru, $fsize=1, $a=0.9, $sl=nrr, $ttl=1000, $variance=0.05"
attr iterationvars2 "$name=tree_4_3, $un=04, $rep=8, $cd=tfc, $cr=lru, $fsize=1, $a=0.9, $sl=nrr, $ttl=1000, $variance=0.05, $repetition=0"
attr measurement "$name=tree_4_3, $un=04, $rep=8, $cd=tfc, $cr=lru, $fsize=1, $a=0.9, $sl=nrr, $ttl=1000, $variance=0.05"
attr name tree_4_3
attr network networks.${name}_u${un}_r${rep}_network
attr processid 8710
attr rep 8
attr repetition 0
attr replication #0
attr resultdir results
attr runnumber 263
attr seedset 8
attr sl nrr
attr ttl 1000
attr un 04
attr variance 0.05

scalar . 	a 	0.9
scalar . 	fsize 	1
scalar . 	rep 	8
scalar . 	ttl 	1000
scalar . 	un 	04
scalar . 	variance 	0.05
scalar tree_4_3_u04_r8_network.content_distribution 	repo-0 	0
scalar tree_4_3_u04_r8_network.content_distribution 	client-0 	13
scalar tree_4_3_u04_r8_network.content_distribution 	client-1 	14
scalar tree_4_3_u04_r8_network.content_distribution 	client-2 	15
scalar tree_4_3_u04_r8_network.content_distribution 	client-3 	16
scalar tree_4_3_u04_r8_network.content_distribution 	client-4 	17
scalar tree_4_3_u04_r8_network.content_distribution 	client-5 	18
scalar tree_4_3_u04_r8_network.content_distribution 	client-6 	19
scalar tree_4_3_u04_r8_network.content_distribution 	client-7 	20
scalar tree_4_3_u04_r8_network.content_distribution 	client-8 	21
scalar tree_4_3_u04_r8_network.content_distribution 	client-9 	22
scalar tree_4_3_u04_r8_network.content_distribution 	client-10 	23
scalar tree_4_3_u04_r8_network.content_distribution 	client-11 	24
scalar tree_4_3_u04_r8_network.content_distribution 	client-12 	25
scalar tree_4_3_u04_r8_network.content_distribution 	client-13 	26
scalar tree_4_3_u04_r8_network.content_distribution 	client-14 	27
scalar tree_4_3_u04_r8_network.content_distribution 	client-15 	28
scalar tree_4_3_u04_r8_network.content_distribution 	client-16 	29
scalar tree_4_3_u04_r8_network.content_distribution 	client-17 	30
scalar tree_4_3_u04_r8_network.content_distribution 	client-18 	31
scalar tree_4_3_u04_r8_network.content_distribution 	client-19 	32
scalar tree_4_3_u04_r8_network.content_distribution 	client-20 	33
scalar tree_4_3_u04_r8_network.content_distribution 	client-21 	34
scalar tree_4_3_u04_r8_network.content_distribution 	client-22 	35
scalar tree_4_3_u04_r8_network.content_distribution 	client-23 	36
scalar tree_4_3_u04_r8_network.content_distribution 	client-24 	37
scalar tree_4_3_u04_r8_network.content_distribution 	client-25 	38
scalar tree_4_3_u04_r8_network.content_distribution 	client-26 	39
scalar tree_4_3_u04_r8_network.content_distribution 	repo-0_card 	100000
scalar tree_4_3_u04_r8_network.content_distribution 	repo-0_price 	0
scalar tree_4_3_u04_r8_network.statistics 	stabilization_time 	2122.3
scalar tree_4_3_u04_r8_network.statistics 	p_hit 	0.22425878924025
scalar tree_4_3_u04_r8_network.statistics 	interests 	24517.025
scalar tree_4_3_u04_r8_network.statistics 	data 	16435.4
scalar tree_4_3_u04_r8_network.statistics 	hdistance 	2.6348354343795
scalar tree_4_3_u04_r8_network.statistics 	avg_time 	0.004067305224
scalar tree_4_3_u04_r8_network.statistics 	downloads 	323258
scalar tree_4_3_u04_r8_network.statistics 	total_cost 	0
scalar tree_4_3_u04_r8_network.statistics 	total_replicas 	100000
scalar tree_4_3_u04_r8_network.statistics 	inner_hit 	0.39883931720174
scalar tree_4_3_u04_r8_network.node[0].core_layer 	interests[0] 	197995
scalar tree_4_3_u04_r8_network.node[0].core_layer 	repo_load[0] 	194330
scalar tree_4_3_u04_r8_network.node[0].core_layer 	data[0] 	0
scalar tree_4_3_u04_r8_network.node[0].core_layer 	repo_int[0] 	194330
scalar tree_4_3_u04_r8_network.node[0].content_store 	p_hit[0] 	0.018510568448698
scalar tree_4_3_u04_r8_network.node[0].content_store 	hits[0] 	3665
scalar tree_4_3_u04_r8_network.node[0].content_store 	misses[0] 	194330
scalar tree_4_3_u04_r8_network.node[0].content_store 	decision_yes[0] 	1048
scalar tree_4_3_u04_r8_network.node[0].content_store 	decision_no[0] 	193282
scalar tree_4_3_u04_r8_network.node[0].content_store 	decision_ratio[0] 	0.0053928883857356
scalar tree_4_3_u04_r8_network.node[1].core_layer 	interests[1] 	100230
scalar tree_4_3_u04_r8_network.node[1].core_layer 	data[1] 	97387
scalar tree_4_3_u04_r8_network.node[1].content_store 	p_hit[1] 	0.02833482989125
scalar tree_4_3_u04_r8_network.node[1].content_store 	hits[1] 	2840
scalar tree_4_3_u04_r8_network.node[1].content_store 	misses[1] 	97390
scalar tree_4_3_u04_r8_network.node[1].content_store 	decision_yes[1] 	103
scalar tree_4_3_u04_r8_network.node[1].content_store 	decision_no[1] 	97284
scalar tree_4_3_u04_r8_network.node[1].content_store 	decision_ratio[1] 	0.0010576360294495
scalar tree_4_3_u04_r8_network.node[2].core_layer 	interests[2] 	40760
scalar tree_4_3_u04_r8_network.node[2].core_layer 	data[2] 	38177
scalar tree_4_3_u04_r8_network.node[2].content_store 	p_hit[2] 	0.063370951913641
scalar tree_4_3_u04_r8_network.node[2].content_store 	hits[2] 	2583
scalar tree_4_3_u04_r8_network.node[2].content_store 	misses[2] 	38177
scalar tree_4_3_u04_r8_network.node[2].content_store 	decision_yes[2] 	76
scalar tree_4_3_u04_r8_network.node[2].content_store 	decision_no[2] 	38101
scalar tree_4_3_u04_r8_network.node[2].content_store 	decision_ratio[2] 	0.0019907274013149
scalar tree_4_3_u04_r8_network.node[3].core_layer 	interests[3] 	71493
scalar tree_4_3_u04_r8_network.node[3].core_layer 	data[3] 	68844
scalar tree_4_3_u04_r8_network.node[3].content_store 	p_hit[3] 	0.037052578574126
scalar tree_4_3_u04_r8_network.node[3].content_store 	hits[3] 	2649
scalar tree_4_3_u04_r8_network.node[3].content_store 	misses[3] 	68844
scalar tree_4_3_u04_r8_network.node[3].content_store 	decision_yes[3] 	98
scalar tree_4_3_u04_r8_network.node[3].content_store 	decision_no[3] 	68746
scalar tree_4_3_u04_r8_network.node[3].content_store 	decision_ratio[3] 	0.0014235082214863
scalar tree_4_3_u04_r8_network.node[4].core_layer 	interests[4] 	33655
scalar tree_4_3_u04_r8_network.node[4].core_layer 	data[4] 	31492
scalar tree_4_3_u04_r8_network.node[4].content_store 	p_hit[4] 	0.064269796464121
scalar tree_4_3_u04_r8_network.node[4].content_store 	hits[4] 	2163
scalar tree_4_3_u04_r8_network.node[4].content_store 	misses[4] 	31492
scalar tree_4_3_u04_r8_network.node[4].content_store 	decision_yes[4] 	80
scalar tree_4_3_u04_r8_network.node[4].content_store 	decision_no[4] 	31412
scalar tree_4_3_u04_r8_network.node[4].content_store 	decision_ratio[4] 	0.0025403277022736
scalar tree_4_3_u04_r8_network.node[5].core_layer 	interests[5] 	19118
scalar tree_4_3_u04_r8_network.node[5].core_layer 	data[5] 	16829
scalar tree_4_3_u04_r8_network.node[5].content_store 	p_hit[5] 	0.11967779056387
scalar tree_4_3_u04_r8_network.node[5].content_store 	hits[5] 	2288
scalar tree_4_3_u04_r8_network.node[5].content_store 	misses[5] 	16830
scalar tree_4_3_u04_r8_network.node[5].content_store 	decision_yes[5] 	87
scalar tree_4_3_u04_r8_network.node[5].content_store 	decision_no[5] 	16742
scalar tree_4_3_u04_r8_network.node[5].content_store 	decision_ratio[5] 	0.0051696476320637
scalar tree_4_3_u04_r8_network.node[6].core_layer 	interests[6] 	27254
scalar tree_4_3_u04_r8_network.node[6].core_layer 	data[6] 	25061
scalar tree_4_3_u04_r8_network.node[6].content_store 	p_hit[6] 	0.080428560945182
scalar tree_4_3_u04_r8_network.node[6].content_store 	hits[6] 	2192
scalar tree_4_3_u04_r8_network.node[6].content_store 	misses[6] 	25062
scalar tree_4_3_u04_r8_network.node[6].content_store 	decision_yes[6] 	75
scalar tree_4_3_u04_r8_network.node[6].content_store 	decision_no[6] 	24986
scalar tree_4_3_u04_r8_network.node[6].content_store 	decision_ratio[6] 	0.0029926978173257
scalar tree_4_3_u04_r8_network.node[7].core_layer 	interests[7] 	35302
scalar tree_4_3_u04_r8_network.node[7].core_layer 	data[7] 	32602
scalar tree_4_3_u04_r8_network.node[7].content_store 	p_hit[7] 	0.076511245821766
scalar tree_4_3_u04_r8_network.node[7].content_store 	hits[7] 	2701
scalar tree_4_3_u04_r8_network.node[7].content_store 	misses[7] 	32601
scalar tree_4_3_u04_r8_network.node[7].content_store 	decision_yes[7] 	122
scalar tree_4_3_u04_r8_network.node[7].content_store 	decision_no[7] 	32480
scalar tree_4_3_u04_r8_network.node[7].content_store 	decision_ratio[7] 	0.0037421017115514
scalar tree_4_3_u04_r8_network.node[8].core_layer 	interests[8] 	25947
scalar tree_4_3_u04_r8_network.node[8].core_layer 	data[8] 	24261
scalar tree_4_3_u04_r8_network.node[8].content_store 	p_hit[8] 	0.064901530042009
scalar tree_4_3_u04_r8_network.node[8].content_store 	hits[8] 	1684
scalar tree_4_3_u04_r8_network.node[8].content_store 	misses[8] 	24263
scalar tree_4_3_u04_r8_network.node[8].content_store 	decision_yes[8] 	56
scalar tree_4_3_u04_r8_network.node[8].content_store 	decision_no[8] 	24205
scalar tree_4_3_u04_r8_network.node[8].content_store 	decision_ratio[8] 	0.0023082313177528
scalar tree_4_3_u04_r8_network.node[9].core_layer 	interests[9] 	19116
scalar tree_4_3_u04_r8_network.node[9].core_layer 	data[9] 	16725
scalar tree_4_3_u04_r8_network.node[9].content_store 	p_hit[9] 	0.12507846829881
scalar tree_4_3_u04_r8_network.node[9].content_store 	hits[9] 	2391
scalar tree_4_3_u04_r8_network.node[9].content_store 	misses[9] 	16725
scalar tree_4_3_u04_r8_network.node[9].content_store 	decision_yes[9] 	86
scalar tree_4_3_u04_r8_network.node[9].content_store 	decision_no[9] 	16639
scalar tree_4_3_u04_r8_network.node[9].content_store 	decision_ratio[9] 	0.0051420029895366
scalar tree_4_3_u04_r8_network.node[10].core_layer 	interests[10] 	34164
scalar tree_4_3_u04_r8_network.node[10].core_layer 	data[10] 	32266
scalar tree_4_3_u04_r8_network.node[10].content_store 	p_hit[10] 	0.055555555555556
scalar tree_4_3_u04_r8_network.node[10].content_store 	hits[10] 	1898
scalar tree_4_3_u04_r8_network.node[10].content_store 	misses[10] 	32266
scalar tree_4_3_u04_r8_network.node[10].content_store 	decision_yes[10] 	68
scalar tree_4_3_u04_r8_network.node[10].content_store 	decision_no[10] 	32198
scalar tree_4_3_u04_r8_network.node[10].content_store 	decision_ratio[10] 	0.0021074815595364
scalar tree_4_3_u04_r8_network.node[11].core_layer 	interests[11] 	34146
scalar tree_4_3_u04_r8_network.node[11].core_layer 	data[11] 	32120
scalar tree_4_3_u04_r8_network.node[11].content_store 	p_hit[11] 	0.059304164470216
scalar tree_4_3_u04_r8_network.node[11].content_store 	hits[11] 	2025
scalar tree_4_3_u04_r8_network.node[11].content_store 	misses[11] 	32121
scalar tree_4_3_u04_r8_network.node[11].content_store 	decision_yes[11] 	75
scalar tree_4_3_u04_r8_network.node[11].content_store 	decision_no[11] 	32045
scalar tree_4_3_u04_r8_network.node[11].content_store 	decision_ratio[11] 	0.0023349937733499
scalar tree_4_3_u04_r8_network.node[12].core_layer 	interests[12] 	10872
scalar tree_4_3_u04_r8_network.node[12].core_layer 	data[12] 	8493
scalar tree_4_3_u04_r8_network.node[12].content_store 	p_hit[12] 	0.21881898454746
scalar tree_4_3_u04_r8_network.node[12].content_store 	hits[12] 	2379
scalar tree_4_3_u04_r8_network.node[12].content_store 	misses[12] 	8493
scalar tree_4_3_u04_r8_network.node[12].content_store 	decision_yes[12] 	65
scalar tree_4_3_u04_r8_network.node[12].content_store 	decision_no[12] 	8428
scalar tree_4_3_u04_r8_network.node[12].content_store 	decision_ratio[12] 	0.0076533615918992
scalar tree_4_3_u04_r8_network.node[13].core_layer 	interests[13] 	12146
scalar tree_4_3_u04_r8_network.node[13].core_layer 	data[13] 	8558
scalar tree_4_3_u04_r8_network.node[13].content_store 	p_hit[13] 	0.29540589494484
scalar tree_4_3_u04_r8_network.node[13].content_store 	hits[13] 	3588
scalar tree_4_3_u04_r8_network.node[13].content_store 	misses[13] 	8558
scalar tree_4_3_u04_r8_network.node[13].content_store 	decision_yes[13] 	26
scalar tree_4_3_u04_r8_network.node[13].content_store 	decision_no[13] 	8532
scalar tree_4_3_u04_r8_network.node[13].content_store 	decision_ratio[13] 	0.0030380930123861
scalar tree_4_3_u04_r8_network.node[14].core_layer 	interests[14] 	12118
scalar tree_4_3_u04_r8_network.node[14].core_layer 	data[14] 	8505
scalar tree_4_3_u04_r8_network.node[14].content_store 	p_hit[14] 	0.29815151015019
scalar tree_4_3_u04_r8_network.node[14].content_store 	hits[14] 	3613
scalar tree_4_3_u04_r8_network.node[14].content_store 	misses[14] 	8505
scalar tree_4_3_u04_r8_network.node[14].content_store 	decision_yes[14] 	29
scalar tree_4_3_u04_r8_network.node[14].content_store 	decision_no[14] 	8476
scalar tree_4_3_u04_r8_network.node[14].content_store 	decision_ratio[14] 	0.0034097589653145
scalar tree_4_3_u04_r8_network.node[15].core_layer 	interests[15] 	12453
scalar tree_4_3_u04_r8_network.node[15].core_layer 	data[15] 	8562
scalar tree_4_3_u04_r8_network.node[15].content_store 	p_hit[15] 	0.31237452822613
scalar tree_4_3_u04_r8_network.node[15].content_store 	hits[15] 	3890
scalar tree_4_3_u04_r8_network.node[15].content_store 	misses[15] 	8563
scalar tree_4_3_u04_r8_network.node[15].content_store 	decision_yes[15] 	44
scalar tree_4_3_u04_r8_network.node[15].content_store 	decision_no[15] 	8518
scalar tree_4_3_u04_r8_network.node[15].content_store 	decision_ratio[15] 	0.0051389862181733
scalar tree_4_3_u04_r8_network.node[16].core_layer 	interests[16] 	12353
scalar tree_4_3_u04_r8_network.node[16].core_layer 	data[16] 	8610
scalar tree_4_3_u04_r8_network.node[16].content_store 	p_hit[16] 	0.30300331903181
scalar tree_4_3_u04_r8_network.node[16].content_store 	hits[16] 	3743
scalar tree_4_3_u04_r8_network.node[16].content_store 	misses[16] 	8610
scalar tree_4_3_u04_r8_network.node[16].content_store 	decision_yes[16] 	44
scalar tree_4_3_u04_r8_network.node[16].content_store 	decision_no[16] 	8566
scalar tree_4_3_u04_r8_network.node[16].content_store 	decision_ratio[16] 	0.0051103368176539
scalar tree_4_3_u04_r8_network.node[17].core_layer 	interests[17] 	12226
scalar tree_4_3_u04_r8_network.node[17].core_layer 	data[17] 	8659
scalar tree_4_3_u04_r8_network.node[17].content_store 	p_hit[17] 	0.29175527564207
scalar tree_4_3_u04_r8_network.node[17].content_store 	hits[17] 	3567
scalar tree_4_3_u04_r8_network.node[17].content_store 	misses[17] 	8659
scalar tree_4_3_u04_r8_network.node[17].content_store 	decision_yes[17] 	21
scalar tree_4_3_u04_r8_network.node[17].content_store 	decision_no[17] 	8638
scalar tree_4_3_u04_r8_network.node[17].content_store 	decision_ratio[17] 	0.0024252223120453
scalar tree_4_3_u04_r8_network.node[18].core_layer 	interests[18] 	12035
scalar tree_4_3_u04_r8_network.node[18].core_layer 	data[18] 	8558
scalar tree_4_3_u04_r8_network.node[18].content_store 	p_hit[18] 	0.28882426256751
scalar tree_4_3_u04_r8_network.node[18].content_store 	hits[18] 	3476
scalar tree_4_3_u04_r8_network.node[18].content_store 	misses[18] 	8559
scalar tree_4_3_u04_r8_network.node[18].content_store 	decision_yes[18] 	22
scalar tree_4_3_u04_r8_network.node[18].content_store 	decision_no[18] 	8536
scalar tree_4_3_u04_r8_network.node[18].content_store 	decision_ratio[18] 	0.0025706940874036
scalar tree_4_3_u04_r8_network.node[19].core_layer 	interests[19] 	12347
scalar tree_4_3_u04_r8_network.node[19].core_layer 	data[19] 	8829
scalar tree_4_3_u04_r8_network.node[19].content_store 	p_hit[19] 	0.28492751275614
scalar tree_4_3_u04_r8_network.node[19].content_store 	hits[19] 	3518
scalar tree_4_3_u04_r8_network.node[19].content_store 	misses[19] 	8829
scalar tree_4_3_u04_r8_network.node[19].content_store 	decision_yes[19] 	32
scalar tree_4_3_u04_r8_network.node[19].content_store 	decision_no[19] 	8797
scalar tree_4_3_u04_r8_network.node[19].content_store 	decision_ratio[19] 	0.0036244195265602
scalar tree_4_3_u04_r8_network.node[20].core_layer 	interests[20] 	12408
scalar tree_4_3_u04_r8_network.node[20].core_layer 	data[20] 	8763
scalar tree_4_3_u04_r8_network.node[20].content_store 	p_hit[20] 	0.29376208897485
scalar tree_4_3_u04_r8_network.node[20].content_store 	hits[20] 	3645
scalar tree_4_3_u04_r8_network.node[20].content_store 	misses[20] 	8763
scalar tree_4_3_u04_r8_network.node[20].content_store 	decision_yes[20] 	24
scalar tree_4_3_u04_r8_network.node[20].content_store 	decision_no[20] 	8739
scalar tree_4_3_u04_r8_network.node[20].content_store 	decision_ratio[20] 	0.0027387880862718
scalar tree_4_3_u04_r8_network.node[21].core_layer 	interests[21] 	12245
scalar tree_4_3_u04_r8_network.node[21].core_layer 	data[21] 	8671
scalar tree_4_3_u04_r8_network.node[21].content_store 	p_hit[21] 	0.29187423438138
scalar tree_4_3_u04_r8_network.node[21].content_store 	hits[21] 	3574
scalar tree_4_3_u04_r8_network.node[21].content_store 	misses[21] 	8671
scalar tree_4_3_u04_r8_network.node[21].content_store 	decision_yes[21] 	26
scalar tree_4_3_u04_r8_network.node[21].content_store 	decision_no[21] 	8645
scalar tree_4_3_u04_r8_network.node[21].content_store 	decision_ratio[21] 	0.0029985007496252
scalar tree_4_3_u04_r8_network.node[22].core_layer 	interests[22] 	12510
scalar tree_4_3_u04_r8_network.node[22].core_layer 	data[22] 	8851
scalar tree_4_3_u04_r8_network.node[22].content_store 	p_hit[22] 	0.29248601119105
scalar tree_4_3_u04_r8_network.node[22].content_store 	hits[22] 	3659
scalar tree_4_3_u04_r8_network.node[22].content_store 	misses[22] 	8851
scalar tree_4_3_u04_r8_network.node[22].content_store 	decision_yes[22] 	20
scalar tree_4_3_u04_r8_network.node[22].content_store 	decision_no[22] 	8831
scalar tree_4_3_u04_r8_network.node[22].content_store 	decision_ratio[22] 	0.0022596316800362
scalar tree_4_3_u04_r8_network.node[23].core_layer 	interests[23] 	12158
scalar tree_4_3_u04_r8_network.node[23].core_layer 	data[23] 	8544
scalar tree_4_3_u04_r8_network.node[23].content_store 	p_hit[23] 	0.29725283763777
scalar tree_4_3_u04_r8_network.node[23].content_store 	hits[23] 	3614
scalar tree_4_3_u04_r8_network.node[23].content_store 	misses[23] 	8544
scalar tree_4_3_u04_r8_network.node[23].content_store 	decision_yes[23] 	23
scalar tree_4_3_u04_r8_network.node[23].content_store 	decision_no[23] 	8521
scalar tree_4_3_u04_r8_network.node[23].content_store 	decision_ratio[23] 	0.0026919475655431
scalar tree_4_3_u04_r8_network.node[24].core_layer 	interests[24] 	12282
scalar tree_4_3_u04_r8_network.node[24].core_layer 	data[24] 	8664
scalar tree_4_3_u04_r8_network.node[24].content_store 	p_hit[24] 	0.29457743038593
scalar tree_4_3_u04_r8_network.node[24].content_store 	hits[24] 	3618
scalar tree_4_3_u04_r8_network.node[24].content_store 	misses[24] 	8664
scalar tree_4_3_u04_r8_network.node[24].content_store 	decision_yes[24] 	23
scalar tree_4_3_u04_r8_network.node[24].content_store 	decision_no[24] 	8641
scalar tree_4_3_u04_r8_network.node[24].content_store 	decision_ratio[24] 	0.0026546629732225
scalar tree_4_3_u04_r8_network.node[25].core_layer 	interests[25] 	11964
scalar tree_4_3_u04_r8_network.node[25].core_layer 	data[25] 	8417
scalar tree_4_3_u04_r8_network.node[25].content_store 	p_hit[25] 	0.2964727515881
scalar tree_4_3_u04_r8_network.node[25].content_store 	hits[25] 	3547
scalar tree_4_3_u04_r8_network.node[25].content_store 	misses[25] 	8417
scalar tree_4_3_u04_r8_network.node[25].content_store 	decision_yes[25] 	23
scalar tree_4_3_u04_r8_network.node[25].content_store 	decision_no[25] 	8394
scalar tree_4_3_u04_r8_network.node[25].content_store 	decision_ratio[25] 	0.0027325650469288
scalar tree_4_3_u04_r8_network.node[26].core_layer 	interests[26] 	11992
scalar tree_4_3_u04_r8_network.node[26].core_layer 	data[26] 	8532
scalar tree_4_3_u04_r8_network.node[26].content_store 	p_hit[26] 	0.28844229486324
scalar tree_4_3_u04_r8_network.node[26].content_store 	hits[26] 	3459
scalar tree_4_3_u04_r8_network.node[26].content_store 	misses[26] 	8533
scalar tree_4_3_u04_r8_network.node[26].content_store 	decision_yes[26] 	32
scalar tree_4_3_u04_r8_network.node[26].content_store 	decision_no[26] 	8500
scalar tree_4_3_u04_r8_network.node[26].content_store 	decision_ratio[26] 	0.003750586029067
scalar tree_4_3_u04_r8_network.node[27].core_layer 	interests[27] 	12235
scalar tree_4_3_u04_r8_network.node[27].core_layer 	data[27] 	8690
scalar tree_4_3_u04_r8_network.node[27].content_store 	p_hit[27] 	0.28974254188803
scalar tree_4_3_u04_r8_network.node[27].content_store 	hits[27] 	3545
scalar tree_4_3_u04_r8_network.node[27].content_store 	misses[27] 	8690
scalar tree_4_3_u04_r8_network.node[27].content_store 	decision_yes[27] 	22
scalar tree_4_3_u04_r8_network.node[27].content_store 	decision_no[27] 	8668
scalar tree_4_3_u04_r8_network.node[27].content_store 	decision_ratio[27] 	0.0025316455696203
scalar tree_4_3_u04_r8_network.node[28].core_layer 	interests[28] 	12643
scalar tree_4_3_u04_r8_network.node[28].core_layer 	data[28] 	8746
scalar tree_4_3_u04_r8_network.node[28].content_store 	p_hit[28] 	0.3083129004192
scalar tree_4_3_u04_r8_network.node[28].content_store 	hits[28] 	3898
scalar tree_4_3_u04_r8_network.node[28].content_store 	misses[28] 	8745
scalar tree_4_3_u04_r8_network.node[28].content_store 	decision_yes[28] 	44
scalar tree_4_3_u04_r8_network.node[28].content_store 	decision_no[28] 	8702
scalar tree_4_3_u04_r8_network.node[28].content_store 	decision_ratio[28] 	0.0050308712554311
scalar tree_4_3_u04_r8_network.node[29].core_layer 	interests[29] 	12126
scalar tree_4_3_u04_r8_network.node[29].core_layer 	data[29] 	8476
scalar tree_4_3_u04_r8_network.node[29].content_store 	p_hit[29] 	0.30100610258948
scalar tree_4_3_u04_r8_network.node[29].content_store 	hits[29] 	3650
scalar tree_4_3_u04_r8_network.node[29].content_store 	misses[29] 	8476
scalar tree_4_3_u04_r8_network.node[29].content_store 	decision_yes[29] 	17
scalar tree_4_3_u04_r8_network.node[29].content_store 	decision_no[29] 	8459
scalar tree_4_3_u04_r8_network.node[29].content_store 	decision_ratio[29] 	0.0020056630486078
scalar tree_4_3_u04_r8_network.node[30].core_layer 	interests[30] 	12291
scalar tree_4_3_u04_r8_network.node[30].core_layer 	data[30] 	8638
scalar tree_4_3_u04_r8_network.node[30].content_store 	p_hit[30] 	0.2972093401676
scalar tree_4_3_u04_r8_network.node[30].content_store 	hits[30] 	3653
scalar tree_4_3_u04_r8_network.node[30].content_store 	misses[30] 	8638
scalar tree_4_3_u04_r8_network.node[30].content_store 	decision_yes[30] 	16
scalar tree_4_3_u04_r8_network.node[30].content_store 	decision_no[30] 	8622
scalar tree_4_3_u04_r8_network.node[30].content_store 	decision_ratio[30] 	0.001852280620514
scalar tree_4_3_u04_r8_network.node[31].core_layer 	interests[31] 	12281
scalar tree_4_3_u04_r8_network.node[31].core_layer 	data[31] 	8650
scalar tree_4_3_u04_r8_network.node[31].content_store 	p_hit[31] 	0.29565996254377
scalar tree_4_3_u04_r8_network.node[31].content_store 	hits[31] 	3631
scalar tree_4_3_u04_r8_network.node[31].content_store 	misses[31] 	8650
scalar tree_4_3_u04_r8_network.node[31].content_store 	decision_yes[31] 	24
scalar tree_4_3_u04_r8_network.node[31].content_store 	decision_no[31] 	8626
scalar tree_4_3_u04_r8_network.node[31].content_store 	decision_ratio[31] 	0.0027745664739884
scalar tree_4_3_u04_r8_network.node[32].core_layer 	interests[32] 	12259
scalar tree_4_3_u04_r8_network.node[32].core_layer 	data[32] 	8760
scalar tree_4_3_u04_r8_network.node[32].content_store 	p_hit[32] 	0.28542295456399
scalar tree_4_3_u04_r8_network.node[32].content_store 	hits[32] 	3499
scalar tree_4_3_u04_r8_network.node[32].content_store 	misses[32] 	8760
scalar tree_4_3_u04_r8_network.node[32].content_store 	decision_yes[32] 	21
scalar tree_4_3_u04_r8_network.node[32].content_store 	decision_no[32] 	8739
scalar tree_4_3_u04_r8_network.node[32].content_store 	decision_ratio[32] 	0.0023972602739726
scalar tree_4_3_u04_r8_network.node[33].core_layer 	interests[33] 	12357
scalar tree_4_3_u04_r8_network.node[33].core_layer 	data[33] 	8682
scalar tree_4_3_u04_r8_network.node[33].content_store 	p_hit[33] 	0.29740228210731
scalar tree_4_3_u04_r8_network.node[33].content_store 	hits[33] 	3675
scalar tree_4_3_u04_r8_network.node[33].content_store 	misses[33] 	8682
scalar tree_4_3_u04_r8_network.node[33].content_store 	decision_yes[33] 	39
scalar tree_4_3_u04_r8_network.node[33].content_store 	decision_no[33] 	8643
scalar tree_4_3_u04_r8_network.node[33].content_store 	decision_ratio[33] 	0.0044920525224603
scalar tree_4_3_u04_r8_network.node[34].core_layer 	interests[34] 	12200
scalar tree_4_3_u04_r8_network.node[34].core_layer 	data[34] 	8622
scalar tree_4_3_u04_r8_network.node[34].content_store 	p_hit[34] 	0.29327868852459
scalar tree_4_3_u04_r8_network.node[34].content_store 	hits[34] 	3578
scalar tree_4_3_u04_r8_network.node[34].content_store 	misses[34] 	8622
scalar tree_4_3_u04_r8_network.node[34].content_store 	decision_yes[34] 	23
scalar tree_4_3_u04_r8_network.node[34].content_store 	decision_no[34] 	8599
scalar tree_4_3_u04_r8_network.node[34].content_store 	decision_ratio[34] 	0.0026675945256321
scalar tree_4_3_u04_r8_network.node[35].core_layer 	interests[35] 	12190
scalar tree_4_3_u04_r8_network.node[35].core_layer 	data[35] 	8704
scalar tree_4_3_u04_r8_network.node[35].content_store 	p_hit[35] 	0.28597210828548
scalar tree_4_3_u04_r8_network.node[35].content_store 	hits[35] 	3486
scalar tree_4_3_u04_r8_network.node[35].content_store 	misses[35] 	8704
scalar tree_4_3_u04_r8_network.node[35].content_store 	decision_yes[35] 	22
scalar tree_4_3_u04_r8_network.node[35].content_store 	decision_no[35] 	8682
scalar tree_4_3_u04_r8_network.node[35].content_store 	decision_ratio[35] 	0.0025275735294118
scalar tree_4_3_u04_r8_network.node[36].core_layer 	interests[36] 	12189
scalar tree_4_3_u04_r8_network.node[36].core_layer 	data[36] 	8632
scalar tree_4_3_u04_r8_network.node[36].content_store 	p_hit[36] 	0.29182049388793
scalar tree_4_3_u04_r8_network.node[36].content_store 	hits[36] 	3557
scalar tree_4_3_u04_r8_network.node[36].content_store 	misses[36] 	8632
scalar tree_4_3_u04_r8_network.node[36].content_store 	decision_yes[36] 	49
scalar tree_4_3_u04_r8_network.node[36].content_store 	decision_no[36] 	8583
scalar tree_4_3_u04_r8_network.node[36].content_store 	decision_ratio[36] 	0.0056765523632994
scalar tree_4_3_u04_r8_network.node[37].core_layer 	interests[37] 	12182
scalar tree_4_3_u04_r8_network.node[37].core_layer 	data[37] 	8578
scalar tree_4_3_u04_r8_network.node[37].content_store 	p_hit[37] 	0.29584633065178
scalar tree_4_3_u04_r8_network.node[37].content_store 	hits[37] 	3604
scalar tree_4_3_u04_r8_network.node[37].content_store 	misses[37] 	8578
scalar tree_4_3_u04_r8_network.node[37].content_store 	decision_yes[37] 	42
scalar tree_4_3_u04_r8_network.node[37].content_store 	decision_no[37] 	8536
scalar tree_4_3_u04_r8_network.node[37].content_store 	decision_ratio[37] 	0.0048962462112381
scalar tree_4_3_u04_r8_network.node[38].core_layer 	interests[38] 	12298
scalar tree_4_3_u04_r8_network.node[38].core_layer 	data[38] 	8653
scalar tree_4_3_u04_r8_network.node[38].content_store 	p_hit[38] 	0.29630834281997
scalar tree_4_3_u04_r8_network.node[38].content_store 	hits[38] 	3644
scalar tree_4_3_u04_r8_network.node[38].content_store 	misses[38] 	8654
scalar tree_4_3_u04_r8_network.node[38].content_store 	decision_yes[38] 	51
scalar tree_4_3_u04_r8_network.node[38].content_store 	decision_no[38] 	8602
scalar tree_4_3_u04_r8_network.node[38].content_store 	decision_ratio[38] 	0.0058939096267191
scalar tree_4_3_u04_r8_network.node[39].core_layer 	interests[39] 	12141
scalar tree_4_3_u04_r8_network.node[39].core_layer 	data[39] 	8605
scalar tree_4_3_u04_r8_network.node[39].content_store 	p_hit[39] 	0.29124454328309
scalar tree_4_3_u04_r8_network.node[39].content_store 	hits[39] 	3536
scalar tree_4_3_u04_r8_network.node[39].content_store 	misses[39] 	8605
scalar tree_4_3_u04_r8_network.node[39].content_store 	decision_yes[39] 	36
scalar tree_4_3_u04_r8_network.node[39].content_store 	decision_no[39] 	8569
scalar tree_4_3_u04_r8_network.node[39].content_store 	decision_ratio[39] 	0.0041836141778036
scalar tree_4_3_u04_r8_network.client[13] 	hdistance[13] 	2.6316626223747
scalar tree_4_3_u04_r8_network.client[13] 	downloads[13] 	11951
scalar tree_4_3_u04_r8_network.client[13] 	avg_time[13] 	0.00406543088
scalar tree_4_3_u04_r8_network.client[14] 	hdistance[14] 	2.6223488976444
scalar tree_4_3_u04_r8_network.client[14] 	downloads[14] 	11929
scalar tree_4_3_u04_r8_network.client[14] 	avg_time[14] 	0.004049120984
scalar tree_4_3_u04_r8_network.client[15] 	hdistance[15] 	2.591272849802
scalar tree_4_3_u04_r8_network.client[15] 	downloads[15] 	11871
scalar tree_4_3_u04_r8_network.client[15] 	avg_time[15] 	0.003994326414
scalar tree_4_3_u04_r8_network.client[16] 	hdistance[16] 	2.6172325976231
scalar tree_4_3_u04_r8_network.client[16] 	downloads[16] 	11780
scalar tree_4_3_u04_r8_network.client[16] 	avg_time[16] 	0.004040234733
scalar tree_4_3_u04_r8_network.client[17] 	hdistance[17] 	2.6309969235886
scalar tree_4_3_u04_r8_network.client[17] 	downloads[17] 	12027
scalar tree_4_3_u04_r8_network.client[17] 	avg_time[17] 	0.004079983703
scalar tree_4_3_u04_r8_network.client[18] 	hdistance[18] 	2.6422908232119
scalar tree_4_3_u04_r8_network.client[18] 	downloads[18] 	11856
scalar tree_4_3_u04_r8_network.client[18] 	avg_time[18] 	0.004087716352
scalar tree_4_3_u04_r8_network.client[19] 	hdistance[19] 	2.6650753148407
scalar tree_4_3_u04_r8_network.client[19] 	downloads[19] 	12149
scalar tree_4_3_u04_r8_network.client[19] 	avg_time[19] 	0.004120171466
scalar tree_4_3_u04_r8_network.client[20] 	hdistance[20] 	2.6470539963893
scalar tree_4_3_u04_r8_network.client[20] 	downloads[20] 	12186
scalar tree_4_3_u04_r8_network.client[20] 	avg_time[20] 	0.004087423133
scalar tree_4_3_u04_r8_network.client[21] 	hdistance[21] 	2.647786728677
scalar tree_4_3_u04_r8_network.client[21] 	downloads[21] 	12041
scalar tree_4_3_u04_r8_network.client[21] 	avg_time[21] 	0.004093012529
scalar tree_4_3_u04_r8_network.client[22] 	hdistance[22] 	2.6441717791411
scalar tree_4_3_u04_r8_network.client[22] 	downloads[22] 	12225
scalar tree_4_3_u04_r8_network.client[22] 	avg_time[22] 	0.004089462382
scalar tree_4_3_u04_r8_network.client[23] 	hdistance[23] 	2.6202649118367
scalar tree_4_3_u04_r8_network.client[23] 	downloads[23] 	11853
scalar tree_4_3_u04_r8_network.client[23] 	avg_time[23] 	0.004056702982
scalar tree_4_3_u04_r8_network.client[24] 	hdistance[24] 	2.6306675589761
scalar tree_4_3_u04_r8_network.client[24] 	downloads[24] 	11954
scalar tree_4_3_u04_r8_network.client[24] 	avg_time[24] 	0.004071437529
scalar tree_4_3_u04_r8_network.client[25] 	hdistance[25] 	2.6371855010661
scalar tree_4_3_u04_r8_network.client[25] 	downloads[25] 	11725
scalar tree_4_3_u04_r8_network.client[25] 	avg_time[25] 	0.004070274255
scalar tree_4_3_u04_r8_network.client[26] 	hdistance[26] 	2.6635339937347
scalar tree_4_3_u04_r8_network.client[26] 	downloads[26] 	11811
scalar tree_4_3_u04_r8_network.client[26] 	avg_time[26] 	0.004110576628
scalar tree_4_3_u04_r8_network.client[27] 	hdistance[27] 	2.6668047729533
scalar tree_4_3_u04_r8_network.client[27] 	downloads[27] 	12068
scalar tree_4_3_u04_r8_network.client[27] 	avg_time[27] 	0.004110205781
scalar tree_4_3_u04_r8_network.client[28] 	hdistance[28] 	2.583077306319
scalar tree_4_3_u04_r8_network.client[28] 	downloads[28] 	12043
scalar tree_4_3_u04_r8_network.client[28] 	avg_time[28] 	0.003997080353
scalar tree_4_3_u04_r8_network.client[29] 	hdistance[29] 	2.6133154001345
scalar tree_4_3_u04_r8_network.client[29] 	downloads[29] 	11896
scalar tree_4_3_u04_r8_network.client[29] 	avg_time[29] 	0.004044717971
scalar tree_4_3_u04_r8_network.client[30] 	hdistance[30] 	2.6124730826569
scalar tree_4_3_u04_r8_network.client[30] 	downloads[30] 	12074
scalar tree_4_3_u04_r8_network.client[30] 	avg_time[30] 	0.004049359248
scalar tree_4_3_u04_r8_network.client[31] 	hdistance[31] 	2.642101784534
scalar tree_4_3_u04_r8_network.client[31] 	downloads[31] 	12104
scalar tree_4_3_u04_r8_network.client[31] 	avg_time[31] 	0.004070386963
scalar tree_4_3_u04_r8_network.client[32] 	hdistance[32] 	2.6666941807676
scalar tree_4_3_u04_r8_network.client[32] 	downloads[32] 	12115
scalar tree_4_3_u04_r8_network.client[32] 	avg_time[32] 	0.00411043856
scalar tree_4_3_u04_r8_network.client[33] 	hdistance[33] 	2.6304529500251
scalar tree_4_3_u04_r8_network.client[33] 	downloads[33] 	11966
scalar tree_4_3_u04_r8_network.client[33] 	avg_time[33] 	0.004044456313
scalar tree_4_3_u04_r8_network.client[34] 	hdistance[34] 	2.6513026052104
scalar tree_4_3_u04_r8_network.client[34] 	downloads[34] 	11976
scalar tree_4_3_u04_r8_network.client[34] 	avg_time[34] 	0.004086169347
scalar tree_4_3_u04_r8_network.client[35] 	hdistance[35] 	2.66972400567
scalar tree_4_3_u04_r8_network.client[35] 	downloads[35] 	11993
scalar tree_4_3_u04_r8_network.client[35] 	avg_time[35] 	0.004115230883
scalar tree_4_3_u04_r8_network.client[36] 	hdistance[36] 	2.6398786959818
scalar tree_4_3_u04_r8_network.client[36] 	downloads[36] 	11871
scalar tree_4_3_u04_r8_network.client[36] 	avg_time[36] 	0.004055426237
scalar tree_4_3_u04_r8_network.client[37] 	hdistance[37] 	2.6262259046331
scalar tree_4_3_u04_r8_network.client[37] 	downloads[37] 	11828
scalar tree_4_3_u04_r8_network.client[37] 	avg_time[37] 	0.004039395074
scalar tree_4_3_u04_r8_network.client[38] 	hdistance[38] 	2.6131704459878
scalar tree_4_3_u04_r8_network.client[38] 	downloads[38] 	11951
scalar tree_4_3_u04_r8_network.client[38] 	avg_time[38] 	0.004019577003
scalar tree_4_3_u04_r8_network.client[39] 	hdistance[39] 	2.6337910944652
scalar tree_4_3_u04_r8_network.client[39] 	downloads[39] 	12015
scalar tree_4_3_u04_r8_network.client[39] 	avg_time[39] 	0.00405892335
