version 2
run General-109-20160831-21:32:36-8710
attr a 0.9
attr cd ffc0.25
attr configname General
attr cr lru
attr datetime 20160831-21:32:36
attr experiment General
attr fsize 1
attr inifile hw5115/scenario_Y/omnetp.ini
attr iterationvars "$name=tree_4_3, $un=01, $rep=17, $cd=ffc0.25, $cr=lru, $fsize=1, $a=0.9, $sl=nrr, $ttl=1000, $variance=0.05"
attr iterationvars2 "$name=tree_4_3, $un=01, $rep=17, $cd=ffc0.25, $cr=lru, $fsize=1, $a=0.9, $sl=nrr, $ttl=1000, $variance=0.05, $repetition=0"
attr measurement "$name=tree_4_3, $un=01, $rep=17, $cd=ffc0.25, $cr=lru, $fsize=1, $a=0.9, $sl=nrr, $ttl=1000, $variance=0.05"
attr name tree_4_3
attr network networks.${name}_u${un}_r${rep}_network
attr processid 8710
attr rep 17
attr repetition 0
attr replication #0
attr resultdir results
attr runnumber 109
attr seedset 17
attr sl nrr
attr ttl 1000
attr un 01
attr variance 0.05

scalar . 	a 	0.9
scalar . 	fsize 	1
scalar . 	rep 	17
scalar . 	ttl 	1000
scalar . 	un 	01
scalar . 	variance 	0.05
scalar tree_4_3_u01_r17_network.content_distribution 	repo-0 	0
scalar tree_4_3_u01_r17_network.content_distribution 	client-0 	13
scalar tree_4_3_u01_r17_network.content_distribution 	client-1 	14
scalar tree_4_3_u01_r17_network.content_distribution 	client-2 	15
scalar tree_4_3_u01_r17_network.content_distribution 	client-3 	16
scalar tree_4_3_u01_r17_network.content_distribution 	client-4 	17
scalar tree_4_3_u01_r17_network.content_distribution 	client-5 	18
scalar tree_4_3_u01_r17_network.content_distribution 	client-6 	19
scalar tree_4_3_u01_r17_network.content_distribution 	client-7 	20
scalar tree_4_3_u01_r17_network.content_distribution 	client-8 	21
scalar tree_4_3_u01_r17_network.content_distribution 	client-9 	22
scalar tree_4_3_u01_r17_network.content_distribution 	client-10 	23
scalar tree_4_3_u01_r17_network.content_distribution 	client-11 	24
scalar tree_4_3_u01_r17_network.content_distribution 	client-12 	25
scalar tree_4_3_u01_r17_network.content_distribution 	client-13 	26
scalar tree_4_3_u01_r17_network.content_distribution 	client-14 	27
scalar tree_4_3_u01_r17_network.content_distribution 	client-15 	28
scalar tree_4_3_u01_r17_network.content_distribution 	client-16 	29
scalar tree_4_3_u01_r17_network.content_distribution 	client-17 	30
scalar tree_4_3_u01_r17_network.content_distribution 	client-18 	31
scalar tree_4_3_u01_r17_network.content_distribution 	client-19 	32
scalar tree_4_3_u01_r17_network.content_distribution 	client-20 	33
scalar tree_4_3_u01_r17_network.content_distribution 	client-21 	34
scalar tree_4_3_u01_r17_network.content_distribution 	client-22 	35
scalar tree_4_3_u01_r17_network.content_distribution 	client-23 	36
scalar tree_4_3_u01_r17_network.content_distribution 	client-24 	37
scalar tree_4_3_u01_r17_network.content_distribution 	client-25 	38
scalar tree_4_3_u01_r17_network.content_distribution 	client-26 	39
scalar tree_4_3_u01_r17_network.content_distribution 	repo-0_card 	100000
scalar tree_4_3_u01_r17_network.content_distribution 	repo-0_price 	0
scalar tree_4_3_u01_r17_network.statistics 	stabilization_time 	1701.1
scalar tree_4_3_u01_r17_network.statistics 	p_hit 	0.22544455830819
scalar tree_4_3_u01_r17_network.statistics 	interests 	24835.7
scalar tree_4_3_u01_r17_network.statistics 	data 	16741.025
scalar tree_4_3_u01_r17_network.statistics 	hdistance 	2.6481767938237
scalar tree_4_3_u01_r17_network.statistics 	avg_time 	0.004136316695
scalar tree_4_3_u01_r17_network.statistics 	downloads 	323784
scalar tree_4_3_u01_r17_network.statistics 	total_cost 	0
scalar tree_4_3_u01_r17_network.statistics 	total_replicas 	100000
scalar tree_4_3_u01_r17_network.statistics 	inner_hit 	0.42006090480073
scalar tree_4_3_u01_r17_network.node[0].core_layer 	interests[0] 	191471
scalar tree_4_3_u01_r17_network.node[0].core_layer 	repo_load[0] 	187775
scalar tree_4_3_u01_r17_network.node[0].core_layer 	data[0] 	0
scalar tree_4_3_u01_r17_network.node[0].core_layer 	repo_int[0] 	187775
scalar tree_4_3_u01_r17_network.node[0].content_store 	p_hit[0] 	0.019303184294227
scalar tree_4_3_u01_r17_network.node[0].content_store 	hits[0] 	3696
scalar tree_4_3_u01_r17_network.node[0].content_store 	misses[0] 	187775
scalar tree_4_3_u01_r17_network.node[0].content_store 	decision_yes[0] 	201
scalar tree_4_3_u01_r17_network.node[0].content_store 	decision_no[0] 	187574
scalar tree_4_3_u01_r17_network.node[0].content_store 	decision_ratio[0] 	0.0010704300359473
scalar tree_4_3_u01_r17_network.node[1].core_layer 	interests[1] 	69537
scalar tree_4_3_u01_r17_network.node[1].core_layer 	data[1] 	67292
scalar tree_4_3_u01_r17_network.node[1].content_store 	p_hit[1] 	0.032270589757971
scalar tree_4_3_u01_r17_network.node[1].content_store 	hits[1] 	2244
scalar tree_4_3_u01_r17_network.node[1].content_store 	misses[1] 	67293
scalar tree_4_3_u01_r17_network.node[1].content_store 	decision_yes[1] 	81
scalar tree_4_3_u01_r17_network.node[1].content_store 	decision_no[1] 	67211
scalar tree_4_3_u01_r17_network.node[1].content_store 	decision_ratio[1] 	0.0012037092076324
scalar tree_4_3_u01_r17_network.node[2].core_layer 	interests[2] 	70855
scalar tree_4_3_u01_r17_network.node[2].core_layer 	data[2] 	67992
scalar tree_4_3_u01_r17_network.node[2].content_store 	p_hit[2] 	0.040392350575118
scalar tree_4_3_u01_r17_network.node[2].content_store 	hits[2] 	2862
scalar tree_4_3_u01_r17_network.node[2].content_store 	misses[2] 	67993
scalar tree_4_3_u01_r17_network.node[2].content_store 	decision_yes[2] 	100
scalar tree_4_3_u01_r17_network.node[2].content_store 	decision_no[2] 	67892
scalar tree_4_3_u01_r17_network.node[2].content_store 	decision_ratio[2] 	0.0014707612660313
scalar tree_4_3_u01_r17_network.node[3].core_layer 	interests[3] 	73597
scalar tree_4_3_u01_r17_network.node[3].core_layer 	data[3] 	70197
scalar tree_4_3_u01_r17_network.node[3].content_store 	p_hit[3] 	0.046143185184179
scalar tree_4_3_u01_r17_network.node[3].content_store 	hits[3] 	3396
scalar tree_4_3_u01_r17_network.node[3].content_store 	misses[3] 	70201
scalar tree_4_3_u01_r17_network.node[3].content_store 	decision_yes[3] 	114
scalar tree_4_3_u01_r17_network.node[3].content_store 	decision_no[3] 	70083
scalar tree_4_3_u01_r17_network.node[3].content_store 	decision_ratio[3] 	0.0016240010256849
scalar tree_4_3_u01_r17_network.node[4].core_layer 	interests[4] 	27405
scalar tree_4_3_u01_r17_network.node[4].core_layer 	data[4] 	25331
scalar tree_4_3_u01_r17_network.node[4].content_store 	p_hit[4] 	0.075679620507207
scalar tree_4_3_u01_r17_network.node[4].content_store 	hits[4] 	2074
scalar tree_4_3_u01_r17_network.node[4].content_store 	misses[4] 	25331
scalar tree_4_3_u01_r17_network.node[4].content_store 	decision_yes[4] 	72
scalar tree_4_3_u01_r17_network.node[4].content_store 	decision_no[4] 	25259
scalar tree_4_3_u01_r17_network.node[4].content_store 	decision_ratio[4] 	0.002842367060124
scalar tree_4_3_u01_r17_network.node[5].core_layer 	interests[5] 	28927
scalar tree_4_3_u01_r17_network.node[5].core_layer 	data[5] 	25654
scalar tree_4_3_u01_r17_network.node[5].content_store 	p_hit[5] 	0.11307774743319
scalar tree_4_3_u01_r17_network.node[5].content_store 	hits[5] 	3271
scalar tree_4_3_u01_r17_network.node[5].content_store 	misses[5] 	25656
scalar tree_4_3_u01_r17_network.node[5].content_store 	decision_yes[5] 	72
scalar tree_4_3_u01_r17_network.node[5].content_store 	decision_no[5] 	25582
scalar tree_4_3_u01_r17_network.node[5].content_store 	decision_ratio[5] 	0.0028065798705855
scalar tree_4_3_u01_r17_network.node[6].core_layer 	interests[6] 	27051
scalar tree_4_3_u01_r17_network.node[6].core_layer 	data[6] 	24784
scalar tree_4_3_u01_r17_network.node[6].content_store 	p_hit[6] 	0.083804665261913
scalar tree_4_3_u01_r17_network.node[6].content_store 	hits[6] 	2267
scalar tree_4_3_u01_r17_network.node[6].content_store 	misses[6] 	24784
scalar tree_4_3_u01_r17_network.node[6].content_store 	decision_yes[6] 	56
scalar tree_4_3_u01_r17_network.node[6].content_store 	decision_no[6] 	24728
scalar tree_4_3_u01_r17_network.node[6].content_store 	decision_ratio[6] 	0.0022595222724338
scalar tree_4_3_u01_r17_network.node[7].core_layer 	interests[7] 	26829
scalar tree_4_3_u01_r17_network.node[7].core_layer 	data[7] 	24844
scalar tree_4_3_u01_r17_network.node[7].content_store 	p_hit[7] 	0.073949830407395
scalar tree_4_3_u01_r17_network.node[7].content_store 	hits[7] 	1984
scalar tree_4_3_u01_r17_network.node[7].content_store 	misses[7] 	24845
scalar tree_4_3_u01_r17_network.node[7].content_store 	decision_yes[7] 	54
scalar tree_4_3_u01_r17_network.node[7].content_store 	decision_no[7] 	24790
scalar tree_4_3_u01_r17_network.node[7].content_store 	decision_ratio[7] 	0.002173563033328
scalar tree_4_3_u01_r17_network.node[8].core_layer 	interests[8] 	27596
scalar tree_4_3_u01_r17_network.node[8].core_layer 	data[8] 	24987
scalar tree_4_3_u01_r17_network.node[8].content_store 	p_hit[8] 	0.094542687345992
scalar tree_4_3_u01_r17_network.node[8].content_store 	hits[8] 	2609
scalar tree_4_3_u01_r17_network.node[8].content_store 	misses[8] 	24987
scalar tree_4_3_u01_r17_network.node[8].content_store 	decision_yes[8] 	67
scalar tree_4_3_u01_r17_network.node[8].content_store 	decision_no[8] 	24920
scalar tree_4_3_u01_r17_network.node[8].content_store 	decision_ratio[8] 	0.002681394325049
scalar tree_4_3_u01_r17_network.node[9].core_layer 	interests[9] 	29671
scalar tree_4_3_u01_r17_network.node[9].core_layer 	data[9] 	25984
scalar tree_4_3_u01_r17_network.node[9].content_store 	p_hit[9] 	0.12426274813791
scalar tree_4_3_u01_r17_network.node[9].content_store 	hits[9] 	3687
scalar tree_4_3_u01_r17_network.node[9].content_store 	misses[9] 	25984
scalar tree_4_3_u01_r17_network.node[9].content_store 	decision_yes[9] 	82
scalar tree_4_3_u01_r17_network.node[9].content_store 	decision_no[9] 	25902
scalar tree_4_3_u01_r17_network.node[9].content_store 	decision_ratio[9] 	0.0031557881773399
scalar tree_4_3_u01_r17_network.node[10].core_layer 	interests[10] 	27470
scalar tree_4_3_u01_r17_network.node[10].core_layer 	data[10] 	25084
scalar tree_4_3_u01_r17_network.node[10].content_store 	p_hit[10] 	0.086821987622861
scalar tree_4_3_u01_r17_network.node[10].content_store 	hits[10] 	2385
scalar tree_4_3_u01_r17_network.node[10].content_store 	misses[10] 	25085
scalar tree_4_3_u01_r17_network.node[10].content_store 	decision_yes[10] 	75
scalar tree_4_3_u01_r17_network.node[10].content_store 	decision_no[10] 	25009
scalar tree_4_3_u01_r17_network.node[10].content_store 	decision_ratio[10] 	0.0029899537553819
scalar tree_4_3_u01_r17_network.node[11].core_layer 	interests[11] 	27812
scalar tree_4_3_u01_r17_network.node[11].core_layer 	data[11] 	25323
scalar tree_4_3_u01_r17_network.node[11].content_store 	p_hit[11] 	0.089493743707752
scalar tree_4_3_u01_r17_network.node[11].content_store 	hits[11] 	2489
scalar tree_4_3_u01_r17_network.node[11].content_store 	misses[11] 	25323
scalar tree_4_3_u01_r17_network.node[11].content_store 	decision_yes[11] 	66
scalar tree_4_3_u01_r17_network.node[11].content_store 	decision_no[11] 	25257
scalar tree_4_3_u01_r17_network.node[11].content_store 	decision_ratio[11] 	0.0026063262646606
scalar tree_4_3_u01_r17_network.node[12].core_layer 	interests[12] 	27938
scalar tree_4_3_u01_r17_network.node[12].core_layer 	data[12] 	25480
scalar tree_4_3_u01_r17_network.node[12].content_store 	p_hit[12] 	0.087980528312692
scalar tree_4_3_u01_r17_network.node[12].content_store 	hits[12] 	2458
scalar tree_4_3_u01_r17_network.node[12].content_store 	misses[12] 	25480
scalar tree_4_3_u01_r17_network.node[12].content_store 	decision_yes[12] 	79
scalar tree_4_3_u01_r17_network.node[12].content_store 	decision_no[12] 	25401
scalar tree_4_3_u01_r17_network.node[12].content_store 	decision_ratio[12] 	0.0031004709576138
scalar tree_4_3_u01_r17_network.node[13].core_layer 	interests[13] 	12343
scalar tree_4_3_u01_r17_network.node[13].core_layer 	data[13] 	8685
scalar tree_4_3_u01_r17_network.node[13].content_store 	p_hit[13] 	0.2963623106214
scalar tree_4_3_u01_r17_network.node[13].content_store 	hits[13] 	3658
scalar tree_4_3_u01_r17_network.node[13].content_store 	misses[13] 	8685
scalar tree_4_3_u01_r17_network.node[13].content_store 	decision_yes[13] 	30
scalar tree_4_3_u01_r17_network.node[13].content_store 	decision_no[13] 	8655
scalar tree_4_3_u01_r17_network.node[13].content_store 	decision_ratio[13] 	0.003454231433506
scalar tree_4_3_u01_r17_network.node[14].core_layer 	interests[14] 	12525
scalar tree_4_3_u01_r17_network.node[14].core_layer 	data[14] 	8826
scalar tree_4_3_u01_r17_network.node[14].content_store 	p_hit[14] 	0.29532934131737
scalar tree_4_3_u01_r17_network.node[14].content_store 	hits[14] 	3699
scalar tree_4_3_u01_r17_network.node[14].content_store 	misses[14] 	8826
scalar tree_4_3_u01_r17_network.node[14].content_store 	decision_yes[14] 	27
scalar tree_4_3_u01_r17_network.node[14].content_store 	decision_no[14] 	8799
scalar tree_4_3_u01_r17_network.node[14].content_store 	decision_ratio[14] 	0.0030591434398368
scalar tree_4_3_u01_r17_network.node[15].core_layer 	interests[15] 	12549
scalar tree_4_3_u01_r17_network.node[15].core_layer 	data[15] 	8892
scalar tree_4_3_u01_r17_network.node[15].content_store 	p_hit[15] 	0.29141764284007
scalar tree_4_3_u01_r17_network.node[15].content_store 	hits[15] 	3657
scalar tree_4_3_u01_r17_network.node[15].content_store 	misses[15] 	8892
scalar tree_4_3_u01_r17_network.node[15].content_store 	decision_yes[15] 	35
scalar tree_4_3_u01_r17_network.node[15].content_store 	decision_no[15] 	8857
scalar tree_4_3_u01_r17_network.node[15].content_store 	decision_ratio[15] 	0.003936122357175
scalar tree_4_3_u01_r17_network.node[16].core_layer 	interests[16] 	12664
scalar tree_4_3_u01_r17_network.node[16].core_layer 	data[16] 	8783
scalar tree_4_3_u01_r17_network.node[16].content_store 	p_hit[16] 	0.30645925457991
scalar tree_4_3_u01_r17_network.node[16].content_store 	hits[16] 	3881
scalar tree_4_3_u01_r17_network.node[16].content_store 	misses[16] 	8783
scalar tree_4_3_u01_r17_network.node[16].content_store 	decision_yes[16] 	20
scalar tree_4_3_u01_r17_network.node[16].content_store 	decision_no[16] 	8763
scalar tree_4_3_u01_r17_network.node[16].content_store 	decision_ratio[16] 	0.0022771262666515
scalar tree_4_3_u01_r17_network.node[17].core_layer 	interests[17] 	12520
scalar tree_4_3_u01_r17_network.node[17].core_layer 	data[17] 	8650
scalar tree_4_3_u01_r17_network.node[17].content_store 	p_hit[17] 	0.3091054313099
scalar tree_4_3_u01_r17_network.node[17].content_store 	hits[17] 	3870
scalar tree_4_3_u01_r17_network.node[17].content_store 	misses[17] 	8650
scalar tree_4_3_u01_r17_network.node[17].content_store 	decision_yes[17] 	28
scalar tree_4_3_u01_r17_network.node[17].content_store 	decision_no[17] 	8622
scalar tree_4_3_u01_r17_network.node[17].content_store 	decision_ratio[17] 	0.0032369942196532
scalar tree_4_3_u01_r17_network.node[18].core_layer 	interests[18] 	12769
scalar tree_4_3_u01_r17_network.node[18].core_layer 	data[18] 	8920
scalar tree_4_3_u01_r17_network.node[18].content_store 	p_hit[18] 	0.30143315843057
scalar tree_4_3_u01_r17_network.node[18].content_store 	hits[18] 	3849
scalar tree_4_3_u01_r17_network.node[18].content_store 	misses[18] 	8920
scalar tree_4_3_u01_r17_network.node[18].content_store 	decision_yes[18] 	35
scalar tree_4_3_u01_r17_network.node[18].content_store 	decision_no[18] 	8885
scalar tree_4_3_u01_r17_network.node[18].content_store 	decision_ratio[18] 	0.0039237668161435
scalar tree_4_3_u01_r17_network.node[19].core_layer 	interests[19] 	12256
scalar tree_4_3_u01_r17_network.node[19].core_layer 	data[19] 	8668
scalar tree_4_3_u01_r17_network.node[19].content_store 	p_hit[19] 	0.2927545691906
scalar tree_4_3_u01_r17_network.node[19].content_store 	hits[19] 	3588
scalar tree_4_3_u01_r17_network.node[19].content_store 	misses[19] 	8668
scalar tree_4_3_u01_r17_network.node[19].content_store 	decision_yes[19] 	28
scalar tree_4_3_u01_r17_network.node[19].content_store 	decision_no[19] 	8640
scalar tree_4_3_u01_r17_network.node[19].content_store 	decision_ratio[19] 	0.0032302722658053
scalar tree_4_3_u01_r17_network.node[20].core_layer 	interests[20] 	12196
scalar tree_4_3_u01_r17_network.node[20].core_layer 	data[20] 	8617
scalar tree_4_3_u01_r17_network.node[20].content_store 	p_hit[20] 	0.29337487700886
scalar tree_4_3_u01_r17_network.node[20].content_store 	hits[20] 	3578
scalar tree_4_3_u01_r17_network.node[20].content_store 	misses[20] 	8618
scalar tree_4_3_u01_r17_network.node[20].content_store 	decision_yes[20] 	17
scalar tree_4_3_u01_r17_network.node[20].content_store 	decision_no[20] 	8600
scalar tree_4_3_u01_r17_network.node[20].content_store 	decision_ratio[20] 	0.0019728443773935
scalar tree_4_3_u01_r17_network.node[21].core_layer 	interests[21] 	12545
scalar tree_4_3_u01_r17_network.node[21].core_layer 	data[21] 	8832
scalar tree_4_3_u01_r17_network.node[21].content_store 	p_hit[21] 	0.29597449182941
scalar tree_4_3_u01_r17_network.node[21].content_store 	hits[21] 	3713
scalar tree_4_3_u01_r17_network.node[21].content_store 	misses[21] 	8832
scalar tree_4_3_u01_r17_network.node[21].content_store 	decision_yes[21] 	22
scalar tree_4_3_u01_r17_network.node[21].content_store 	decision_no[21] 	8810
scalar tree_4_3_u01_r17_network.node[21].content_store 	decision_ratio[21] 	0.0024909420289855
scalar tree_4_3_u01_r17_network.node[22].core_layer 	interests[22] 	12338
scalar tree_4_3_u01_r17_network.node[22].core_layer 	data[22] 	8799
scalar tree_4_3_u01_r17_network.node[22].content_store 	p_hit[22] 	0.28683741287081
scalar tree_4_3_u01_r17_network.node[22].content_store 	hits[22] 	3539
scalar tree_4_3_u01_r17_network.node[22].content_store 	misses[22] 	8799
scalar tree_4_3_u01_r17_network.node[22].content_store 	decision_yes[22] 	24
scalar tree_4_3_u01_r17_network.node[22].content_store 	decision_no[22] 	8775
scalar tree_4_3_u01_r17_network.node[22].content_store 	decision_ratio[22] 	0.00272758267985
scalar tree_4_3_u01_r17_network.node[23].core_layer 	interests[23] 	12868
scalar tree_4_3_u01_r17_network.node[23].core_layer 	data[23] 	8803
scalar tree_4_3_u01_r17_network.node[23].content_store 	p_hit[23] 	0.31589990674541
scalar tree_4_3_u01_r17_network.node[23].content_store 	hits[23] 	4065
scalar tree_4_3_u01_r17_network.node[23].content_store 	misses[23] 	8803
scalar tree_4_3_u01_r17_network.node[23].content_store 	decision_yes[23] 	30
scalar tree_4_3_u01_r17_network.node[23].content_store 	decision_no[23] 	8773
scalar tree_4_3_u01_r17_network.node[23].content_store 	decision_ratio[23] 	0.0034079291150744
scalar tree_4_3_u01_r17_network.node[24].core_layer 	interests[24] 	12294
scalar tree_4_3_u01_r17_network.node[24].core_layer 	data[24] 	8802
scalar tree_4_3_u01_r17_network.node[24].content_store 	p_hit[24] 	0.28404099560761
scalar tree_4_3_u01_r17_network.node[24].content_store 	hits[24] 	3492
scalar tree_4_3_u01_r17_network.node[24].content_store 	misses[24] 	8802
scalar tree_4_3_u01_r17_network.node[24].content_store 	decision_yes[24] 	23
scalar tree_4_3_u01_r17_network.node[24].content_store 	decision_no[24] 	8779
scalar tree_4_3_u01_r17_network.node[24].content_store 	decision_ratio[24] 	0.0026130424903431
scalar tree_4_3_u01_r17_network.node[25].core_layer 	interests[25] 	12308
scalar tree_4_3_u01_r17_network.node[25].core_layer 	data[25] 	8636
scalar tree_4_3_u01_r17_network.node[25].content_store 	p_hit[25] 	0.29834254143646
scalar tree_4_3_u01_r17_network.node[25].content_store 	hits[25] 	3672
scalar tree_4_3_u01_r17_network.node[25].content_store 	misses[25] 	8636
scalar tree_4_3_u01_r17_network.node[25].content_store 	decision_yes[25] 	38
scalar tree_4_3_u01_r17_network.node[25].content_store 	decision_no[25] 	8598
scalar tree_4_3_u01_r17_network.node[25].content_store 	decision_ratio[25] 	0.0044001852709588
scalar tree_4_3_u01_r17_network.node[26].core_layer 	interests[26] 	12394
scalar tree_4_3_u01_r17_network.node[26].core_layer 	data[26] 	8706
scalar tree_4_3_u01_r17_network.node[26].content_store 	p_hit[26] 	0.29748265289656
scalar tree_4_3_u01_r17_network.node[26].content_store 	hits[26] 	3687
scalar tree_4_3_u01_r17_network.node[26].content_store 	misses[26] 	8707
scalar tree_4_3_u01_r17_network.node[26].content_store 	decision_yes[26] 	21
scalar tree_4_3_u01_r17_network.node[26].content_store 	decision_no[26] 	8685
scalar tree_4_3_u01_r17_network.node[26].content_store 	decision_ratio[26] 	0.0024121295658167
scalar tree_4_3_u01_r17_network.node[27].core_layer 	interests[27] 	12246
scalar tree_4_3_u01_r17_network.node[27].core_layer 	data[27] 	8610
scalar tree_4_3_u01_r17_network.node[27].content_store 	p_hit[27] 	0.296913277805
scalar tree_4_3_u01_r17_network.node[27].content_store 	hits[27] 	3636
scalar tree_4_3_u01_r17_network.node[27].content_store 	misses[27] 	8610
scalar tree_4_3_u01_r17_network.node[27].content_store 	decision_yes[27] 	21
scalar tree_4_3_u01_r17_network.node[27].content_store 	decision_no[27] 	8589
scalar tree_4_3_u01_r17_network.node[27].content_store 	decision_ratio[27] 	0.0024390243902439
scalar tree_4_3_u01_r17_network.node[28].core_layer 	interests[28] 	12705
scalar tree_4_3_u01_r17_network.node[28].core_layer 	data[28] 	8753
scalar tree_4_3_u01_r17_network.node[28].content_store 	p_hit[28] 	0.31105863833137
scalar tree_4_3_u01_r17_network.node[28].content_store 	hits[28] 	3952
scalar tree_4_3_u01_r17_network.node[28].content_store 	misses[28] 	8753
scalar tree_4_3_u01_r17_network.node[28].content_store 	decision_yes[28] 	26
scalar tree_4_3_u01_r17_network.node[28].content_store 	decision_no[28] 	8727
scalar tree_4_3_u01_r17_network.node[28].content_store 	decision_ratio[28] 	0.0029704101450931
scalar tree_4_3_u01_r17_network.node[29].core_layer 	interests[29] 	12875
scalar tree_4_3_u01_r17_network.node[29].core_layer 	data[29] 	8923
scalar tree_4_3_u01_r17_network.node[29].content_store 	p_hit[29] 	0.30695145631068
scalar tree_4_3_u01_r17_network.node[29].content_store 	hits[29] 	3952
scalar tree_4_3_u01_r17_network.node[29].content_store 	misses[29] 	8923
scalar tree_4_3_u01_r17_network.node[29].content_store 	decision_yes[29] 	31
scalar tree_4_3_u01_r17_network.node[29].content_store 	decision_no[29] 	8892
scalar tree_4_3_u01_r17_network.node[29].content_store 	decision_ratio[29] 	0.0034741678807576
scalar tree_4_3_u01_r17_network.node[30].core_layer 	interests[30] 	12487
scalar tree_4_3_u01_r17_network.node[30].core_layer 	data[30] 	8773
scalar tree_4_3_u01_r17_network.node[30].content_store 	p_hit[30] 	0.29742932649956
scalar tree_4_3_u01_r17_network.node[30].content_store 	hits[30] 	3714
scalar tree_4_3_u01_r17_network.node[30].content_store 	misses[30] 	8773
scalar tree_4_3_u01_r17_network.node[30].content_store 	decision_yes[30] 	29
scalar tree_4_3_u01_r17_network.node[30].content_store 	decision_no[30] 	8744
scalar tree_4_3_u01_r17_network.node[30].content_store 	decision_ratio[30] 	0.0033055967172005
scalar tree_4_3_u01_r17_network.node[31].core_layer 	interests[31] 	12514
scalar tree_4_3_u01_r17_network.node[31].core_layer 	data[31] 	8810
scalar tree_4_3_u01_r17_network.node[31].content_store 	p_hit[31] 	0.29598849288797
scalar tree_4_3_u01_r17_network.node[31].content_store 	hits[31] 	3704
scalar tree_4_3_u01_r17_network.node[31].content_store 	misses[31] 	8810
scalar tree_4_3_u01_r17_network.node[31].content_store 	decision_yes[31] 	36
scalar tree_4_3_u01_r17_network.node[31].content_store 	decision_no[31] 	8774
scalar tree_4_3_u01_r17_network.node[31].content_store 	decision_ratio[31] 	0.0040862656072645
scalar tree_4_3_u01_r17_network.node[32].core_layer 	interests[32] 	12340
scalar tree_4_3_u01_r17_network.node[32].core_layer 	data[32] 	8628
scalar tree_4_3_u01_r17_network.node[32].content_store 	p_hit[32] 	0.30081037277147
scalar tree_4_3_u01_r17_network.node[32].content_store 	hits[32] 	3712
scalar tree_4_3_u01_r17_network.node[32].content_store 	misses[32] 	8628
scalar tree_4_3_u01_r17_network.node[32].content_store 	decision_yes[32] 	27
scalar tree_4_3_u01_r17_network.node[32].content_store 	decision_no[32] 	8601
scalar tree_4_3_u01_r17_network.node[32].content_store 	decision_ratio[32] 	0.0031293463143255
scalar tree_4_3_u01_r17_network.node[33].core_layer 	interests[33] 	12454
scalar tree_4_3_u01_r17_network.node[33].core_layer 	data[33] 	8759
scalar tree_4_3_u01_r17_network.node[33].content_store 	p_hit[33] 	0.29669182591938
scalar tree_4_3_u01_r17_network.node[33].content_store 	hits[33] 	3695
scalar tree_4_3_u01_r17_network.node[33].content_store 	misses[33] 	8759
scalar tree_4_3_u01_r17_network.node[33].content_store 	decision_yes[33] 	21
scalar tree_4_3_u01_r17_network.node[33].content_store 	decision_no[33] 	8738
scalar tree_4_3_u01_r17_network.node[33].content_store 	decision_ratio[33] 	0.0023975339650645
scalar tree_4_3_u01_r17_network.node[34].core_layer 	interests[34] 	12322
scalar tree_4_3_u01_r17_network.node[34].core_layer 	data[34] 	8629
scalar tree_4_3_u01_r17_network.node[34].content_store 	p_hit[34] 	0.29962668397987
scalar tree_4_3_u01_r17_network.node[34].content_store 	hits[34] 	3692
scalar tree_4_3_u01_r17_network.node[34].content_store 	misses[34] 	8630
scalar tree_4_3_u01_r17_network.node[34].content_store 	decision_yes[34] 	33
scalar tree_4_3_u01_r17_network.node[34].content_store 	decision_no[34] 	8596
scalar tree_4_3_u01_r17_network.node[34].content_store 	decision_ratio[34] 	0.0038243133619191
scalar tree_4_3_u01_r17_network.node[35].core_layer 	interests[35] 	12457
scalar tree_4_3_u01_r17_network.node[35].core_layer 	data[35] 	8656
scalar tree_4_3_u01_r17_network.node[35].content_store 	p_hit[35] 	0.30512964598218
scalar tree_4_3_u01_r17_network.node[35].content_store 	hits[35] 	3801
scalar tree_4_3_u01_r17_network.node[35].content_store 	misses[35] 	8656
scalar tree_4_3_u01_r17_network.node[35].content_store 	decision_yes[35] 	25
scalar tree_4_3_u01_r17_network.node[35].content_store 	decision_no[35] 	8631
scalar tree_4_3_u01_r17_network.node[35].content_store 	decision_ratio[35] 	0.0028881700554529
scalar tree_4_3_u01_r17_network.node[36].core_layer 	interests[36] 	12823
scalar tree_4_3_u01_r17_network.node[36].core_layer 	data[36] 	9023
scalar tree_4_3_u01_r17_network.node[36].content_store 	p_hit[36] 	0.29634250955315
scalar tree_4_3_u01_r17_network.node[36].content_store 	hits[36] 	3800
scalar tree_4_3_u01_r17_network.node[36].content_store 	misses[36] 	9023
scalar tree_4_3_u01_r17_network.node[36].content_store 	decision_yes[36] 	28
scalar tree_4_3_u01_r17_network.node[36].content_store 	decision_no[36] 	8995
scalar tree_4_3_u01_r17_network.node[36].content_store 	decision_ratio[36] 	0.0031031807602793
scalar tree_4_3_u01_r17_network.node[37].core_layer 	interests[37] 	12423
scalar tree_4_3_u01_r17_network.node[37].core_layer 	data[37] 	8748
scalar tree_4_3_u01_r17_network.node[37].content_store 	p_hit[37] 	0.29582226515334
scalar tree_4_3_u01_r17_network.node[37].content_store 	hits[37] 	3675
scalar tree_4_3_u01_r17_network.node[37].content_store 	misses[37] 	8748
scalar tree_4_3_u01_r17_network.node[37].content_store 	decision_yes[37] 	33
scalar tree_4_3_u01_r17_network.node[37].content_store 	decision_no[37] 	8715
scalar tree_4_3_u01_r17_network.node[37].content_store 	decision_ratio[37] 	0.0037722908093278
scalar tree_4_3_u01_r17_network.node[38].core_layer 	interests[38] 	12624
scalar tree_4_3_u01_r17_network.node[38].core_layer 	data[38] 	8995
scalar tree_4_3_u01_r17_network.node[38].content_store 	p_hit[38] 	0.28746831432193
scalar tree_4_3_u01_r17_network.node[38].content_store 	hits[38] 	3629
scalar tree_4_3_u01_r17_network.node[38].content_store 	misses[38] 	8995
scalar tree_4_3_u01_r17_network.node[38].content_store 	decision_yes[38] 	34
scalar tree_4_3_u01_r17_network.node[38].content_store 	decision_no[38] 	8961
scalar tree_4_3_u01_r17_network.node[38].content_store 	decision_ratio[38] 	0.0037798777098388
scalar tree_4_3_u01_r17_network.node[39].core_layer 	interests[39] 	12430
scalar tree_4_3_u01_r17_network.node[39].core_layer 	data[39] 	8763
scalar tree_4_3_u01_r17_network.node[39].content_store 	p_hit[39] 	0.29501206757844
scalar tree_4_3_u01_r17_network.node[39].content_store 	hits[39] 	3667
scalar tree_4_3_u01_r17_network.node[39].content_store 	misses[39] 	8763
scalar tree_4_3_u01_r17_network.node[39].content_store 	decision_yes[39] 	31
scalar tree_4_3_u01_r17_network.node[39].content_store 	decision_no[39] 	8732
scalar tree_4_3_u01_r17_network.node[39].content_store 	decision_ratio[39] 	0.0035376012781011
scalar tree_4_3_u01_r17_network.client[13] 	hdistance[13] 	2.6738800943079
scalar tree_4_3_u01_r17_network.client[13] 	downloads[13] 	11876
scalar tree_4_3_u01_r17_network.client[13] 	avg_time[13] 	0.004150552768
scalar tree_4_3_u01_r17_network.client[14] 	hdistance[14] 	2.6606181125197
scalar tree_4_3_u01_r17_network.client[14] 	downloads[14] 	12069
scalar tree_4_3_u01_r17_network.client[14] 	avg_time[14] 	0.004141350879
scalar tree_4_3_u01_r17_network.client[15] 	hdistance[15] 	2.6903322011433
scalar tree_4_3_u01_r17_network.client[15] 	downloads[15] 	12071
scalar tree_4_3_u01_r17_network.client[15] 	avg_time[15] 	0.004181217194
scalar tree_4_3_u01_r17_network.client[16] 	hdistance[16] 	2.6080318619316
scalar tree_4_3_u01_r17_network.client[16] 	downloads[16] 	12052
scalar tree_4_3_u01_r17_network.client[16] 	avg_time[16] 	0.0040914944
scalar tree_4_3_u01_r17_network.client[17] 	hdistance[17] 	2.6200474094142
scalar tree_4_3_u01_r17_network.client[17] 	downloads[17] 	11812
scalar tree_4_3_u01_r17_network.client[17] 	avg_time[17] 	0.004112933022
scalar tree_4_3_u01_r17_network.client[18] 	hdistance[18] 	2.6422086497194
scalar tree_4_3_u01_r17_network.client[18] 	downloads[18] 	12116
scalar tree_4_3_u01_r17_network.client[18] 	avg_time[18] 	0.004148065621
scalar tree_4_3_u01_r17_network.client[19] 	hdistance[19] 	2.6618911174785
scalar tree_4_3_u01_r17_network.client[19] 	downloads[19] 	11866
scalar tree_4_3_u01_r17_network.client[19] 	avg_time[19] 	0.004139218331
scalar tree_4_3_u01_r17_network.client[20] 	hdistance[20] 	2.6676608436302
scalar tree_4_3_u01_r17_network.client[20] 	downloads[20] 	11735
scalar tree_4_3_u01_r17_network.client[20] 	avg_time[20] 	0.004148342519
scalar tree_4_3_u01_r17_network.client[21] 	hdistance[21] 	2.6465169833046
scalar tree_4_3_u01_r17_network.client[21] 	downloads[21] 	12159
scalar tree_4_3_u01_r17_network.client[21] 	avg_time[21] 	0.004114809021
scalar tree_4_3_u01_r17_network.client[22] 	hdistance[22] 	2.6811763722951
scalar tree_4_3_u01_r17_network.client[22] 	downloads[22] 	11969
scalar tree_4_3_u01_r17_network.client[22] 	avg_time[22] 	0.00418762562
scalar tree_4_3_u01_r17_network.client[23] 	hdistance[23] 	2.6103313678266
scalar tree_4_3_u01_r17_network.client[23] 	downloads[23] 	12041
scalar tree_4_3_u01_r17_network.client[23] 	avg_time[23] 	0.004050823358
scalar tree_4_3_u01_r17_network.client[24] 	hdistance[24] 	2.6897388684299
scalar tree_4_3_u01_r17_network.client[24] 	downloads[24] 	11948
scalar tree_4_3_u01_r17_network.client[24] 	avg_time[24] 	0.004205219658
scalar tree_4_3_u01_r17_network.client[25] 	hdistance[25] 	2.6287212449256
scalar tree_4_3_u01_r17_network.client[25] 	downloads[25] 	11824
scalar tree_4_3_u01_r17_network.client[25] 	avg_time[25] 	0.004109604675
scalar tree_4_3_u01_r17_network.client[26] 	hdistance[26] 	2.6234438967332
scalar tree_4_3_u01_r17_network.client[26] 	downloads[26] 	11969
scalar tree_4_3_u01_r17_network.client[26] 	avg_time[26] 	0.004100261601
scalar tree_4_3_u01_r17_network.client[27] 	hdistance[27] 	2.649235448171
scalar tree_4_3_u01_r17_network.client[27] 	downloads[27] 	11837
scalar tree_4_3_u01_r17_network.client[27] 	avg_time[27] 	0.004122832254
scalar tree_4_3_u01_r17_network.client[28] 	hdistance[28] 	2.6188061190555
scalar tree_4_3_u01_r17_network.client[28] 	downloads[28] 	12028
scalar tree_4_3_u01_r17_network.client[28] 	avg_time[28] 	0.004114563006
scalar tree_4_3_u01_r17_network.client[29] 	hdistance[29] 	2.6128689395798
scalar tree_4_3_u01_r17_network.client[29] 	downloads[29] 	12231
scalar tree_4_3_u01_r17_network.client[29] 	avg_time[29] 	0.004117615601
scalar tree_4_3_u01_r17_network.client[30] 	hdistance[30] 	2.6327981267771
scalar tree_4_3_u01_r17_network.client[30] 	downloads[30] 	11958
scalar tree_4_3_u01_r17_network.client[30] 	avg_time[30] 	0.004141659522
scalar tree_4_3_u01_r17_network.client[31] 	hdistance[31] 	2.6477649006623
scalar tree_4_3_u01_r17_network.client[31] 	downloads[31] 	12080
scalar tree_4_3_u01_r17_network.client[31] 	avg_time[31] 	0.004142381076
scalar tree_4_3_u01_r17_network.client[32] 	hdistance[32] 	2.6291324047659
scalar tree_4_3_u01_r17_network.client[32] 	downloads[32] 	11918
scalar tree_4_3_u01_r17_network.client[32] 	avg_time[32] 	0.004108657815
scalar tree_4_3_u01_r17_network.client[33] 	hdistance[33] 	2.6555481617035
scalar tree_4_3_u01_r17_network.client[33] 	downloads[33] 	12022
scalar tree_4_3_u01_r17_network.client[33] 	avg_time[33] 	0.004146400924
scalar tree_4_3_u01_r17_network.client[34] 	hdistance[34] 	2.6458966565349
scalar tree_4_3_u01_r17_network.client[34] 	downloads[34] 	11844
scalar tree_4_3_u01_r17_network.client[34] 	avg_time[34] 	0.00412754674
scalar tree_4_3_u01_r17_network.client[35] 	hdistance[35] 	2.6140978695073
scalar tree_4_3_u01_r17_network.client[35] 	downloads[35] 	12016
scalar tree_4_3_u01_r17_network.client[35] 	avg_time[35] 	0.004083760949
scalar tree_4_3_u01_r17_network.client[36] 	hdistance[36] 	2.6721378409277
scalar tree_4_3_u01_r17_network.client[36] 	downloads[36] 	12246
scalar tree_4_3_u01_r17_network.client[36] 	avg_time[36] 	0.004175130565
scalar tree_4_3_u01_r17_network.client[37] 	hdistance[37] 	2.6838617681597
scalar tree_4_3_u01_r17_network.client[37] 	downloads[37] 	11922
scalar tree_4_3_u01_r17_network.client[37] 	avg_time[37] 	0.004185536364
scalar tree_4_3_u01_r17_network.client[38] 	hdistance[38] 	2.6829368672319
scalar tree_4_3_u01_r17_network.client[38] 	downloads[38] 	12149
scalar tree_4_3_u01_r17_network.client[38] 	avg_time[38] 	0.004197078032
scalar tree_4_3_u01_r17_network.client[39] 	hdistance[39] 	2.6510893065026
scalar tree_4_3_u01_r17_network.client[39] 	downloads[39] 	12026
scalar tree_4_3_u01_r17_network.client[39] 	avg_time[39] 	0.004135869257
