version 2
run General-106-20160831-21:26:56-8710
attr a 0.9
attr cd ffc0.25
attr configname General
attr cr lru
attr datetime 20160831-21:26:56
attr experiment General
attr fsize 1
attr inifile hw5115/scenario_Y/omnetp.ini
attr iterationvars "$name=tree_4_3, $un=01, $rep=16, $cd=ffc0.25, $cr=lru, $fsize=1, $a=0.9, $sl=nrr, $ttl=1000, $variance=0.05"
attr iterationvars2 "$name=tree_4_3, $un=01, $rep=16, $cd=ffc0.25, $cr=lru, $fsize=1, $a=0.9, $sl=nrr, $ttl=1000, $variance=0.05, $repetition=0"
attr measurement "$name=tree_4_3, $un=01, $rep=16, $cd=ffc0.25, $cr=lru, $fsize=1, $a=0.9, $sl=nrr, $ttl=1000, $variance=0.05"
attr name tree_4_3
attr network networks.${name}_u${un}_r${rep}_network
attr processid 8710
attr rep 16
attr repetition 0
attr replication #0
attr resultdir results
attr runnumber 106
attr seedset 16
attr sl nrr
attr ttl 1000
attr un 01
attr variance 0.05

scalar . 	a 	0.9
scalar . 	fsize 	1
scalar . 	rep 	16
scalar . 	ttl 	1000
scalar . 	un 	01
scalar . 	variance 	0.05
scalar tree_4_3_u01_r16_network.content_distribution 	repo-0 	0
scalar tree_4_3_u01_r16_network.content_distribution 	client-0 	13
scalar tree_4_3_u01_r16_network.content_distribution 	client-1 	14
scalar tree_4_3_u01_r16_network.content_distribution 	client-2 	15
scalar tree_4_3_u01_r16_network.content_distribution 	client-3 	16
scalar tree_4_3_u01_r16_network.content_distribution 	client-4 	17
scalar tree_4_3_u01_r16_network.content_distribution 	client-5 	18
scalar tree_4_3_u01_r16_network.content_distribution 	client-6 	19
scalar tree_4_3_u01_r16_network.content_distribution 	client-7 	20
scalar tree_4_3_u01_r16_network.content_distribution 	client-8 	21
scalar tree_4_3_u01_r16_network.content_distribution 	client-9 	22
scalar tree_4_3_u01_r16_network.content_distribution 	client-10 	23
scalar tree_4_3_u01_r16_network.content_distribution 	client-11 	24
scalar tree_4_3_u01_r16_network.content_distribution 	client-12 	25
scalar tree_4_3_u01_r16_network.content_distribution 	client-13 	26
scalar tree_4_3_u01_r16_network.content_distribution 	client-14 	27
scalar tree_4_3_u01_r16_network.content_distribution 	client-15 	28
scalar tree_4_3_u01_r16_network.content_distribution 	client-16 	29
scalar tree_4_3_u01_r16_network.content_distribution 	client-17 	30
scalar tree_4_3_u01_r16_network.content_distribution 	client-18 	31
scalar tree_4_3_u01_r16_network.content_distribution 	client-19 	32
scalar tree_4_3_u01_r16_network.content_distribution 	client-20 	33
scalar tree_4_3_u01_r16_network.content_distribution 	client-21 	34
scalar tree_4_3_u01_r16_network.content_distribution 	client-22 	35
scalar tree_4_3_u01_r16_network.content_distribution 	client-23 	36
scalar tree_4_3_u01_r16_network.content_distribution 	client-24 	37
scalar tree_4_3_u01_r16_network.content_distribution 	client-25 	38
scalar tree_4_3_u01_r16_network.content_distribution 	client-26 	39
scalar tree_4_3_u01_r16_network.content_distribution 	repo-0_card 	100000
scalar tree_4_3_u01_r16_network.content_distribution 	repo-0_price 	0
scalar tree_4_3_u01_r16_network.statistics 	stabilization_time 	1743.5
scalar tree_4_3_u01_r16_network.statistics 	p_hit 	0.22446708599983
scalar tree_4_3_u01_r16_network.statistics 	interests 	24768.825
scalar tree_4_3_u01_r16_network.statistics 	data 	16666.975
scalar tree_4_3_u01_r16_network.statistics 	hdistance 	2.645712261092
scalar tree_4_3_u01_r16_network.statistics 	avg_time 	0.004114330683
scalar tree_4_3_u01_r16_network.statistics 	downloads 	324071
scalar tree_4_3_u01_r16_network.statistics 	total_cost 	0
scalar tree_4_3_u01_r16_network.statistics 	total_replicas 	100000
scalar tree_4_3_u01_r16_network.statistics 	inner_hit 	0.41148390321874
scalar tree_4_3_u01_r16_network.node[0].core_layer 	interests[0] 	194804
scalar tree_4_3_u01_r16_network.node[0].core_layer 	repo_load[0] 	190721
scalar tree_4_3_u01_r16_network.node[0].core_layer 	data[0] 	0
scalar tree_4_3_u01_r16_network.node[0].core_layer 	repo_int[0] 	190721
scalar tree_4_3_u01_r16_network.node[0].content_store 	p_hit[0] 	0.020959528551775
scalar tree_4_3_u01_r16_network.node[0].content_store 	hits[0] 	4083
scalar tree_4_3_u01_r16_network.node[0].content_store 	misses[0] 	190721
scalar tree_4_3_u01_r16_network.node[0].content_store 	decision_yes[0] 	247
scalar tree_4_3_u01_r16_network.node[0].content_store 	decision_no[0] 	190474
scalar tree_4_3_u01_r16_network.node[0].content_store 	decision_ratio[0] 	0.0012950854913722
scalar tree_4_3_u01_r16_network.node[1].core_layer 	interests[1] 	70459
scalar tree_4_3_u01_r16_network.node[1].core_layer 	data[1] 	68200
scalar tree_4_3_u01_r16_network.node[1].content_store 	p_hit[1] 	0.032061198711307
scalar tree_4_3_u01_r16_network.node[1].content_store 	hits[1] 	2259
scalar tree_4_3_u01_r16_network.node[1].content_store 	misses[1] 	68200
scalar tree_4_3_u01_r16_network.node[1].content_store 	decision_yes[1] 	108
scalar tree_4_3_u01_r16_network.node[1].content_store 	decision_no[1] 	68092
scalar tree_4_3_u01_r16_network.node[1].content_store 	decision_ratio[1] 	0.00158357771261
scalar tree_4_3_u01_r16_network.node[2].core_layer 	interests[2] 	71546
scalar tree_4_3_u01_r16_network.node[2].core_layer 	data[2] 	69045
scalar tree_4_3_u01_r16_network.node[2].content_store 	p_hit[2] 	0.0349425544405
scalar tree_4_3_u01_r16_network.node[2].content_store 	hits[2] 	2500
scalar tree_4_3_u01_r16_network.node[2].content_store 	misses[2] 	69046
scalar tree_4_3_u01_r16_network.node[2].content_store 	decision_yes[2] 	131
scalar tree_4_3_u01_r16_network.node[2].content_store 	decision_no[2] 	68914
scalar tree_4_3_u01_r16_network.node[2].content_store 	decision_ratio[2] 	0.0018973133463683
scalar tree_4_3_u01_r16_network.node[3].core_layer 	interests[3] 	70183
scalar tree_4_3_u01_r16_network.node[3].core_layer 	data[3] 	67996
scalar tree_4_3_u01_r16_network.node[3].content_store 	p_hit[3] 	0.031118646965789
scalar tree_4_3_u01_r16_network.node[3].content_store 	hits[3] 	2184
scalar tree_4_3_u01_r16_network.node[3].content_store 	misses[3] 	67999
scalar tree_4_3_u01_r16_network.node[3].content_store 	decision_yes[3] 	105
scalar tree_4_3_u01_r16_network.node[3].content_store 	decision_no[3] 	67891
scalar tree_4_3_u01_r16_network.node[3].content_store 	decision_ratio[3] 	0.0015442084828519
scalar tree_4_3_u01_r16_network.node[4].core_layer 	interests[4] 	27490
scalar tree_4_3_u01_r16_network.node[4].core_layer 	data[4] 	25217
scalar tree_4_3_u01_r16_network.node[4].content_store 	p_hit[4] 	0.082684612586395
scalar tree_4_3_u01_r16_network.node[4].content_store 	hits[4] 	2273
scalar tree_4_3_u01_r16_network.node[4].content_store 	misses[4] 	25217
scalar tree_4_3_u01_r16_network.node[4].content_store 	decision_yes[4] 	84
scalar tree_4_3_u01_r16_network.node[4].content_store 	decision_no[4] 	25133
scalar tree_4_3_u01_r16_network.node[4].content_store 	decision_ratio[4] 	0.0033310861720268
scalar tree_4_3_u01_r16_network.node[5].core_layer 	interests[5] 	26888
scalar tree_4_3_u01_r16_network.node[5].core_layer 	data[5] 	24603
scalar tree_4_3_u01_r16_network.node[5].content_store 	p_hit[5] 	0.084907765545968
scalar tree_4_3_u01_r16_network.node[5].content_store 	hits[5] 	2283
scalar tree_4_3_u01_r16_network.node[5].content_store 	misses[5] 	24605
scalar tree_4_3_u01_r16_network.node[5].content_store 	decision_yes[5] 	67
scalar tree_4_3_u01_r16_network.node[5].content_store 	decision_no[5] 	24536
scalar tree_4_3_u01_r16_network.node[5].content_store 	decision_ratio[5] 	0.0027232451327074
scalar tree_4_3_u01_r16_network.node[6].core_layer 	interests[6] 	27812
scalar tree_4_3_u01_r16_network.node[6].core_layer 	data[6] 	24923
scalar tree_4_3_u01_r16_network.node[6].content_store 	p_hit[6] 	0.1039119804401
scalar tree_4_3_u01_r16_network.node[6].content_store 	hits[6] 	2890
scalar tree_4_3_u01_r16_network.node[6].content_store 	misses[6] 	24922
scalar tree_4_3_u01_r16_network.node[6].content_store 	decision_yes[6] 	57
scalar tree_4_3_u01_r16_network.node[6].content_store 	decision_no[6] 	24866
scalar tree_4_3_u01_r16_network.node[6].content_store 	decision_ratio[6] 	0.0022870440958151
scalar tree_4_3_u01_r16_network.node[7].core_layer 	interests[7] 	27673
scalar tree_4_3_u01_r16_network.node[7].core_layer 	data[7] 	25386
scalar tree_4_3_u01_r16_network.node[7].content_store 	p_hit[7] 	0.082643732157699
scalar tree_4_3_u01_r16_network.node[7].content_store 	hits[7] 	2287
scalar tree_4_3_u01_r16_network.node[7].content_store 	misses[7] 	25386
scalar tree_4_3_u01_r16_network.node[7].content_store 	decision_yes[7] 	75
scalar tree_4_3_u01_r16_network.node[7].content_store 	decision_no[7] 	25311
scalar tree_4_3_u01_r16_network.node[7].content_store 	decision_ratio[7] 	0.0029543843063106
scalar tree_4_3_u01_r16_network.node[8].core_layer 	interests[8] 	27471
scalar tree_4_3_u01_r16_network.node[8].core_layer 	data[8] 	25134
scalar tree_4_3_u01_r16_network.node[8].content_store 	p_hit[8] 	0.084998725929162
scalar tree_4_3_u01_r16_network.node[8].content_store 	hits[8] 	2335
scalar tree_4_3_u01_r16_network.node[8].content_store 	misses[8] 	25136
scalar tree_4_3_u01_r16_network.node[8].content_store 	decision_yes[8] 	66
scalar tree_4_3_u01_r16_network.node[8].content_store 	decision_no[8] 	25068
scalar tree_4_3_u01_r16_network.node[8].content_store 	decision_ratio[8] 	0.0026259250417761
scalar tree_4_3_u01_r16_network.node[9].core_layer 	interests[9] 	27546
scalar tree_4_3_u01_r16_network.node[9].core_layer 	data[9] 	25255
scalar tree_4_3_u01_r16_network.node[9].content_store 	p_hit[9] 	0.083169970231613
scalar tree_4_3_u01_r16_network.node[9].content_store 	hits[9] 	2291
scalar tree_4_3_u01_r16_network.node[9].content_store 	misses[9] 	25255
scalar tree_4_3_u01_r16_network.node[9].content_store 	decision_yes[9] 	85
scalar tree_4_3_u01_r16_network.node[9].content_store 	decision_no[9] 	25170
scalar tree_4_3_u01_r16_network.node[9].content_store 	decision_ratio[9] 	0.0033656701643239
scalar tree_4_3_u01_r16_network.node[10].core_layer 	interests[10] 	26451
scalar tree_4_3_u01_r16_network.node[10].core_layer 	data[10] 	24349
scalar tree_4_3_u01_r16_network.node[10].content_store 	p_hit[10] 	0.079467694983176
scalar tree_4_3_u01_r16_network.node[10].content_store 	hits[10] 	2102
scalar tree_4_3_u01_r16_network.node[10].content_store 	misses[10] 	24349
scalar tree_4_3_u01_r16_network.node[10].content_store 	decision_yes[10] 	47
scalar tree_4_3_u01_r16_network.node[10].content_store 	decision_no[10] 	24302
scalar tree_4_3_u01_r16_network.node[10].content_store 	decision_ratio[10] 	0.0019302640765535
scalar tree_4_3_u01_r16_network.node[11].core_layer 	interests[11] 	36545
scalar tree_4_3_u01_r16_network.node[11].core_layer 	data[11] 	33413
scalar tree_4_3_u01_r16_network.node[11].content_store 	p_hit[11] 	0.085702558489533
scalar tree_4_3_u01_r16_network.node[11].content_store 	hits[11] 	3132
scalar tree_4_3_u01_r16_network.node[11].content_store 	misses[11] 	33413
scalar tree_4_3_u01_r16_network.node[11].content_store 	decision_yes[11] 	66
scalar tree_4_3_u01_r16_network.node[11].content_store 	decision_no[11] 	33347
scalar tree_4_3_u01_r16_network.node[11].content_store 	decision_ratio[11] 	0.0019752790829916
scalar tree_4_3_u01_r16_network.node[12].core_layer 	interests[12] 	18901
scalar tree_4_3_u01_r16_network.node[12].core_layer 	data[12] 	16818
scalar tree_4_3_u01_r16_network.node[12].content_store 	p_hit[12] 	0.11020580921644
scalar tree_4_3_u01_r16_network.node[12].content_store 	hits[12] 	2083
scalar tree_4_3_u01_r16_network.node[12].content_store 	misses[12] 	16818
scalar tree_4_3_u01_r16_network.node[12].content_store 	decision_yes[12] 	43
scalar tree_4_3_u01_r16_network.node[12].content_store 	decision_no[12] 	16775
scalar tree_4_3_u01_r16_network.node[12].content_store 	decision_ratio[12] 	0.0025567843976692
scalar tree_4_3_u01_r16_network.node[13].core_layer 	interests[13] 	12402
scalar tree_4_3_u01_r16_network.node[13].core_layer 	data[13] 	8852
scalar tree_4_3_u01_r16_network.node[13].content_store 	p_hit[13] 	0.28616352201258
scalar tree_4_3_u01_r16_network.node[13].content_store 	hits[13] 	3549
scalar tree_4_3_u01_r16_network.node[13].content_store 	misses[13] 	8853
scalar tree_4_3_u01_r16_network.node[13].content_store 	decision_yes[13] 	18
scalar tree_4_3_u01_r16_network.node[13].content_store 	decision_no[13] 	8834
scalar tree_4_3_u01_r16_network.node[13].content_store 	decision_ratio[13] 	0.0020334387708992
scalar tree_4_3_u01_r16_network.node[14].core_layer 	interests[14] 	12554
scalar tree_4_3_u01_r16_network.node[14].core_layer 	data[14] 	8769
scalar tree_4_3_u01_r16_network.node[14].content_store 	p_hit[14] 	0.30157718655409
scalar tree_4_3_u01_r16_network.node[14].content_store 	hits[14] 	3786
scalar tree_4_3_u01_r16_network.node[14].content_store 	misses[14] 	8768
scalar tree_4_3_u01_r16_network.node[14].content_store 	decision_yes[14] 	30
scalar tree_4_3_u01_r16_network.node[14].content_store 	decision_no[14] 	8739
scalar tree_4_3_u01_r16_network.node[14].content_store 	decision_ratio[14] 	0.003421142661649
scalar tree_4_3_u01_r16_network.node[15].core_layer 	interests[15] 	12388
scalar tree_4_3_u01_r16_network.node[15].core_layer 	data[15] 	8759
scalar tree_4_3_u01_r16_network.node[15].content_store 	p_hit[15] 	0.29286406199548
scalar tree_4_3_u01_r16_network.node[15].content_store 	hits[15] 	3628
scalar tree_4_3_u01_r16_network.node[15].content_store 	misses[15] 	8760
scalar tree_4_3_u01_r16_network.node[15].content_store 	decision_yes[15] 	34
scalar tree_4_3_u01_r16_network.node[15].content_store 	decision_no[15] 	8725
scalar tree_4_3_u01_r16_network.node[15].content_store 	decision_ratio[15] 	0.0038817216577235
scalar tree_4_3_u01_r16_network.node[16].core_layer 	interests[16] 	12286
scalar tree_4_3_u01_r16_network.node[16].core_layer 	data[16] 	8707
scalar tree_4_3_u01_r16_network.node[16].content_store 	p_hit[16] 	0.29130717890282
scalar tree_4_3_u01_r16_network.node[16].content_store 	hits[16] 	3579
scalar tree_4_3_u01_r16_network.node[16].content_store 	misses[16] 	8707
scalar tree_4_3_u01_r16_network.node[16].content_store 	decision_yes[16] 	29
scalar tree_4_3_u01_r16_network.node[16].content_store 	decision_no[16] 	8678
scalar tree_4_3_u01_r16_network.node[16].content_store 	decision_ratio[16] 	0.0033306534971862
scalar tree_4_3_u01_r16_network.node[17].core_layer 	interests[17] 	12351
scalar tree_4_3_u01_r16_network.node[17].core_layer 	data[17] 	8684
scalar tree_4_3_u01_r16_network.node[17].content_store 	p_hit[17] 	0.29689903651526
scalar tree_4_3_u01_r16_network.node[17].content_store 	hits[17] 	3667
scalar tree_4_3_u01_r16_network.node[17].content_store 	misses[17] 	8684
scalar tree_4_3_u01_r16_network.node[17].content_store 	decision_yes[17] 	34
scalar tree_4_3_u01_r16_network.node[17].content_store 	decision_no[17] 	8650
scalar tree_4_3_u01_r16_network.node[17].content_store 	decision_ratio[17] 	0.0039152464302165
scalar tree_4_3_u01_r16_network.node[18].core_layer 	interests[18] 	12912
scalar tree_4_3_u01_r16_network.node[18].core_layer 	data[18] 	8852
scalar tree_4_3_u01_r16_network.node[18].content_store 	p_hit[18] 	0.31443618339529
scalar tree_4_3_u01_r16_network.node[18].content_store 	hits[18] 	4060
scalar tree_4_3_u01_r16_network.node[18].content_store 	misses[18] 	8852
scalar tree_4_3_u01_r16_network.node[18].content_store 	decision_yes[18] 	27
scalar tree_4_3_u01_r16_network.node[18].content_store 	decision_no[18] 	8825
scalar tree_4_3_u01_r16_network.node[18].content_store 	decision_ratio[18] 	0.0030501581563488
scalar tree_4_3_u01_r16_network.node[19].core_layer 	interests[19] 	12356
scalar tree_4_3_u01_r16_network.node[19].core_layer 	data[19] 	8627
scalar tree_4_3_u01_r16_network.node[19].content_store 	p_hit[19] 	0.30179669796051
scalar tree_4_3_u01_r16_network.node[19].content_store 	hits[19] 	3729
scalar tree_4_3_u01_r16_network.node[19].content_store 	misses[19] 	8627
scalar tree_4_3_u01_r16_network.node[19].content_store 	decision_yes[19] 	17
scalar tree_4_3_u01_r16_network.node[19].content_store 	decision_no[19] 	8610
scalar tree_4_3_u01_r16_network.node[19].content_store 	decision_ratio[19] 	0.001970557551872
scalar tree_4_3_u01_r16_network.node[20].core_layer 	interests[20] 	12255
scalar tree_4_3_u01_r16_network.node[20].core_layer 	data[20] 	8525
scalar tree_4_3_u01_r16_network.node[20].content_store 	p_hit[20] 	0.30436556507548
scalar tree_4_3_u01_r16_network.node[20].content_store 	hits[20] 	3730
scalar tree_4_3_u01_r16_network.node[20].content_store 	misses[20] 	8525
scalar tree_4_3_u01_r16_network.node[20].content_store 	decision_yes[20] 	23
scalar tree_4_3_u01_r16_network.node[20].content_store 	decision_no[20] 	8502
scalar tree_4_3_u01_r16_network.node[20].content_store 	decision_ratio[20] 	0.0026979472140762
scalar tree_4_3_u01_r16_network.node[21].core_layer 	interests[21] 	12435
scalar tree_4_3_u01_r16_network.node[21].core_layer 	data[21] 	8693
scalar tree_4_3_u01_r16_network.node[21].content_store 	p_hit[21] 	0.30100522718134
scalar tree_4_3_u01_r16_network.node[21].content_store 	hits[21] 	3743
scalar tree_4_3_u01_r16_network.node[21].content_store 	misses[21] 	8692
scalar tree_4_3_u01_r16_network.node[21].content_store 	decision_yes[21] 	16
scalar tree_4_3_u01_r16_network.node[21].content_store 	decision_no[21] 	8677
scalar tree_4_3_u01_r16_network.node[21].content_store 	decision_ratio[21] 	0.0018405613712182
scalar tree_4_3_u01_r16_network.node[22].core_layer 	interests[22] 	12611
scalar tree_4_3_u01_r16_network.node[22].core_layer 	data[22] 	8841
scalar tree_4_3_u01_r16_network.node[22].content_store 	p_hit[22] 	0.2989453651574
scalar tree_4_3_u01_r16_network.node[22].content_store 	hits[22] 	3770
scalar tree_4_3_u01_r16_network.node[22].content_store 	misses[22] 	8841
scalar tree_4_3_u01_r16_network.node[22].content_store 	decision_yes[22] 	31
scalar tree_4_3_u01_r16_network.node[22].content_store 	decision_no[22] 	8810
scalar tree_4_3_u01_r16_network.node[22].content_store 	decision_ratio[22] 	0.0035063906797874
scalar tree_4_3_u01_r16_network.node[23].core_layer 	interests[23] 	12530
scalar tree_4_3_u01_r16_network.node[23].core_layer 	data[23] 	8815
scalar tree_4_3_u01_r16_network.node[23].content_store 	p_hit[23] 	0.29648842777334
scalar tree_4_3_u01_r16_network.node[23].content_store 	hits[23] 	3715
scalar tree_4_3_u01_r16_network.node[23].content_store 	misses[23] 	8815
scalar tree_4_3_u01_r16_network.node[23].content_store 	decision_yes[23] 	28
scalar tree_4_3_u01_r16_network.node[23].content_store 	decision_no[23] 	8787
scalar tree_4_3_u01_r16_network.node[23].content_store 	decision_ratio[23] 	0.0031764038570618
scalar tree_4_3_u01_r16_network.node[24].core_layer 	interests[24] 	12586
scalar tree_4_3_u01_r16_network.node[24].core_layer 	data[24] 	8835
scalar tree_4_3_u01_r16_network.node[24].content_store 	p_hit[24] 	0.29802955665025
scalar tree_4_3_u01_r16_network.node[24].content_store 	hits[24] 	3751
scalar tree_4_3_u01_r16_network.node[24].content_store 	misses[24] 	8835
scalar tree_4_3_u01_r16_network.node[24].content_store 	decision_yes[24] 	27
scalar tree_4_3_u01_r16_network.node[24].content_store 	decision_no[24] 	8808
scalar tree_4_3_u01_r16_network.node[24].content_store 	decision_ratio[24] 	0.0030560271646859
scalar tree_4_3_u01_r16_network.node[25].core_layer 	interests[25] 	12318
scalar tree_4_3_u01_r16_network.node[25].core_layer 	data[25] 	8581
scalar tree_4_3_u01_r16_network.node[25].content_store 	p_hit[25] 	0.30337717161877
scalar tree_4_3_u01_r16_network.node[25].content_store 	hits[25] 	3737
scalar tree_4_3_u01_r16_network.node[25].content_store 	misses[25] 	8581
scalar tree_4_3_u01_r16_network.node[25].content_store 	decision_yes[25] 	33
scalar tree_4_3_u01_r16_network.node[25].content_store 	decision_no[25] 	8548
scalar tree_4_3_u01_r16_network.node[25].content_store 	decision_ratio[25] 	0.0038457056287146
scalar tree_4_3_u01_r16_network.node[26].core_layer 	interests[26] 	12506
scalar tree_4_3_u01_r16_network.node[26].core_layer 	data[26] 	8804
scalar tree_4_3_u01_r16_network.node[26].content_store 	p_hit[26] 	0.2959379497841
scalar tree_4_3_u01_r16_network.node[26].content_store 	hits[26] 	3701
scalar tree_4_3_u01_r16_network.node[26].content_store 	misses[26] 	8805
scalar tree_4_3_u01_r16_network.node[26].content_store 	decision_yes[26] 	23
scalar tree_4_3_u01_r16_network.node[26].content_store 	decision_no[26] 	8781
scalar tree_4_3_u01_r16_network.node[26].content_store 	decision_ratio[26] 	0.0026124488868696
scalar tree_4_3_u01_r16_network.node[27].core_layer 	interests[27] 	12413
scalar tree_4_3_u01_r16_network.node[27].core_layer 	data[27] 	8761
scalar tree_4_3_u01_r16_network.node[27].content_store 	p_hit[27] 	0.29420768549102
scalar tree_4_3_u01_r16_network.node[27].content_store 	hits[27] 	3652
scalar tree_4_3_u01_r16_network.node[27].content_store 	misses[27] 	8761
scalar tree_4_3_u01_r16_network.node[27].content_store 	decision_yes[27] 	26
scalar tree_4_3_u01_r16_network.node[27].content_store 	decision_no[27] 	8735
scalar tree_4_3_u01_r16_network.node[27].content_store 	decision_ratio[27] 	0.0029676977513982
scalar tree_4_3_u01_r16_network.node[28].core_layer 	interests[28] 	12394
scalar tree_4_3_u01_r16_network.node[28].core_layer 	data[28] 	8715
scalar tree_4_3_u01_r16_network.node[28].content_store 	p_hit[28] 	0.2968371792803
scalar tree_4_3_u01_r16_network.node[28].content_store 	hits[28] 	3679
scalar tree_4_3_u01_r16_network.node[28].content_store 	misses[28] 	8715
scalar tree_4_3_u01_r16_network.node[28].content_store 	decision_yes[28] 	31
scalar tree_4_3_u01_r16_network.node[28].content_store 	decision_no[28] 	8684
scalar tree_4_3_u01_r16_network.node[28].content_store 	decision_ratio[28] 	0.0035570854847963
scalar tree_4_3_u01_r16_network.node[29].core_layer 	interests[29] 	12402
scalar tree_4_3_u01_r16_network.node[29].core_layer 	data[29] 	8789
scalar tree_4_3_u01_r16_network.node[29].content_store 	p_hit[29] 	0.29132398000323
scalar tree_4_3_u01_r16_network.node[29].content_store 	hits[29] 	3613
scalar tree_4_3_u01_r16_network.node[29].content_store 	misses[29] 	8789
scalar tree_4_3_u01_r16_network.node[29].content_store 	decision_yes[29] 	36
scalar tree_4_3_u01_r16_network.node[29].content_store 	decision_no[29] 	8753
scalar tree_4_3_u01_r16_network.node[29].content_store 	decision_ratio[29] 	0.0040960291273182
scalar tree_4_3_u01_r16_network.node[30].core_layer 	interests[30] 	12582
scalar tree_4_3_u01_r16_network.node[30].core_layer 	data[30] 	8855
scalar tree_4_3_u01_r16_network.node[30].content_store 	p_hit[30] 	0.29621681767605
scalar tree_4_3_u01_r16_network.node[30].content_store 	hits[30] 	3727
scalar tree_4_3_u01_r16_network.node[30].content_store 	misses[30] 	8855
scalar tree_4_3_u01_r16_network.node[30].content_store 	decision_yes[30] 	31
scalar tree_4_3_u01_r16_network.node[30].content_store 	decision_no[30] 	8824
scalar tree_4_3_u01_r16_network.node[30].content_store 	decision_ratio[30] 	0.0035008469791078
scalar tree_4_3_u01_r16_network.node[31].core_layer 	interests[31] 	12289
scalar tree_4_3_u01_r16_network.node[31].core_layer 	data[31] 	8711
scalar tree_4_3_u01_r16_network.node[31].content_store 	p_hit[31] 	0.29115469118724
scalar tree_4_3_u01_r16_network.node[31].content_store 	hits[31] 	3578
scalar tree_4_3_u01_r16_network.node[31].content_store 	misses[31] 	8711
scalar tree_4_3_u01_r16_network.node[31].content_store 	decision_yes[31] 	22
scalar tree_4_3_u01_r16_network.node[31].content_store 	decision_no[31] 	8689
scalar tree_4_3_u01_r16_network.node[31].content_store 	decision_ratio[31] 	0.0025255424176329
scalar tree_4_3_u01_r16_network.node[32].core_layer 	interests[32] 	12831
scalar tree_4_3_u01_r16_network.node[32].core_layer 	data[32] 	8715
scalar tree_4_3_u01_r16_network.node[32].content_store 	p_hit[32] 	0.32078559738134
scalar tree_4_3_u01_r16_network.node[32].content_store 	hits[32] 	4116
scalar tree_4_3_u01_r16_network.node[32].content_store 	misses[32] 	8715
scalar tree_4_3_u01_r16_network.node[32].content_store 	decision_yes[32] 	29
scalar tree_4_3_u01_r16_network.node[32].content_store 	decision_no[32] 	8686
scalar tree_4_3_u01_r16_network.node[32].content_store 	decision_ratio[32] 	0.0033275960986804
scalar tree_4_3_u01_r16_network.node[33].core_layer 	interests[33] 	12313
scalar tree_4_3_u01_r16_network.node[33].core_layer 	data[33] 	8688
scalar tree_4_3_u01_r16_network.node[33].content_store 	p_hit[33] 	0.29440428815073
scalar tree_4_3_u01_r16_network.node[33].content_store 	hits[33] 	3625
scalar tree_4_3_u01_r16_network.node[33].content_store 	misses[33] 	8688
scalar tree_4_3_u01_r16_network.node[33].content_store 	decision_yes[33] 	27
scalar tree_4_3_u01_r16_network.node[33].content_store 	decision_no[33] 	8661
scalar tree_4_3_u01_r16_network.node[33].content_store 	decision_ratio[33] 	0.0031077348066298
scalar tree_4_3_u01_r16_network.node[34].core_layer 	interests[34] 	12453
scalar tree_4_3_u01_r16_network.node[34].core_layer 	data[34] 	8765
scalar tree_4_3_u01_r16_network.node[34].content_store 	p_hit[34] 	0.29607323536497
scalar tree_4_3_u01_r16_network.node[34].content_store 	hits[34] 	3687
scalar tree_4_3_u01_r16_network.node[34].content_store 	misses[34] 	8766
scalar tree_4_3_u01_r16_network.node[34].content_store 	decision_yes[34] 	21
scalar tree_4_3_u01_r16_network.node[34].content_store 	decision_no[34] 	8744
scalar tree_4_3_u01_r16_network.node[34].content_store 	decision_ratio[34] 	0.0023958927552767
scalar tree_4_3_u01_r16_network.node[35].core_layer 	interests[35] 	12694
scalar tree_4_3_u01_r16_network.node[35].core_layer 	data[35] 	8980
scalar tree_4_3_u01_r16_network.node[35].content_store 	p_hit[35] 	0.29257917126201
scalar tree_4_3_u01_r16_network.node[35].content_store 	hits[35] 	3714
scalar tree_4_3_u01_r16_network.node[35].content_store 	misses[35] 	8980
scalar tree_4_3_u01_r16_network.node[35].content_store 	decision_yes[35] 	22
scalar tree_4_3_u01_r16_network.node[35].content_store 	decision_no[35] 	8958
scalar tree_4_3_u01_r16_network.node[35].content_store 	decision_ratio[35] 	0.0024498886414254
scalar tree_4_3_u01_r16_network.node[36].core_layer 	interests[36] 	12537
scalar tree_4_3_u01_r16_network.node[36].core_layer 	data[36] 	8779
scalar tree_4_3_u01_r16_network.node[36].content_store 	p_hit[36] 	0.29975273191354
scalar tree_4_3_u01_r16_network.node[36].content_store 	hits[36] 	3758
scalar tree_4_3_u01_r16_network.node[36].content_store 	misses[36] 	8779
scalar tree_4_3_u01_r16_network.node[36].content_store 	decision_yes[36] 	23
scalar tree_4_3_u01_r16_network.node[36].content_store 	decision_no[36] 	8756
scalar tree_4_3_u01_r16_network.node[36].content_store 	decision_ratio[36] 	0.0026198883699738
scalar tree_4_3_u01_r16_network.node[37].core_layer 	interests[37] 	12433
scalar tree_4_3_u01_r16_network.node[37].core_layer 	data[37] 	8762
scalar tree_4_3_u01_r16_network.node[37].content_store 	p_hit[37] 	0.29526260757661
scalar tree_4_3_u01_r16_network.node[37].content_store 	hits[37] 	3671
scalar tree_4_3_u01_r16_network.node[37].content_store 	misses[37] 	8762
scalar tree_4_3_u01_r16_network.node[37].content_store 	decision_yes[37] 	31
scalar tree_4_3_u01_r16_network.node[37].content_store 	decision_no[37] 	8731
scalar tree_4_3_u01_r16_network.node[37].content_store 	decision_ratio[37] 	0.0035380050216845
scalar tree_4_3_u01_r16_network.node[38].core_layer 	interests[38] 	12712
scalar tree_4_3_u01_r16_network.node[38].core_layer 	data[38] 	8747
scalar tree_4_3_u01_r16_network.node[38].content_store 	p_hit[38] 	0.31191000629327
scalar tree_4_3_u01_r16_network.node[38].content_store 	hits[38] 	3965
scalar tree_4_3_u01_r16_network.node[38].content_store 	misses[38] 	8747
scalar tree_4_3_u01_r16_network.node[38].content_store 	decision_yes[38] 	34
scalar tree_4_3_u01_r16_network.node[38].content_store 	decision_no[38] 	8713
scalar tree_4_3_u01_r16_network.node[38].content_store 	decision_ratio[38] 	0.0038870469875386
scalar tree_4_3_u01_r16_network.node[39].core_layer 	interests[39] 	12441
scalar tree_4_3_u01_r16_network.node[39].core_layer 	data[39] 	8729
scalar tree_4_3_u01_r16_network.node[39].content_store 	p_hit[39] 	0.29820753958685
scalar tree_4_3_u01_r16_network.node[39].content_store 	hits[39] 	3710
scalar tree_4_3_u01_r16_network.node[39].content_store 	misses[39] 	8731
scalar tree_4_3_u01_r16_network.node[39].content_store 	decision_yes[39] 	33
scalar tree_4_3_u01_r16_network.node[39].content_store 	decision_no[39] 	8696
scalar tree_4_3_u01_r16_network.node[39].content_store 	decision_ratio[39] 	0.0037805017756902
scalar tree_4_3_u01_r16_network.client[13] 	hdistance[13] 	2.6902449149024
scalar tree_4_3_u01_r16_network.client[13] 	downloads[13] 	12045
scalar tree_4_3_u01_r16_network.client[13] 	avg_time[13] 	0.004186714318
scalar tree_4_3_u01_r16_network.client[14] 	hdistance[14] 	2.6380732431541
scalar tree_4_3_u01_r16_network.client[14] 	downloads[14] 	12124
scalar tree_4_3_u01_r16_network.client[14] 	avg_time[14] 	0.004110521564
scalar tree_4_3_u01_r16_network.client[15] 	hdistance[15] 	2.6675318151373
scalar tree_4_3_u01_r16_network.client[15] 	downloads[15] 	11944
scalar tree_4_3_u01_r16_network.client[15] 	avg_time[15] 	0.004161844335
scalar tree_4_3_u01_r16_network.client[16] 	hdistance[16] 	2.657642508828
scalar tree_4_3_u01_r16_network.client[16] 	downloads[16] 	11894
scalar tree_4_3_u01_r16_network.client[16] 	avg_time[16] 	0.004146180092
scalar tree_4_3_u01_r16_network.client[17] 	hdistance[17] 	2.644394015801
scalar tree_4_3_u01_r16_network.client[17] 	downloads[17] 	11898
scalar tree_4_3_u01_r16_network.client[17] 	avg_time[17] 	0.004125903459
scalar tree_4_3_u01_r16_network.client[18] 	hdistance[18] 	2.6181878692071
scalar tree_4_3_u01_r16_network.client[18] 	downloads[18] 	12019
scalar tree_4_3_u01_r16_network.client[18] 	avg_time[18] 	0.004050583555
scalar tree_4_3_u01_r16_network.client[19] 	hdistance[19] 	2.6294117647059
scalar tree_4_3_u01_r16_network.client[19] 	downloads[19] 	11900
scalar tree_4_3_u01_r16_network.client[19] 	avg_time[19] 	0.004089576886
scalar tree_4_3_u01_r16_network.client[20] 	hdistance[20] 	2.6119453635361
scalar tree_4_3_u01_r16_network.client[20] 	downloads[20] 	11787
scalar tree_4_3_u01_r16_network.client[20] 	avg_time[20] 	0.004068207806
scalar tree_4_3_u01_r16_network.client[21] 	hdistance[21] 	2.6266500622665
scalar tree_4_3_u01_r16_network.client[21] 	downloads[21] 	12045
scalar tree_4_3_u01_r16_network.client[21] 	avg_time[21] 	0.004079698103
scalar tree_4_3_u01_r16_network.client[22] 	hdistance[22] 	2.6549174266699
scalar tree_4_3_u01_r16_network.client[22] 	downloads[22] 	12171
scalar tree_4_3_u01_r16_network.client[22] 	avg_time[22] 	0.004127841862
scalar tree_4_3_u01_r16_network.client[23] 	hdistance[23] 	2.6630714344976
scalar tree_4_3_u01_r16_network.client[23] 	downloads[23] 	12053
scalar tree_4_3_u01_r16_network.client[23] 	avg_time[23] 	0.004143197852
scalar tree_4_3_u01_r16_network.client[24] 	hdistance[24] 	2.6518956179222
scalar tree_4_3_u01_r16_network.client[24] 	downloads[24] 	12186
scalar tree_4_3_u01_r16_network.client[24] 	avg_time[24] 	0.004126863828
scalar tree_4_3_u01_r16_network.client[25] 	hdistance[25] 	2.6387271039082
scalar tree_4_3_u01_r16_network.client[25] 	downloads[25] 	11847
scalar tree_4_3_u01_r16_network.client[25] 	avg_time[25] 	0.004099431493
scalar tree_4_3_u01_r16_network.client[26] 	hdistance[26] 	2.6631421197236
scalar tree_4_3_u01_r16_network.client[26] 	downloads[26] 	12011
scalar tree_4_3_u01_r16_network.client[26] 	avg_time[26] 	0.004146029803
scalar tree_4_3_u01_r16_network.client[27] 	hdistance[27] 	2.6765322377798
scalar tree_4_3_u01_r16_network.client[27] 	downloads[27] 	11927
scalar tree_4_3_u01_r16_network.client[27] 	avg_time[27] 	0.004161948394
scalar tree_4_3_u01_r16_network.client[28] 	hdistance[28] 	2.6656045614623
scalar tree_4_3_u01_r16_network.client[28] 	downloads[28] 	11926
scalar tree_4_3_u01_r16_network.client[28] 	avg_time[28] 	0.004145728999
scalar tree_4_3_u01_r16_network.client[29] 	hdistance[29] 	2.6782783453358
scalar tree_4_3_u01_r16_network.client[29] 	downloads[29] 	11942
scalar tree_4_3_u01_r16_network.client[29] 	avg_time[29] 	0.004172097195
scalar tree_4_3_u01_r16_network.client[30] 	hdistance[30] 	2.6620466428749
scalar tree_4_3_u01_r16_network.client[30] 	downloads[30] 	12049
scalar tree_4_3_u01_r16_network.client[30] 	avg_time[30] 	0.004141253505
scalar tree_4_3_u01_r16_network.client[31] 	hdistance[31] 	2.6526896090879
scalar tree_4_3_u01_r16_network.client[31] 	downloads[31] 	11972
scalar tree_4_3_u01_r16_network.client[31] 	avg_time[31] 	0.004130969282
scalar tree_4_3_u01_r16_network.client[32] 	hdistance[32] 	2.5933467404056
scalar tree_4_3_u01_r16_network.client[32] 	downloads[32] 	11934
scalar tree_4_3_u01_r16_network.client[32] 	avg_time[32] 	0.004011895734
scalar tree_4_3_u01_r16_network.client[33] 	hdistance[33] 	2.6482597054886
scalar tree_4_3_u01_r16_network.client[33] 	downloads[33] 	11952
scalar tree_4_3_u01_r16_network.client[33] 	avg_time[33] 	0.00412198497
scalar tree_4_3_u01_r16_network.client[34] 	hdistance[34] 	2.6382059800664
scalar tree_4_3_u01_r16_network.client[34] 	downloads[34] 	12040
scalar tree_4_3_u01_r16_network.client[34] 	avg_time[34] 	0.004095844142
scalar tree_4_3_u01_r16_network.client[35] 	hdistance[35] 	2.6707576501391
scalar tree_4_3_u01_r16_network.client[35] 	downloads[35] 	12222
scalar tree_4_3_u01_r16_network.client[35] 	avg_time[35] 	0.004140726768
scalar tree_4_3_u01_r16_network.client[36] 	hdistance[36] 	2.64024592888
scalar tree_4_3_u01_r16_network.client[36] 	downloads[36] 	12036
scalar tree_4_3_u01_r16_network.client[36] 	avg_time[36] 	0.004097936761
scalar tree_4_3_u01_r16_network.client[37] 	hdistance[37] 	2.6414907651715
scalar tree_4_3_u01_r16_network.client[37] 	downloads[37] 	12128
scalar tree_4_3_u01_r16_network.client[37] 	avg_time[37] 	0.004109495658
scalar tree_4_3_u01_r16_network.client[38] 	hdistance[38] 	2.5842621302271
scalar tree_4_3_u01_r16_network.client[38] 	downloads[38] 	11933
scalar tree_4_3_u01_r16_network.client[38] 	avg_time[38] 	0.004001673059
scalar tree_4_3_u01_r16_network.client[39] 	hdistance[39] 	2.6266754923051
scalar tree_4_3_u01_r16_network.client[39] 	downloads[39] 	12086
scalar tree_4_3_u01_r16_network.client[39] 	avg_time[39] 	0.004092779044
