version 2
run General-47-20160902-12:27:42-7280
attr a 0.9
attr cd wfc0.01
attr configname General
attr cr lru
attr datetime 20160902-12:27:42
attr experiment General
attr fsize 1
attr inifile hw5115/scenario_Y/omnetp.ini
attr iterationvars "$name=tree_4_3, $un=02, $rep=8, $cd=wfc0.01, $cr=lru, $fsize=1, $a=0.9, $sl=nrr, $ttl=1000, $variance=0.05"
attr iterationvars2 "$name=tree_4_3, $un=02, $rep=8, $cd=wfc0.01, $cr=lru, $fsize=1, $a=0.9, $sl=nrr, $ttl=1000, $variance=0.05, $repetition=0"
attr measurement "$name=tree_4_3, $un=02, $rep=8, $cd=wfc0.01, $cr=lru, $fsize=1, $a=0.9, $sl=nrr, $ttl=1000, $variance=0.05"
attr name tree_4_3
attr network networks.${name}_u${un}_r${rep}_network
attr processid 7280
attr rep 8
attr repetition 0
attr replication #0
attr resultdir results
attr runnumber 47
attr seedset 8
attr sl nrr
attr ttl 1000
attr un 02
attr variance 0.05

scalar . 	a 	0.9
scalar . 	fsize 	1
scalar . 	rep 	8
scalar . 	ttl 	1000
scalar . 	un 	02
scalar . 	variance 	0.05
scalar tree_4_3_u02_r8_network.content_distribution 	repo-0 	0
scalar tree_4_3_u02_r8_network.content_distribution 	client-0 	13
scalar tree_4_3_u02_r8_network.content_distribution 	client-1 	14
scalar tree_4_3_u02_r8_network.content_distribution 	client-2 	15
scalar tree_4_3_u02_r8_network.content_distribution 	client-3 	16
scalar tree_4_3_u02_r8_network.content_distribution 	client-4 	17
scalar tree_4_3_u02_r8_network.content_distribution 	client-5 	18
scalar tree_4_3_u02_r8_network.content_distribution 	client-6 	19
scalar tree_4_3_u02_r8_network.content_distribution 	client-7 	20
scalar tree_4_3_u02_r8_network.content_distribution 	client-8 	21
scalar tree_4_3_u02_r8_network.content_distribution 	client-9 	22
scalar tree_4_3_u02_r8_network.content_distribution 	client-10 	23
scalar tree_4_3_u02_r8_network.content_distribution 	client-11 	24
scalar tree_4_3_u02_r8_network.content_distribution 	client-12 	25
scalar tree_4_3_u02_r8_network.content_distribution 	client-13 	26
scalar tree_4_3_u02_r8_network.content_distribution 	client-14 	27
scalar tree_4_3_u02_r8_network.content_distribution 	client-15 	28
scalar tree_4_3_u02_r8_network.content_distribution 	client-16 	29
scalar tree_4_3_u02_r8_network.content_distribution 	client-17 	30
scalar tree_4_3_u02_r8_network.content_distribution 	client-18 	31
scalar tree_4_3_u02_r8_network.content_distribution 	client-19 	32
scalar tree_4_3_u02_r8_network.content_distribution 	client-20 	33
scalar tree_4_3_u02_r8_network.content_distribution 	client-21 	34
scalar tree_4_3_u02_r8_network.content_distribution 	client-22 	35
scalar tree_4_3_u02_r8_network.content_distribution 	client-23 	36
scalar tree_4_3_u02_r8_network.content_distribution 	client-24 	37
scalar tree_4_3_u02_r8_network.content_distribution 	client-25 	38
scalar tree_4_3_u02_r8_network.content_distribution 	client-26 	39
scalar tree_4_3_u02_r8_network.content_distribution 	repo-0_card 	100000
scalar tree_4_3_u02_r8_network.content_distribution 	repo-0_price 	0
scalar tree_4_3_u02_r8_network.statistics 	stabilization_time 	1053.5
scalar tree_4_3_u02_r8_network.statistics 	p_hit 	0.21845792884383
scalar tree_4_3_u02_r8_network.statistics 	interests 	25138.1
scalar tree_4_3_u02_r8_network.statistics 	data 	17070.05
scalar tree_4_3_u02_r8_network.statistics 	hdistance 	2.7222633086859
scalar tree_4_3_u02_r8_network.statistics 	avg_time 	0.004231762866
scalar tree_4_3_u02_r8_network.statistics 	downloads 	322699
scalar tree_4_3_u02_r8_network.statistics 	total_cost 	0
scalar tree_4_3_u02_r8_network.statistics 	total_replicas 	100000
scalar tree_4_3_u02_r8_network.statistics 	inner_hit 	0.39359588966808
scalar tree_4_3_u02_r8_network.node[0].core_layer 	interests[0] 	198392
scalar tree_4_3_u02_r8_network.node[0].core_layer 	repo_load[0] 	195686
scalar tree_4_3_u02_r8_network.node[0].core_layer 	data[0] 	0
scalar tree_4_3_u02_r8_network.node[0].core_layer 	repo_int[0] 	195686
scalar tree_4_3_u02_r8_network.node[0].content_store 	p_hit[0] 	0.013639662889633
scalar tree_4_3_u02_r8_network.node[0].content_store 	hits[0] 	2706
scalar tree_4_3_u02_r8_network.node[0].content_store 	misses[0] 	195686
scalar tree_4_3_u02_r8_network.node[0].content_store 	decision_yes[0] 	3010
scalar tree_4_3_u02_r8_network.node[0].content_store 	decision_no[0] 	192676
scalar tree_4_3_u02_r8_network.node[0].content_store 	decision_ratio[0] 	0.015381785104709
scalar tree_4_3_u02_r8_network.node[1].core_layer 	interests[1] 	71011
scalar tree_4_3_u02_r8_network.node[1].core_layer 	data[1] 	69619
scalar tree_4_3_u02_r8_network.node[1].content_store 	p_hit[1] 	0.019588514455507
scalar tree_4_3_u02_r8_network.node[1].content_store 	hits[1] 	1391
scalar tree_4_3_u02_r8_network.node[1].content_store 	misses[1] 	69620
scalar tree_4_3_u02_r8_network.node[1].content_store 	decision_yes[1] 	774
scalar tree_4_3_u02_r8_network.node[1].content_store 	decision_no[1] 	68845
scalar tree_4_3_u02_r8_network.node[1].content_store 	decision_ratio[1] 	0.011117654663238
scalar tree_4_3_u02_r8_network.node[2].core_layer 	interests[2] 	73333
scalar tree_4_3_u02_r8_network.node[2].core_layer 	data[2] 	71214
scalar tree_4_3_u02_r8_network.node[2].content_store 	p_hit[2] 	0.028868313037787
scalar tree_4_3_u02_r8_network.node[2].content_store 	hits[2] 	2117
scalar tree_4_3_u02_r8_network.node[2].content_store 	misses[2] 	71216
scalar tree_4_3_u02_r8_network.node[2].content_store 	decision_yes[2] 	913
scalar tree_4_3_u02_r8_network.node[2].content_store 	decision_no[2] 	70301
scalar tree_4_3_u02_r8_network.node[2].content_store 	decision_ratio[2] 	0.012820512820513
scalar tree_4_3_u02_r8_network.node[3].core_layer 	interests[3] 	72602
scalar tree_4_3_u02_r8_network.node[3].core_layer 	data[3] 	71084
scalar tree_4_3_u02_r8_network.node[3].content_store 	p_hit[3] 	0.020894741191703
scalar tree_4_3_u02_r8_network.node[3].content_store 	hits[3] 	1517
scalar tree_4_3_u02_r8_network.node[3].content_store 	misses[3] 	71085
scalar tree_4_3_u02_r8_network.node[3].content_store 	decision_yes[3] 	812
scalar tree_4_3_u02_r8_network.node[3].content_store 	decision_no[3] 	70272
scalar tree_4_3_u02_r8_network.node[3].content_store 	decision_ratio[3] 	0.011423105058804
scalar tree_4_3_u02_r8_network.node[4].core_layer 	interests[4] 	36165
scalar tree_4_3_u02_r8_network.node[4].core_layer 	data[4] 	33819
scalar tree_4_3_u02_r8_network.node[4].content_store 	p_hit[4] 	0.064814046730264
scalar tree_4_3_u02_r8_network.node[4].content_store 	hits[4] 	2344
scalar tree_4_3_u02_r8_network.node[4].content_store 	misses[4] 	33821
scalar tree_4_3_u02_r8_network.node[4].content_store 	decision_yes[4] 	487
scalar tree_4_3_u02_r8_network.node[4].content_store 	decision_no[4] 	33332
scalar tree_4_3_u02_r8_network.node[4].content_store 	decision_ratio[4] 	0.014400189242733
scalar tree_4_3_u02_r8_network.node[5].core_layer 	interests[5] 	21759
scalar tree_4_3_u02_r8_network.node[5].core_layer 	data[5] 	18397
scalar tree_4_3_u02_r8_network.node[5].content_store 	p_hit[5] 	0.15446481915529
scalar tree_4_3_u02_r8_network.node[5].content_store 	hits[5] 	3361
scalar tree_4_3_u02_r8_network.node[5].content_store 	misses[5] 	18398
scalar tree_4_3_u02_r8_network.node[5].content_store 	decision_yes[5] 	375
scalar tree_4_3_u02_r8_network.node[5].content_store 	decision_no[5] 	18022
scalar tree_4_3_u02_r8_network.node[5].content_store 	decision_ratio[5] 	0.020383758221449
scalar tree_4_3_u02_r8_network.node[6].core_layer 	interests[6] 	27710
scalar tree_4_3_u02_r8_network.node[6].core_layer 	data[6] 	25898
scalar tree_4_3_u02_r8_network.node[6].content_store 	p_hit[6] 	0.065391555395164
scalar tree_4_3_u02_r8_network.node[6].content_store 	hits[6] 	1812
scalar tree_4_3_u02_r8_network.node[6].content_store 	misses[6] 	25898
scalar tree_4_3_u02_r8_network.node[6].content_store 	decision_yes[6] 	410
scalar tree_4_3_u02_r8_network.node[6].content_store 	decision_no[6] 	25488
scalar tree_4_3_u02_r8_network.node[6].content_store 	decision_ratio[6] 	0.015831338327284
scalar tree_4_3_u02_r8_network.node[7].core_layer 	interests[7] 	35686
scalar tree_4_3_u02_r8_network.node[7].core_layer 	data[7] 	33372
scalar tree_4_3_u02_r8_network.node[7].content_store 	p_hit[7] 	0.064843355937903
scalar tree_4_3_u02_r8_network.node[7].content_store 	hits[7] 	2314
scalar tree_4_3_u02_r8_network.node[7].content_store 	misses[7] 	33372
scalar tree_4_3_u02_r8_network.node[7].content_store 	decision_yes[7] 	476
scalar tree_4_3_u02_r8_network.node[7].content_store 	decision_no[7] 	32896
scalar tree_4_3_u02_r8_network.node[7].content_store 	decision_ratio[7] 	0.014263454392904
scalar tree_4_3_u02_r8_network.node[8].core_layer 	interests[8] 	28197
scalar tree_4_3_u02_r8_network.node[8].core_layer 	data[8] 	26029
scalar tree_4_3_u02_r8_network.node[8].content_store 	p_hit[8] 	0.076852147391566
scalar tree_4_3_u02_r8_network.node[8].content_store 	hits[8] 	2167
scalar tree_4_3_u02_r8_network.node[8].content_store 	misses[8] 	26030
scalar tree_4_3_u02_r8_network.node[8].content_store 	decision_yes[8] 	425
scalar tree_4_3_u02_r8_network.node[8].content_store 	decision_no[8] 	25604
scalar tree_4_3_u02_r8_network.node[8].content_store 	decision_ratio[8] 	0.016327941910945
scalar tree_4_3_u02_r8_network.node[9].core_layer 	interests[9] 	19839
scalar tree_4_3_u02_r8_network.node[9].core_layer 	data[9] 	17181
scalar tree_4_3_u02_r8_network.node[9].content_store 	p_hit[9] 	0.13397852714351
scalar tree_4_3_u02_r8_network.node[9].content_store 	hits[9] 	2658
scalar tree_4_3_u02_r8_network.node[9].content_store 	misses[9] 	17181
scalar tree_4_3_u02_r8_network.node[9].content_store 	decision_yes[9] 	303
scalar tree_4_3_u02_r8_network.node[9].content_store 	decision_no[9] 	16878
scalar tree_4_3_u02_r8_network.node[9].content_store 	decision_ratio[9] 	0.017635760433036
scalar tree_4_3_u02_r8_network.node[10].core_layer 	interests[10] 	36331
scalar tree_4_3_u02_r8_network.node[10].core_layer 	data[10] 	33889
scalar tree_4_3_u02_r8_network.node[10].content_store 	p_hit[10] 	0.067187801051444
scalar tree_4_3_u02_r8_network.node[10].content_store 	hits[10] 	2441
scalar tree_4_3_u02_r8_network.node[10].content_store 	misses[10] 	33890
scalar tree_4_3_u02_r8_network.node[10].content_store 	decision_yes[10] 	422
scalar tree_4_3_u02_r8_network.node[10].content_store 	decision_no[10] 	33467
scalar tree_4_3_u02_r8_network.node[10].content_store 	decision_ratio[10] 	0.012452418188793
scalar tree_4_3_u02_r8_network.node[11].core_layer 	interests[11] 	27755
scalar tree_4_3_u02_r8_network.node[11].core_layer 	data[11] 	25761
scalar tree_4_3_u02_r8_network.node[11].content_store 	p_hit[11] 	0.071734822554495
scalar tree_4_3_u02_r8_network.node[11].content_store 	hits[11] 	1991
scalar tree_4_3_u02_r8_network.node[11].content_store 	misses[11] 	25764
scalar tree_4_3_u02_r8_network.node[11].content_store 	decision_yes[11] 	366
scalar tree_4_3_u02_r8_network.node[11].content_store 	decision_no[11] 	25395
scalar tree_4_3_u02_r8_network.node[11].content_store 	decision_ratio[11] 	0.014207522999884
scalar tree_4_3_u02_r8_network.node[12].core_layer 	interests[12] 	19334
scalar tree_4_3_u02_r8_network.node[12].core_layer 	data[12] 	17297
scalar tree_4_3_u02_r8_network.node[12].content_store 	p_hit[12] 	0.105358435916
scalar tree_4_3_u02_r8_network.node[12].content_store 	hits[12] 	2037
scalar tree_4_3_u02_r8_network.node[12].content_store 	misses[12] 	17297
scalar tree_4_3_u02_r8_network.node[12].content_store 	decision_yes[12] 	292
scalar tree_4_3_u02_r8_network.node[12].content_store 	decision_no[12] 	17005
scalar tree_4_3_u02_r8_network.node[12].content_store 	decision_ratio[12] 	0.016881540151471
scalar tree_4_3_u02_r8_network.node[13].core_layer 	interests[13] 	12738
scalar tree_4_3_u02_r8_network.node[13].core_layer 	data[13] 	8871
scalar tree_4_3_u02_r8_network.node[13].content_store 	p_hit[13] 	0.30350133458942
scalar tree_4_3_u02_r8_network.node[13].content_store 	hits[13] 	3866
scalar tree_4_3_u02_r8_network.node[13].content_store 	misses[13] 	8872
scalar tree_4_3_u02_r8_network.node[13].content_store 	decision_yes[13] 	117
scalar tree_4_3_u02_r8_network.node[13].content_store 	decision_no[13] 	8754
scalar tree_4_3_u02_r8_network.node[13].content_store 	decision_ratio[13] 	0.013189042948935
scalar tree_4_3_u02_r8_network.node[14].core_layer 	interests[14] 	12575
scalar tree_4_3_u02_r8_network.node[14].core_layer 	data[14] 	9024
scalar tree_4_3_u02_r8_network.node[14].content_store 	p_hit[14] 	0.28238568588469
scalar tree_4_3_u02_r8_network.node[14].content_store 	hits[14] 	3551
scalar tree_4_3_u02_r8_network.node[14].content_store 	misses[14] 	9024
scalar tree_4_3_u02_r8_network.node[14].content_store 	decision_yes[14] 	105
scalar tree_4_3_u02_r8_network.node[14].content_store 	decision_no[14] 	8919
scalar tree_4_3_u02_r8_network.node[14].content_store 	decision_ratio[14] 	0.011635638297872
scalar tree_4_3_u02_r8_network.node[15].core_layer 	interests[15] 	12678
scalar tree_4_3_u02_r8_network.node[15].core_layer 	data[15] 	9024
scalar tree_4_3_u02_r8_network.node[15].content_store 	p_hit[15] 	0.28821580690961
scalar tree_4_3_u02_r8_network.node[15].content_store 	hits[15] 	3654
scalar tree_4_3_u02_r8_network.node[15].content_store 	misses[15] 	9024
scalar tree_4_3_u02_r8_network.node[15].content_store 	decision_yes[15] 	125
scalar tree_4_3_u02_r8_network.node[15].content_store 	decision_no[15] 	8899
scalar tree_4_3_u02_r8_network.node[15].content_store 	decision_ratio[15] 	0.01385195035461
scalar tree_4_3_u02_r8_network.node[16].core_layer 	interests[16] 	13114
scalar tree_4_3_u02_r8_network.node[16].core_layer 	data[16] 	8913
scalar tree_4_3_u02_r8_network.node[16].content_store 	p_hit[16] 	0.32026841543389
scalar tree_4_3_u02_r8_network.node[16].content_store 	hits[16] 	4200
scalar tree_4_3_u02_r8_network.node[16].content_store 	misses[16] 	8914
scalar tree_4_3_u02_r8_network.node[16].content_store 	decision_yes[16] 	118
scalar tree_4_3_u02_r8_network.node[16].content_store 	decision_no[16] 	8795
scalar tree_4_3_u02_r8_network.node[16].content_store 	decision_ratio[16] 	0.013239088971166
scalar tree_4_3_u02_r8_network.node[17].core_layer 	interests[17] 	12383
scalar tree_4_3_u02_r8_network.node[17].core_layer 	data[17] 	8878
scalar tree_4_3_u02_r8_network.node[17].content_store 	p_hit[17] 	0.28304934183962
scalar tree_4_3_u02_r8_network.node[17].content_store 	hits[17] 	3505
scalar tree_4_3_u02_r8_network.node[17].content_store 	misses[17] 	8878
scalar tree_4_3_u02_r8_network.node[17].content_store 	decision_yes[17] 	111
scalar tree_4_3_u02_r8_network.node[17].content_store 	decision_no[17] 	8767
scalar tree_4_3_u02_r8_network.node[17].content_store 	decision_ratio[17] 	0.012502815949538
scalar tree_4_3_u02_r8_network.node[18].core_layer 	interests[18] 	12456
scalar tree_4_3_u02_r8_network.node[18].core_layer 	data[18] 	8877
scalar tree_4_3_u02_r8_network.node[18].content_store 	p_hit[18] 	0.28725112395633
scalar tree_4_3_u02_r8_network.node[18].content_store 	hits[18] 	3578
scalar tree_4_3_u02_r8_network.node[18].content_store 	misses[18] 	8878
scalar tree_4_3_u02_r8_network.node[18].content_store 	decision_yes[18] 	97
scalar tree_4_3_u02_r8_network.node[18].content_store 	decision_no[18] 	8780
scalar tree_4_3_u02_r8_network.node[18].content_store 	decision_ratio[18] 	0.010927115016334
scalar tree_4_3_u02_r8_network.node[19].core_layer 	interests[19] 	12622
scalar tree_4_3_u02_r8_network.node[19].core_layer 	data[19] 	9149
scalar tree_4_3_u02_r8_network.node[19].content_store 	p_hit[19] 	0.27515449215655
scalar tree_4_3_u02_r8_network.node[19].content_store 	hits[19] 	3473
scalar tree_4_3_u02_r8_network.node[19].content_store 	misses[19] 	9149
scalar tree_4_3_u02_r8_network.node[19].content_store 	decision_yes[19] 	144
scalar tree_4_3_u02_r8_network.node[19].content_store 	decision_no[19] 	9005
scalar tree_4_3_u02_r8_network.node[19].content_store 	decision_ratio[19] 	0.015739425073779
scalar tree_4_3_u02_r8_network.node[20].core_layer 	interests[20] 	12385
scalar tree_4_3_u02_r8_network.node[20].core_layer 	data[20] 	8793
scalar tree_4_3_u02_r8_network.node[20].content_store 	p_hit[20] 	0.29002825999193
scalar tree_4_3_u02_r8_network.node[20].content_store 	hits[20] 	3592
scalar tree_4_3_u02_r8_network.node[20].content_store 	misses[20] 	8793
scalar tree_4_3_u02_r8_network.node[20].content_store 	decision_yes[20] 	100
scalar tree_4_3_u02_r8_network.node[20].content_store 	decision_no[20] 	8693
scalar tree_4_3_u02_r8_network.node[20].content_store 	decision_ratio[20] 	0.011372682815876
scalar tree_4_3_u02_r8_network.node[21].core_layer 	interests[21] 	12230
scalar tree_4_3_u02_r8_network.node[21].core_layer 	data[21] 	8653
scalar tree_4_3_u02_r8_network.node[21].content_store 	p_hit[21] 	0.29247751430908
scalar tree_4_3_u02_r8_network.node[21].content_store 	hits[21] 	3577
scalar tree_4_3_u02_r8_network.node[21].content_store 	misses[21] 	8653
scalar tree_4_3_u02_r8_network.node[21].content_store 	decision_yes[21] 	99
scalar tree_4_3_u02_r8_network.node[21].content_store 	decision_no[21] 	8554
scalar tree_4_3_u02_r8_network.node[21].content_store 	decision_ratio[21] 	0.011441118687161
scalar tree_4_3_u02_r8_network.node[22].core_layer 	interests[22] 	12293
scalar tree_4_3_u02_r8_network.node[22].core_layer 	data[22] 	8838
scalar tree_4_3_u02_r8_network.node[22].content_store 	p_hit[22] 	0.28105425852111
scalar tree_4_3_u02_r8_network.node[22].content_store 	hits[22] 	3455
scalar tree_4_3_u02_r8_network.node[22].content_store 	misses[22] 	8838
scalar tree_4_3_u02_r8_network.node[22].content_store 	decision_yes[22] 	122
scalar tree_4_3_u02_r8_network.node[22].content_store 	decision_no[22] 	8716
scalar tree_4_3_u02_r8_network.node[22].content_store 	decision_ratio[22] 	0.013804028060647
scalar tree_4_3_u02_r8_network.node[23].core_layer 	interests[23] 	12468
scalar tree_4_3_u02_r8_network.node[23].core_layer 	data[23] 	8941
scalar tree_4_3_u02_r8_network.node[23].content_store 	p_hit[23] 	0.28288418350979
scalar tree_4_3_u02_r8_network.node[23].content_store 	hits[23] 	3527
scalar tree_4_3_u02_r8_network.node[23].content_store 	misses[23] 	8941
scalar tree_4_3_u02_r8_network.node[23].content_store 	decision_yes[23] 	114
scalar tree_4_3_u02_r8_network.node[23].content_store 	decision_no[23] 	8827
scalar tree_4_3_u02_r8_network.node[23].content_store 	decision_ratio[23] 	0.012750251649704
scalar tree_4_3_u02_r8_network.node[24].core_layer 	interests[24] 	12779
scalar tree_4_3_u02_r8_network.node[24].core_layer 	data[24] 	8648
scalar tree_4_3_u02_r8_network.node[24].content_store 	p_hit[24] 	0.32326473119962
scalar tree_4_3_u02_r8_network.node[24].content_store 	hits[24] 	4131
scalar tree_4_3_u02_r8_network.node[24].content_store 	misses[24] 	8648
scalar tree_4_3_u02_r8_network.node[24].content_store 	decision_yes[24] 	128
scalar tree_4_3_u02_r8_network.node[24].content_store 	decision_no[24] 	8520
scalar tree_4_3_u02_r8_network.node[24].content_store 	decision_ratio[24] 	0.014801110083256
scalar tree_4_3_u02_r8_network.node[25].core_layer 	interests[25] 	12398
scalar tree_4_3_u02_r8_network.node[25].core_layer 	data[25] 	8865
scalar tree_4_3_u02_r8_network.node[25].content_store 	p_hit[25] 	0.28480400064527
scalar tree_4_3_u02_r8_network.node[25].content_store 	hits[25] 	3531
scalar tree_4_3_u02_r8_network.node[25].content_store 	misses[25] 	8867
scalar tree_4_3_u02_r8_network.node[25].content_store 	decision_yes[25] 	120
scalar tree_4_3_u02_r8_network.node[25].content_store 	decision_no[25] 	8745
scalar tree_4_3_u02_r8_network.node[25].content_store 	decision_ratio[25] 	0.013536379018613
scalar tree_4_3_u02_r8_network.node[26].core_layer 	interests[26] 	12542
scalar tree_4_3_u02_r8_network.node[26].core_layer 	data[26] 	8901
scalar tree_4_3_u02_r8_network.node[26].content_store 	p_hit[26] 	0.29030457662255
scalar tree_4_3_u02_r8_network.node[26].content_store 	hits[26] 	3641
scalar tree_4_3_u02_r8_network.node[26].content_store 	misses[26] 	8901
scalar tree_4_3_u02_r8_network.node[26].content_store 	decision_yes[26] 	116
scalar tree_4_3_u02_r8_network.node[26].content_store 	decision_no[26] 	8785
scalar tree_4_3_u02_r8_network.node[26].content_store 	decision_ratio[26] 	0.013032243568138
scalar tree_4_3_u02_r8_network.node[27].core_layer 	interests[27] 	12603
scalar tree_4_3_u02_r8_network.node[27].core_layer 	data[27] 	8891
scalar tree_4_3_u02_r8_network.node[27].content_store 	p_hit[27] 	0.29445370149964
scalar tree_4_3_u02_r8_network.node[27].content_store 	hits[27] 	3711
scalar tree_4_3_u02_r8_network.node[27].content_store 	misses[27] 	8892
scalar tree_4_3_u02_r8_network.node[27].content_store 	decision_yes[27] 	112
scalar tree_4_3_u02_r8_network.node[27].content_store 	decision_no[27] 	8779
scalar tree_4_3_u02_r8_network.node[27].content_store 	decision_ratio[27] 	0.01259700821055
scalar tree_4_3_u02_r8_network.node[28].core_layer 	interests[28] 	12559
scalar tree_4_3_u02_r8_network.node[28].core_layer 	data[28] 	8765
scalar tree_4_3_u02_r8_network.node[28].content_store 	p_hit[28] 	0.30209411577355
scalar tree_4_3_u02_r8_network.node[28].content_store 	hits[28] 	3794
scalar tree_4_3_u02_r8_network.node[28].content_store 	misses[28] 	8765
scalar tree_4_3_u02_r8_network.node[28].content_store 	decision_yes[28] 	138
scalar tree_4_3_u02_r8_network.node[28].content_store 	decision_no[28] 	8627
scalar tree_4_3_u02_r8_network.node[28].content_store 	decision_ratio[28] 	0.015744438106104
scalar tree_4_3_u02_r8_network.node[29].core_layer 	interests[29] 	12228
scalar tree_4_3_u02_r8_network.node[29].core_layer 	data[29] 	8862
scalar tree_4_3_u02_r8_network.node[29].content_store 	p_hit[29] 	0.27526987242395
scalar tree_4_3_u02_r8_network.node[29].content_store 	hits[29] 	3366
scalar tree_4_3_u02_r8_network.node[29].content_store 	misses[29] 	8862
scalar tree_4_3_u02_r8_network.node[29].content_store 	decision_yes[29] 	132
scalar tree_4_3_u02_r8_network.node[29].content_store 	decision_no[29] 	8730
scalar tree_4_3_u02_r8_network.node[29].content_store 	decision_ratio[29] 	0.014895057549086
scalar tree_4_3_u02_r8_network.node[30].core_layer 	interests[30] 	12306
scalar tree_4_3_u02_r8_network.node[30].core_layer 	data[30] 	8654
scalar tree_4_3_u02_r8_network.node[30].content_store 	p_hit[30] 	0.29676580529823
scalar tree_4_3_u02_r8_network.node[30].content_store 	hits[30] 	3652
scalar tree_4_3_u02_r8_network.node[30].content_store 	misses[30] 	8654
scalar tree_4_3_u02_r8_network.node[30].content_store 	decision_yes[30] 	120
scalar tree_4_3_u02_r8_network.node[30].content_store 	decision_no[30] 	8534
scalar tree_4_3_u02_r8_network.node[30].content_store 	decision_ratio[30] 	0.013866420152531
scalar tree_4_3_u02_r8_network.node[31].core_layer 	interests[31] 	12280
scalar tree_4_3_u02_r8_network.node[31].core_layer 	data[31] 	8826
scalar tree_4_3_u02_r8_network.node[31].content_store 	p_hit[31] 	0.28127035830619
scalar tree_4_3_u02_r8_network.node[31].content_store 	hits[31] 	3454
scalar tree_4_3_u02_r8_network.node[31].content_store 	misses[31] 	8826
scalar tree_4_3_u02_r8_network.node[31].content_store 	decision_yes[31] 	103
scalar tree_4_3_u02_r8_network.node[31].content_store 	decision_no[31] 	8723
scalar tree_4_3_u02_r8_network.node[31].content_store 	decision_ratio[31] 	0.011670065714933
scalar tree_4_3_u02_r8_network.node[32].core_layer 	interests[32] 	12502
scalar tree_4_3_u02_r8_network.node[32].core_layer 	data[32] 	8830
scalar tree_4_3_u02_r8_network.node[32].content_store 	p_hit[32] 	0.29371300591905
scalar tree_4_3_u02_r8_network.node[32].content_store 	hits[32] 	3672
scalar tree_4_3_u02_r8_network.node[32].content_store 	misses[32] 	8830
scalar tree_4_3_u02_r8_network.node[32].content_store 	decision_yes[32] 	99
scalar tree_4_3_u02_r8_network.node[32].content_store 	decision_no[32] 	8731
scalar tree_4_3_u02_r8_network.node[32].content_store 	decision_ratio[32] 	0.011211778029445
scalar tree_4_3_u02_r8_network.node[33].core_layer 	interests[33] 	12576
scalar tree_4_3_u02_r8_network.node[33].core_layer 	data[33] 	8954
scalar tree_4_3_u02_r8_network.node[33].content_store 	p_hit[33] 	0.28800890585242
scalar tree_4_3_u02_r8_network.node[33].content_store 	hits[33] 	3622
scalar tree_4_3_u02_r8_network.node[33].content_store 	misses[33] 	8954
scalar tree_4_3_u02_r8_network.node[33].content_store 	decision_yes[33] 	134
scalar tree_4_3_u02_r8_network.node[33].content_store 	decision_no[33] 	8820
scalar tree_4_3_u02_r8_network.node[33].content_store 	decision_ratio[33] 	0.014965378601742
scalar tree_4_3_u02_r8_network.node[34].core_layer 	interests[34] 	12293
scalar tree_4_3_u02_r8_network.node[34].core_layer 	data[34] 	8875
scalar tree_4_3_u02_r8_network.node[34].content_store 	p_hit[34] 	0.27796306841292
scalar tree_4_3_u02_r8_network.node[34].content_store 	hits[34] 	3417
scalar tree_4_3_u02_r8_network.node[34].content_store 	misses[34] 	8876
scalar tree_4_3_u02_r8_network.node[34].content_store 	decision_yes[34] 	110
scalar tree_4_3_u02_r8_network.node[34].content_store 	decision_no[34] 	8765
scalar tree_4_3_u02_r8_network.node[34].content_store 	decision_ratio[34] 	0.012394366197183
scalar tree_4_3_u02_r8_network.node[35].core_layer 	interests[35] 	12333
scalar tree_4_3_u02_r8_network.node[35].core_layer 	data[35] 	8780
scalar tree_4_3_u02_r8_network.node[35].content_store 	p_hit[35] 	0.28792670072164
scalar tree_4_3_u02_r8_network.node[35].content_store 	hits[35] 	3551
scalar tree_4_3_u02_r8_network.node[35].content_store 	misses[35] 	8782
scalar tree_4_3_u02_r8_network.node[35].content_store 	decision_yes[35] 	121
scalar tree_4_3_u02_r8_network.node[35].content_store 	decision_no[35] 	8659
scalar tree_4_3_u02_r8_network.node[35].content_store 	decision_ratio[35] 	0.01378132118451
scalar tree_4_3_u02_r8_network.node[36].core_layer 	interests[36] 	12472
scalar tree_4_3_u02_r8_network.node[36].core_layer 	data[36] 	8884
scalar tree_4_3_u02_r8_network.node[36].content_store 	p_hit[36] 	0.287604233483
scalar tree_4_3_u02_r8_network.node[36].content_store 	hits[36] 	3587
scalar tree_4_3_u02_r8_network.node[36].content_store 	misses[36] 	8885
scalar tree_4_3_u02_r8_network.node[36].content_store 	decision_yes[36] 	109
scalar tree_4_3_u02_r8_network.node[36].content_store 	decision_no[36] 	8775
scalar tree_4_3_u02_r8_network.node[36].content_store 	decision_ratio[36] 	0.012269248086448
scalar tree_4_3_u02_r8_network.node[37].core_layer 	interests[37] 	12911
scalar tree_4_3_u02_r8_network.node[37].core_layer 	data[37] 	8920
scalar tree_4_3_u02_r8_network.node[37].content_store 	p_hit[37] 	0.30911625745488
scalar tree_4_3_u02_r8_network.node[37].content_store 	hits[37] 	3991
scalar tree_4_3_u02_r8_network.node[37].content_store 	misses[37] 	8920
scalar tree_4_3_u02_r8_network.node[37].content_store 	decision_yes[37] 	151
scalar tree_4_3_u02_r8_network.node[37].content_store 	decision_no[37] 	8769
scalar tree_4_3_u02_r8_network.node[37].content_store 	decision_ratio[37] 	0.016928251121076
scalar tree_4_3_u02_r8_network.node[38].core_layer 	interests[38] 	12447
scalar tree_4_3_u02_r8_network.node[38].core_layer 	data[38] 	8864
scalar tree_4_3_u02_r8_network.node[38].content_store 	p_hit[38] 	0.28786052864144
scalar tree_4_3_u02_r8_network.node[38].content_store 	hits[38] 	3583
scalar tree_4_3_u02_r8_network.node[38].content_store 	misses[38] 	8864
scalar tree_4_3_u02_r8_network.node[38].content_store 	decision_yes[38] 	99
scalar tree_4_3_u02_r8_network.node[38].content_store 	decision_no[38] 	8765
scalar tree_4_3_u02_r8_network.node[38].content_store 	decision_ratio[38] 	0.011168772563177
scalar tree_4_3_u02_r8_network.node[39].core_layer 	interests[39] 	12239
scalar tree_4_3_u02_r8_network.node[39].core_layer 	data[39] 	8762
scalar tree_4_3_u02_r8_network.node[39].content_store 	p_hit[39] 	0.28401013154669
scalar tree_4_3_u02_r8_network.node[39].content_store 	hits[39] 	3476
scalar tree_4_3_u02_r8_network.node[39].content_store 	misses[39] 	8763
scalar tree_4_3_u02_r8_network.node[39].content_store 	decision_yes[39] 	104
scalar tree_4_3_u02_r8_network.node[39].content_store 	decision_no[39] 	8658
scalar tree_4_3_u02_r8_network.node[39].content_store 	decision_ratio[39] 	0.01186943620178
scalar tree_4_3_u02_r8_network.client[13] 	hdistance[13] 	2.6880046136101
scalar tree_4_3_u02_r8_network.client[13] 	downloads[13] 	12138
scalar tree_4_3_u02_r8_network.client[13] 	avg_time[13] 	0.004168228956
scalar tree_4_3_u02_r8_network.client[14] 	hdistance[14] 	2.7532359774311
scalar tree_4_3_u02_r8_network.client[14] 	downloads[14] 	12052
scalar tree_4_3_u02_r8_network.client[14] 	avg_time[14] 	0.004273478582
scalar tree_4_3_u02_r8_network.client[15] 	hdistance[15] 	2.7483329217091
scalar tree_4_3_u02_r8_network.client[15] 	downloads[15] 	12147
scalar tree_4_3_u02_r8_network.client[15] 	avg_time[15] 	0.004263271822
scalar tree_4_3_u02_r8_network.client[16] 	hdistance[16] 	2.6669179229481
scalar tree_4_3_u02_r8_network.client[16] 	downloads[16] 	11940
scalar tree_4_3_u02_r8_network.client[16] 	avg_time[16] 	0.004170083231
scalar tree_4_3_u02_r8_network.client[17] 	hdistance[17] 	2.7149332661798
scalar tree_4_3_u02_r8_network.client[17] 	downloads[17] 	11913
scalar tree_4_3_u02_r8_network.client[17] 	avg_time[17] 	0.004265589231
scalar tree_4_3_u02_r8_network.client[18] 	hdistance[18] 	2.7194630872483
scalar tree_4_3_u02_r8_network.client[18] 	downloads[18] 	11920
scalar tree_4_3_u02_r8_network.client[18] 	avg_time[18] 	0.004279862762
scalar tree_4_3_u02_r8_network.client[19] 	hdistance[19] 	2.7710694923608
scalar tree_4_3_u02_r8_network.client[19] 	downloads[19] 	12174
scalar tree_4_3_u02_r8_network.client[19] 	avg_time[19] 	0.004315587556
scalar tree_4_3_u02_r8_network.client[20] 	hdistance[20] 	2.7489476342818
scalar tree_4_3_u02_r8_network.client[20] 	downloads[20] 	11878
scalar tree_4_3_u02_r8_network.client[20] 	avg_time[20] 	0.004265571869
scalar tree_4_3_u02_r8_network.client[21] 	hdistance[21] 	2.7262431880109
scalar tree_4_3_u02_r8_network.client[21] 	downloads[21] 	11744
scalar tree_4_3_u02_r8_network.client[21] 	avg_time[21] 	0.004240732453
scalar tree_4_3_u02_r8_network.client[22] 	hdistance[22] 	2.7356127285037
scalar tree_4_3_u02_r8_network.client[22] 	downloads[22] 	11816
scalar tree_4_3_u02_r8_network.client[22] 	avg_time[22] 	0.004269969994
scalar tree_4_3_u02_r8_network.client[23] 	hdistance[23] 	2.7327304697312
scalar tree_4_3_u02_r8_network.client[23] 	downloads[23] 	11943
scalar tree_4_3_u02_r8_network.client[23] 	avg_time[23] 	0.004266931611
scalar tree_4_3_u02_r8_network.client[24] 	hdistance[24] 	2.6288426003696
scalar tree_4_3_u02_r8_network.client[24] 	downloads[24] 	11906
scalar tree_4_3_u02_r8_network.client[24] 	avg_time[24] 	0.004067685078
scalar tree_4_3_u02_r8_network.client[25] 	hdistance[25] 	2.7496206373293
scalar tree_4_3_u02_r8_network.client[25] 	downloads[25] 	11862
scalar tree_4_3_u02_r8_network.client[25] 	avg_time[25] 	0.004288481247
scalar tree_4_3_u02_r8_network.client[26] 	hdistance[26] 	2.7315441852688
scalar tree_4_3_u02_r8_network.client[26] 	downloads[26] 	11961
scalar tree_4_3_u02_r8_network.client[26] 	avg_time[26] 	0.004263493149
scalar tree_4_3_u02_r8_network.client[27] 	hdistance[27] 	2.7112396694215
scalar tree_4_3_u02_r8_network.client[27] 	downloads[27] 	12100
scalar tree_4_3_u02_r8_network.client[27] 	avg_time[27] 	0.004224790349
scalar tree_4_3_u02_r8_network.client[28] 	hdistance[28] 	2.6844705681915
scalar tree_4_3_u02_r8_network.client[28] 	downloads[28] 	11739
scalar tree_4_3_u02_r8_network.client[28] 	avg_time[28] 	0.004161509998
scalar tree_4_3_u02_r8_network.client[29] 	hdistance[29] 	2.7348229342327
scalar tree_4_3_u02_r8_network.client[29] 	downloads[29] 	11860
scalar tree_4_3_u02_r8_network.client[29] 	avg_time[29] 	0.004257332643
scalar tree_4_3_u02_r8_network.client[30] 	hdistance[30] 	2.6717069892473
scalar tree_4_3_u02_r8_network.client[30] 	downloads[30] 	11904
scalar tree_4_3_u02_r8_network.client[30] 	avg_time[30] 	0.004154398889
scalar tree_4_3_u02_r8_network.client[31] 	hdistance[31] 	2.737872268624
scalar tree_4_3_u02_r8_network.client[31] 	downloads[31] 	11853
scalar tree_4_3_u02_r8_network.client[31] 	avg_time[31] 	0.004241792371
scalar tree_4_3_u02_r8_network.client[32] 	hdistance[32] 	2.715455304929
scalar tree_4_3_u02_r8_network.client[32] 	downloads[32] 	11970
scalar tree_4_3_u02_r8_network.client[32] 	avg_time[32] 	0.004208184137
scalar tree_4_3_u02_r8_network.client[33] 	hdistance[33] 	2.7305682289507
scalar tree_4_3_u02_r8_network.client[33] 	downloads[33] 	12055
scalar tree_4_3_u02_r8_network.client[33] 	avg_time[33] 	0.004226672463
scalar tree_4_3_u02_r8_network.client[34] 	hdistance[34] 	2.7750504371217
scalar tree_4_3_u02_r8_network.client[34] 	downloads[34] 	11896
scalar tree_4_3_u02_r8_network.client[34] 	avg_time[34] 	0.004301252458
scalar tree_4_3_u02_r8_network.client[35] 	hdistance[35] 	2.7392513909965
scalar tree_4_3_u02_r8_network.client[35] 	downloads[35] 	11862
scalar tree_4_3_u02_r8_network.client[35] 	avg_time[35] 	0.004246835673
scalar tree_4_3_u02_r8_network.client[36] 	hdistance[36] 	2.7383812443045
scalar tree_4_3_u02_r8_network.client[36] 	downloads[36] 	12071
scalar tree_4_3_u02_r8_network.client[36] 	avg_time[36] 	0.004237756896
scalar tree_4_3_u02_r8_network.client[37] 	hdistance[37] 	2.6890665334333
scalar tree_4_3_u02_r8_network.client[37] 	downloads[37] 	12009
scalar tree_4_3_u02_r8_network.client[37] 	avg_time[37] 	0.004143556001
scalar tree_4_3_u02_r8_network.client[38] 	hdistance[38] 	2.721068740177
scalar tree_4_3_u02_r8_network.client[38] 	downloads[38] 	12089
scalar tree_4_3_u02_r8_network.client[38] 	avg_time[38] 	0.004214075902
scalar tree_4_3_u02_r8_network.client[39] 	hdistance[39] 	2.7366562999075
scalar tree_4_3_u02_r8_network.client[39] 	downloads[39] 	11897
scalar tree_4_3_u02_r8_network.client[39] 	avg_time[39] 	0.004240472082
