version 2
run General-40-20160902-12:16:45-7280
attr a 0.9
attr cd wfc0.01
attr configname General
attr cr lru
attr datetime 20160902-12:16:45
attr experiment General
attr fsize 1
attr inifile hw5115/scenario_Y/omnetp.ini
attr iterationvars "$name=tree_4_3, $un=02, $rep=1, $cd=wfc0.01, $cr=lru, $fsize=1, $a=0.9, $sl=nrr, $ttl=1000, $variance=0.05"
attr iterationvars2 "$name=tree_4_3, $un=02, $rep=1, $cd=wfc0.01, $cr=lru, $fsize=1, $a=0.9, $sl=nrr, $ttl=1000, $variance=0.05, $repetition=0"
attr measurement "$name=tree_4_3, $un=02, $rep=1, $cd=wfc0.01, $cr=lru, $fsize=1, $a=0.9, $sl=nrr, $ttl=1000, $variance=0.05"
attr name tree_4_3
attr network networks.${name}_u${un}_r${rep}_network
attr processid 7280
attr rep 1
attr repetition 0
attr replication #0
attr resultdir results
attr runnumber 40
attr seedset 1
attr sl nrr
attr ttl 1000
attr un 02
attr variance 0.05

scalar . 	a 	0.9
scalar . 	fsize 	1
scalar . 	rep 	1
scalar . 	ttl 	1000
scalar . 	un 	02
scalar . 	variance 	0.05
scalar tree_4_3_u02_r1_network.content_distribution 	repo-0 	0
scalar tree_4_3_u02_r1_network.content_distribution 	client-0 	13
scalar tree_4_3_u02_r1_network.content_distribution 	client-1 	14
scalar tree_4_3_u02_r1_network.content_distribution 	client-2 	15
scalar tree_4_3_u02_r1_network.content_distribution 	client-3 	16
scalar tree_4_3_u02_r1_network.content_distribution 	client-4 	17
scalar tree_4_3_u02_r1_network.content_distribution 	client-5 	18
scalar tree_4_3_u02_r1_network.content_distribution 	client-6 	19
scalar tree_4_3_u02_r1_network.content_distribution 	client-7 	20
scalar tree_4_3_u02_r1_network.content_distribution 	client-8 	21
scalar tree_4_3_u02_r1_network.content_distribution 	client-9 	22
scalar tree_4_3_u02_r1_network.content_distribution 	client-10 	23
scalar tree_4_3_u02_r1_network.content_distribution 	client-11 	24
scalar tree_4_3_u02_r1_network.content_distribution 	client-12 	25
scalar tree_4_3_u02_r1_network.content_distribution 	client-13 	26
scalar tree_4_3_u02_r1_network.content_distribution 	client-14 	27
scalar tree_4_3_u02_r1_network.content_distribution 	client-15 	28
scalar tree_4_3_u02_r1_network.content_distribution 	client-16 	29
scalar tree_4_3_u02_r1_network.content_distribution 	client-17 	30
scalar tree_4_3_u02_r1_network.content_distribution 	client-18 	31
scalar tree_4_3_u02_r1_network.content_distribution 	client-19 	32
scalar tree_4_3_u02_r1_network.content_distribution 	client-20 	33
scalar tree_4_3_u02_r1_network.content_distribution 	client-21 	34
scalar tree_4_3_u02_r1_network.content_distribution 	client-22 	35
scalar tree_4_3_u02_r1_network.content_distribution 	client-23 	36
scalar tree_4_3_u02_r1_network.content_distribution 	client-24 	37
scalar tree_4_3_u02_r1_network.content_distribution 	client-25 	38
scalar tree_4_3_u02_r1_network.content_distribution 	client-26 	39
scalar tree_4_3_u02_r1_network.content_distribution 	repo-0_card 	100000
scalar tree_4_3_u02_r1_network.content_distribution 	repo-0_price 	0
scalar tree_4_3_u02_r1_network.statistics 	stabilization_time 	1054.9
scalar tree_4_3_u02_r1_network.statistics 	p_hit 	0.22104490074168
scalar tree_4_3_u02_r1_network.statistics 	interests 	25262.4
scalar tree_4_3_u02_r1_network.statistics 	data 	17172.725
scalar tree_4_3_u02_r1_network.statistics 	hdistance 	2.7187662155793
scalar tree_4_3_u02_r1_network.statistics 	avg_time 	0.004245643356
scalar tree_4_3_u02_r1_network.statistics 	downloads 	323583
scalar tree_4_3_u02_r1_network.statistics 	total_cost 	0
scalar tree_4_3_u02_r1_network.statistics 	total_replicas 	100000
scalar tree_4_3_u02_r1_network.statistics 	inner_hit 	0.4041096102082
scalar tree_4_3_u02_r1_network.node[0].core_layer 	interests[0] 	195428
scalar tree_4_3_u02_r1_network.node[0].core_layer 	repo_load[0] 	192820
scalar tree_4_3_u02_r1_network.node[0].core_layer 	data[0] 	0
scalar tree_4_3_u02_r1_network.node[0].core_layer 	repo_int[0] 	192820
scalar tree_4_3_u02_r1_network.node[0].content_store 	p_hit[0] 	0.013345068260434
scalar tree_4_3_u02_r1_network.node[0].content_store 	hits[0] 	2608
scalar tree_4_3_u02_r1_network.node[0].content_store 	misses[0] 	192820
scalar tree_4_3_u02_r1_network.node[0].content_store 	decision_yes[0] 	3008
scalar tree_4_3_u02_r1_network.node[0].content_store 	decision_no[0] 	189812
scalar tree_4_3_u02_r1_network.node[0].content_store 	decision_ratio[0] 	0.015600041489472
scalar tree_4_3_u02_r1_network.node[1].core_layer 	interests[1] 	103513
scalar tree_4_3_u02_r1_network.node[1].core_layer 	data[1] 	101365
scalar tree_4_3_u02_r1_network.node[1].content_store 	p_hit[1] 	0.020751016780501
scalar tree_4_3_u02_r1_network.node[1].content_store 	hits[1] 	2148
scalar tree_4_3_u02_r1_network.node[1].content_store 	misses[1] 	101365
scalar tree_4_3_u02_r1_network.node[1].content_store 	decision_yes[1] 	1195
scalar tree_4_3_u02_r1_network.node[1].content_store 	decision_no[1] 	100170
scalar tree_4_3_u02_r1_network.node[1].content_store 	decision_ratio[1] 	0.011789079070685
scalar tree_4_3_u02_r1_network.node[2].core_layer 	interests[2] 	88276
scalar tree_4_3_u02_r1_network.node[2].core_layer 	data[2] 	86186
scalar tree_4_3_u02_r1_network.node[2].content_store 	p_hit[2] 	0.02365308804205
scalar tree_4_3_u02_r1_network.node[2].content_store 	hits[2] 	2088
scalar tree_4_3_u02_r1_network.node[2].content_store 	misses[2] 	86188
scalar tree_4_3_u02_r1_network.node[2].content_store 	decision_yes[2] 	1036
scalar tree_4_3_u02_r1_network.node[2].content_store 	decision_no[2] 	85150
scalar tree_4_3_u02_r1_network.node[2].content_store 	decision_ratio[2] 	0.012020513772538
scalar tree_4_3_u02_r1_network.node[3].core_layer 	interests[3] 	27083
scalar tree_4_3_u02_r1_network.node[3].core_layer 	data[3] 	25087
scalar tree_4_3_u02_r1_network.node[3].content_store 	p_hit[3] 	0.073699368607614
scalar tree_4_3_u02_r1_network.node[3].content_store 	hits[3] 	1996
scalar tree_4_3_u02_r1_network.node[3].content_store 	misses[3] 	25087
scalar tree_4_3_u02_r1_network.node[3].content_store 	decision_yes[3] 	393
scalar tree_4_3_u02_r1_network.node[3].content_store 	decision_no[3] 	24694
scalar tree_4_3_u02_r1_network.node[3].content_store 	decision_ratio[3] 	0.015665484115279
scalar tree_4_3_u02_r1_network.node[4].core_layer 	interests[4] 	28725
scalar tree_4_3_u02_r1_network.node[4].core_layer 	data[4] 	26230
scalar tree_4_3_u02_r1_network.node[4].content_store 	p_hit[4] 	0.086858137510879
scalar tree_4_3_u02_r1_network.node[4].content_store 	hits[4] 	2495
scalar tree_4_3_u02_r1_network.node[4].content_store 	misses[4] 	26230
scalar tree_4_3_u02_r1_network.node[4].content_store 	decision_yes[4] 	370
scalar tree_4_3_u02_r1_network.node[4].content_store 	decision_no[4] 	25860
scalar tree_4_3_u02_r1_network.node[4].content_store 	decision_ratio[4] 	0.014105985512772
scalar tree_4_3_u02_r1_network.node[5].core_layer 	interests[5] 	37347
scalar tree_4_3_u02_r1_network.node[5].core_layer 	data[5] 	34716
scalar tree_4_3_u02_r1_network.node[5].content_store 	p_hit[5] 	0.070447425496024
scalar tree_4_3_u02_r1_network.node[5].content_store 	hits[5] 	2631
scalar tree_4_3_u02_r1_network.node[5].content_store 	misses[5] 	34716
scalar tree_4_3_u02_r1_network.node[5].content_store 	decision_yes[5] 	518
scalar tree_4_3_u02_r1_network.node[5].content_store 	decision_no[5] 	34198
scalar tree_4_3_u02_r1_network.node[5].content_store 	decision_ratio[5] 	0.014921073856435
scalar tree_4_3_u02_r1_network.node[6].core_layer 	interests[6] 	19979
scalar tree_4_3_u02_r1_network.node[6].core_layer 	data[6] 	17655
scalar tree_4_3_u02_r1_network.node[6].content_store 	p_hit[6] 	0.11632213824516
scalar tree_4_3_u02_r1_network.node[6].content_store 	hits[6] 	2324
scalar tree_4_3_u02_r1_network.node[6].content_store 	misses[6] 	17655
scalar tree_4_3_u02_r1_network.node[6].content_store 	decision_yes[6] 	291
scalar tree_4_3_u02_r1_network.node[6].content_store 	decision_no[6] 	17364
scalar tree_4_3_u02_r1_network.node[6].content_store 	decision_ratio[6] 	0.016482582837723
scalar tree_4_3_u02_r1_network.node[7].core_layer 	interests[7] 	28295
scalar tree_4_3_u02_r1_network.node[7].core_layer 	data[7] 	26107
scalar tree_4_3_u02_r1_network.node[7].content_store 	p_hit[7] 	0.077257465983389
scalar tree_4_3_u02_r1_network.node[7].content_store 	hits[7] 	2186
scalar tree_4_3_u02_r1_network.node[7].content_store 	misses[7] 	26109
scalar tree_4_3_u02_r1_network.node[7].content_store 	decision_yes[7] 	369
scalar tree_4_3_u02_r1_network.node[7].content_store 	decision_no[7] 	25738
scalar tree_4_3_u02_r1_network.node[7].content_store 	decision_ratio[7] 	0.014134140268893
scalar tree_4_3_u02_r1_network.node[8].core_layer 	interests[8] 	27521
scalar tree_4_3_u02_r1_network.node[8].core_layer 	data[8] 	25253
scalar tree_4_3_u02_r1_network.node[8].content_store 	p_hit[8] 	0.082373460266705
scalar tree_4_3_u02_r1_network.node[8].content_store 	hits[8] 	2267
scalar tree_4_3_u02_r1_network.node[8].content_store 	misses[8] 	25254
scalar tree_4_3_u02_r1_network.node[8].content_store 	decision_yes[8] 	381
scalar tree_4_3_u02_r1_network.node[8].content_store 	decision_no[8] 	24872
scalar tree_4_3_u02_r1_network.node[8].content_store 	decision_ratio[8] 	0.015087316358452
scalar tree_4_3_u02_r1_network.node[9].core_layer 	interests[9] 	28466
scalar tree_4_3_u02_r1_network.node[9].core_layer 	data[9] 	25813
scalar tree_4_3_u02_r1_network.node[9].content_store 	p_hit[9] 	0.093234033583925
scalar tree_4_3_u02_r1_network.node[9].content_store 	hits[9] 	2654
scalar tree_4_3_u02_r1_network.node[9].content_store 	misses[9] 	25812
scalar tree_4_3_u02_r1_network.node[9].content_store 	decision_yes[9] 	380
scalar tree_4_3_u02_r1_network.node[9].content_store 	decision_no[9] 	25433
scalar tree_4_3_u02_r1_network.node[9].content_store 	decision_ratio[9] 	0.014721264479138
scalar tree_4_3_u02_r1_network.node[10].core_layer 	interests[10] 	38077
scalar tree_4_3_u02_r1_network.node[10].core_layer 	data[10] 	34583
scalar tree_4_3_u02_r1_network.node[10].content_store 	p_hit[10] 	0.091761430784988
scalar tree_4_3_u02_r1_network.node[10].content_store 	hits[10] 	3494
scalar tree_4_3_u02_r1_network.node[10].content_store 	misses[10] 	34583
scalar tree_4_3_u02_r1_network.node[10].content_store 	decision_yes[10] 	552
scalar tree_4_3_u02_r1_network.node[10].content_store 	decision_no[10] 	34031
scalar tree_4_3_u02_r1_network.node[10].content_store 	decision_ratio[10] 	0.015961599629876
scalar tree_4_3_u02_r1_network.node[11].core_layer 	interests[11] 	21403
scalar tree_4_3_u02_r1_network.node[11].core_layer 	data[11] 	18195
scalar tree_4_3_u02_r1_network.node[11].content_store 	p_hit[11] 	0.14988553006588
scalar tree_4_3_u02_r1_network.node[11].content_store 	hits[11] 	3208
scalar tree_4_3_u02_r1_network.node[11].content_store 	misses[11] 	18195
scalar tree_4_3_u02_r1_network.node[11].content_store 	decision_yes[11] 	349
scalar tree_4_3_u02_r1_network.node[11].content_store 	decision_no[11] 	17846
scalar tree_4_3_u02_r1_network.node[11].content_store 	decision_ratio[11] 	0.019181093707062
scalar tree_4_3_u02_r1_network.node[12].core_layer 	interests[12] 	27380
scalar tree_4_3_u02_r1_network.node[12].core_layer 	data[12] 	25736
scalar tree_4_3_u02_r1_network.node[12].content_store 	p_hit[12] 	0.060007304601899
scalar tree_4_3_u02_r1_network.node[12].content_store 	hits[12] 	1643
scalar tree_4_3_u02_r1_network.node[12].content_store 	misses[12] 	25737
scalar tree_4_3_u02_r1_network.node[12].content_store 	decision_yes[12] 	377
scalar tree_4_3_u02_r1_network.node[12].content_store 	decision_no[12] 	25359
scalar tree_4_3_u02_r1_network.node[12].content_store 	decision_ratio[12] 	0.014648741063102
scalar tree_4_3_u02_r1_network.node[13].core_layer 	interests[13] 	12571
scalar tree_4_3_u02_r1_network.node[13].core_layer 	data[13] 	8832
scalar tree_4_3_u02_r1_network.node[13].content_store 	p_hit[13] 	0.29735104605839
scalar tree_4_3_u02_r1_network.node[13].content_store 	hits[13] 	3738
scalar tree_4_3_u02_r1_network.node[13].content_store 	misses[13] 	8833
scalar tree_4_3_u02_r1_network.node[13].content_store 	decision_yes[13] 	89
scalar tree_4_3_u02_r1_network.node[13].content_store 	decision_no[13] 	8743
scalar tree_4_3_u02_r1_network.node[13].content_store 	decision_ratio[13] 	0.010076992753623
scalar tree_4_3_u02_r1_network.node[14].core_layer 	interests[14] 	12552
scalar tree_4_3_u02_r1_network.node[14].core_layer 	data[14] 	8906
scalar tree_4_3_u02_r1_network.node[14].content_store 	p_hit[14] 	0.29047163798598
scalar tree_4_3_u02_r1_network.node[14].content_store 	hits[14] 	3646
scalar tree_4_3_u02_r1_network.node[14].content_store 	misses[14] 	8906
scalar tree_4_3_u02_r1_network.node[14].content_store 	decision_yes[14] 	127
scalar tree_4_3_u02_r1_network.node[14].content_store 	decision_no[14] 	8779
scalar tree_4_3_u02_r1_network.node[14].content_store 	decision_ratio[14] 	0.014260049404896
scalar tree_4_3_u02_r1_network.node[15].core_layer 	interests[15] 	12644
scalar tree_4_3_u02_r1_network.node[15].core_layer 	data[15] 	8958
scalar tree_4_3_u02_r1_network.node[15].content_store 	p_hit[15] 	0.29152167035748
scalar tree_4_3_u02_r1_network.node[15].content_store 	hits[15] 	3686
scalar tree_4_3_u02_r1_network.node[15].content_store 	misses[15] 	8958
scalar tree_4_3_u02_r1_network.node[15].content_store 	decision_yes[15] 	121
scalar tree_4_3_u02_r1_network.node[15].content_store 	decision_no[15] 	8837
scalar tree_4_3_u02_r1_network.node[15].content_store 	decision_ratio[15] 	0.013507479348069
scalar tree_4_3_u02_r1_network.node[16].core_layer 	interests[16] 	12570
scalar tree_4_3_u02_r1_network.node[16].core_layer 	data[16] 	8907
scalar tree_4_3_u02_r1_network.node[16].content_store 	p_hit[16] 	0.29140811455847
scalar tree_4_3_u02_r1_network.node[16].content_store 	hits[16] 	3663
scalar tree_4_3_u02_r1_network.node[16].content_store 	misses[16] 	8907
scalar tree_4_3_u02_r1_network.node[16].content_store 	decision_yes[16] 	99
scalar tree_4_3_u02_r1_network.node[16].content_store 	decision_no[16] 	8808
scalar tree_4_3_u02_r1_network.node[16].content_store 	decision_ratio[16] 	0.011114853486022
scalar tree_4_3_u02_r1_network.node[17].core_layer 	interests[17] 	12647
scalar tree_4_3_u02_r1_network.node[17].core_layer 	data[17] 	8967
scalar tree_4_3_u02_r1_network.node[17].content_store 	p_hit[17] 	0.29105716770776
scalar tree_4_3_u02_r1_network.node[17].content_store 	hits[17] 	3681
scalar tree_4_3_u02_r1_network.node[17].content_store 	misses[17] 	8966
scalar tree_4_3_u02_r1_network.node[17].content_store 	decision_yes[17] 	143
scalar tree_4_3_u02_r1_network.node[17].content_store 	decision_no[17] 	8824
scalar tree_4_3_u02_r1_network.node[17].content_store 	decision_ratio[17] 	0.015947362551578
scalar tree_4_3_u02_r1_network.node[18].core_layer 	interests[18] 	12720
scalar tree_4_3_u02_r1_network.node[18].core_layer 	data[18] 	8958
scalar tree_4_3_u02_r1_network.node[18].content_store 	p_hit[18] 	0.29575471698113
scalar tree_4_3_u02_r1_network.node[18].content_store 	hits[18] 	3762
scalar tree_4_3_u02_r1_network.node[18].content_store 	misses[18] 	8958
scalar tree_4_3_u02_r1_network.node[18].content_store 	decision_yes[18] 	106
scalar tree_4_3_u02_r1_network.node[18].content_store 	decision_no[18] 	8852
scalar tree_4_3_u02_r1_network.node[18].content_store 	decision_ratio[18] 	0.011832998437151
scalar tree_4_3_u02_r1_network.node[19].core_layer 	interests[19] 	12144
scalar tree_4_3_u02_r1_network.node[19].core_layer 	data[19] 	8748
scalar tree_4_3_u02_r1_network.node[19].content_store 	p_hit[19] 	0.2796442687747
scalar tree_4_3_u02_r1_network.node[19].content_store 	hits[19] 	3396
scalar tree_4_3_u02_r1_network.node[19].content_store 	misses[19] 	8748
scalar tree_4_3_u02_r1_network.node[19].content_store 	decision_yes[19] 	129
scalar tree_4_3_u02_r1_network.node[19].content_store 	decision_no[19] 	8619
scalar tree_4_3_u02_r1_network.node[19].content_store 	decision_ratio[19] 	0.014746227709191
scalar tree_4_3_u02_r1_network.node[20].core_layer 	interests[20] 	13150
scalar tree_4_3_u02_r1_network.node[20].core_layer 	data[20] 	9023
scalar tree_4_3_u02_r1_network.node[20].content_store 	p_hit[20] 	0.31376425855513
scalar tree_4_3_u02_r1_network.node[20].content_store 	hits[20] 	4126
scalar tree_4_3_u02_r1_network.node[20].content_store 	misses[20] 	9024
scalar tree_4_3_u02_r1_network.node[20].content_store 	decision_yes[20] 	132
scalar tree_4_3_u02_r1_network.node[20].content_store 	decision_no[20] 	8891
scalar tree_4_3_u02_r1_network.node[20].content_store 	decision_ratio[20] 	0.014629280727031
scalar tree_4_3_u02_r1_network.node[21].core_layer 	interests[21] 	12712
scalar tree_4_3_u02_r1_network.node[21].core_layer 	data[21] 	9155
scalar tree_4_3_u02_r1_network.node[21].content_store 	p_hit[21] 	0.27981434864695
scalar tree_4_3_u02_r1_network.node[21].content_store 	hits[21] 	3557
scalar tree_4_3_u02_r1_network.node[21].content_store 	misses[21] 	9155
scalar tree_4_3_u02_r1_network.node[21].content_store 	decision_yes[21] 	112
scalar tree_4_3_u02_r1_network.node[21].content_store 	decision_no[21] 	9043
scalar tree_4_3_u02_r1_network.node[21].content_store 	decision_ratio[21] 	0.012233752048061
scalar tree_4_3_u02_r1_network.node[22].core_layer 	interests[22] 	12601
scalar tree_4_3_u02_r1_network.node[22].core_layer 	data[22] 	8942
scalar tree_4_3_u02_r1_network.node[22].content_store 	p_hit[22] 	0.29037377985874
scalar tree_4_3_u02_r1_network.node[22].content_store 	hits[22] 	3659
scalar tree_4_3_u02_r1_network.node[22].content_store 	misses[22] 	8942
scalar tree_4_3_u02_r1_network.node[22].content_store 	decision_yes[22] 	143
scalar tree_4_3_u02_r1_network.node[22].content_store 	decision_no[22] 	8799
scalar tree_4_3_u02_r1_network.node[22].content_store 	decision_ratio[22] 	0.015991948110042
scalar tree_4_3_u02_r1_network.node[23].core_layer 	interests[23] 	12508
scalar tree_4_3_u02_r1_network.node[23].core_layer 	data[23] 	8933
scalar tree_4_3_u02_r1_network.node[23].content_store 	p_hit[23] 	0.28581707707067
scalar tree_4_3_u02_r1_network.node[23].content_store 	hits[23] 	3575
scalar tree_4_3_u02_r1_network.node[23].content_store 	misses[23] 	8933
scalar tree_4_3_u02_r1_network.node[23].content_store 	decision_yes[23] 	108
scalar tree_4_3_u02_r1_network.node[23].content_store 	decision_no[23] 	8825
scalar tree_4_3_u02_r1_network.node[23].content_store 	decision_ratio[23] 	0.012090003358334
scalar tree_4_3_u02_r1_network.node[24].core_layer 	interests[24] 	12394
scalar tree_4_3_u02_r1_network.node[24].core_layer 	data[24] 	8700
scalar tree_4_3_u02_r1_network.node[24].content_store 	p_hit[24] 	0.29796675810876
scalar tree_4_3_u02_r1_network.node[24].content_store 	hits[24] 	3693
scalar tree_4_3_u02_r1_network.node[24].content_store 	misses[24] 	8701
scalar tree_4_3_u02_r1_network.node[24].content_store 	decision_yes[24] 	113
scalar tree_4_3_u02_r1_network.node[24].content_store 	decision_no[24] 	8587
scalar tree_4_3_u02_r1_network.node[24].content_store 	decision_ratio[24] 	0.012988505747126
scalar tree_4_3_u02_r1_network.node[25].core_layer 	interests[25] 	12318
scalar tree_4_3_u02_r1_network.node[25].core_layer 	data[25] 	8830
scalar tree_4_3_u02_r1_network.node[25].content_store 	p_hit[25] 	0.28308166910213
scalar tree_4_3_u02_r1_network.node[25].content_store 	hits[25] 	3487
scalar tree_4_3_u02_r1_network.node[25].content_store 	misses[25] 	8831
scalar tree_4_3_u02_r1_network.node[25].content_store 	decision_yes[25] 	111
scalar tree_4_3_u02_r1_network.node[25].content_store 	decision_no[25] 	8719
scalar tree_4_3_u02_r1_network.node[25].content_store 	decision_ratio[25] 	0.012570781426954
scalar tree_4_3_u02_r1_network.node[26].core_layer 	interests[26] 	12292
scalar tree_4_3_u02_r1_network.node[26].core_layer 	data[26] 	8829
scalar tree_4_3_u02_r1_network.node[26].content_store 	p_hit[26] 	0.28172795314025
scalar tree_4_3_u02_r1_network.node[26].content_store 	hits[26] 	3463
scalar tree_4_3_u02_r1_network.node[26].content_store 	misses[26] 	8829
scalar tree_4_3_u02_r1_network.node[26].content_store 	decision_yes[26] 	108
scalar tree_4_3_u02_r1_network.node[26].content_store 	decision_no[26] 	8721
scalar tree_4_3_u02_r1_network.node[26].content_store 	decision_ratio[26] 	0.012232415902141
scalar tree_4_3_u02_r1_network.node[27].core_layer 	interests[27] 	12807
scalar tree_4_3_u02_r1_network.node[27].core_layer 	data[27] 	8812
scalar tree_4_3_u02_r1_network.node[27].content_store 	p_hit[27] 	0.31193878347779
scalar tree_4_3_u02_r1_network.node[27].content_store 	hits[27] 	3995
scalar tree_4_3_u02_r1_network.node[27].content_store 	misses[27] 	8812
scalar tree_4_3_u02_r1_network.node[27].content_store 	decision_yes[27] 	143
scalar tree_4_3_u02_r1_network.node[27].content_store 	decision_no[27] 	8669
scalar tree_4_3_u02_r1_network.node[27].content_store 	decision_ratio[27] 	0.016227871084884
scalar tree_4_3_u02_r1_network.node[28].core_layer 	interests[28] 	12365
scalar tree_4_3_u02_r1_network.node[28].core_layer 	data[28] 	8807
scalar tree_4_3_u02_r1_network.node[28].content_store 	p_hit[28] 	0.2877476748888
scalar tree_4_3_u02_r1_network.node[28].content_store 	hits[28] 	3558
scalar tree_4_3_u02_r1_network.node[28].content_store 	misses[28] 	8807
scalar tree_4_3_u02_r1_network.node[28].content_store 	decision_yes[28] 	132
scalar tree_4_3_u02_r1_network.node[28].content_store 	decision_no[28] 	8675
scalar tree_4_3_u02_r1_network.node[28].content_store 	decision_ratio[28] 	0.014988077665493
scalar tree_4_3_u02_r1_network.node[29].core_layer 	interests[29] 	12276
scalar tree_4_3_u02_r1_network.node[29].core_layer 	data[29] 	8744
scalar tree_4_3_u02_r1_network.node[29].content_store 	p_hit[29] 	0.28771586836103
scalar tree_4_3_u02_r1_network.node[29].content_store 	hits[29] 	3532
scalar tree_4_3_u02_r1_network.node[29].content_store 	misses[29] 	8744
scalar tree_4_3_u02_r1_network.node[29].content_store 	decision_yes[29] 	93
scalar tree_4_3_u02_r1_network.node[29].content_store 	decision_no[29] 	8651
scalar tree_4_3_u02_r1_network.node[29].content_store 	decision_ratio[29] 	0.010635864592864
scalar tree_4_3_u02_r1_network.node[30].core_layer 	interests[30] 	12393
scalar tree_4_3_u02_r1_network.node[30].core_layer 	data[30] 	8719
scalar tree_4_3_u02_r1_network.node[30].content_store 	p_hit[30] 	0.29653836843379
scalar tree_4_3_u02_r1_network.node[30].content_store 	hits[30] 	3675
scalar tree_4_3_u02_r1_network.node[30].content_store 	misses[30] 	8718
scalar tree_4_3_u02_r1_network.node[30].content_store 	decision_yes[30] 	110
scalar tree_4_3_u02_r1_network.node[30].content_store 	decision_no[30] 	8609
scalar tree_4_3_u02_r1_network.node[30].content_store 	decision_ratio[30] 	0.012616125702489
scalar tree_4_3_u02_r1_network.node[31].core_layer 	interests[31] 	12732
scalar tree_4_3_u02_r1_network.node[31].core_layer 	data[31] 	8998
scalar tree_4_3_u02_r1_network.node[31].content_store 	p_hit[31] 	0.29319824065347
scalar tree_4_3_u02_r1_network.node[31].content_store 	hits[31] 	3733
scalar tree_4_3_u02_r1_network.node[31].content_store 	misses[31] 	8999
scalar tree_4_3_u02_r1_network.node[31].content_store 	decision_yes[31] 	141
scalar tree_4_3_u02_r1_network.node[31].content_store 	decision_no[31] 	8857
scalar tree_4_3_u02_r1_network.node[31].content_store 	decision_ratio[31] 	0.015670148921983
scalar tree_4_3_u02_r1_network.node[32].core_layer 	interests[32] 	12638
scalar tree_4_3_u02_r1_network.node[32].core_layer 	data[32] 	9030
scalar tree_4_3_u02_r1_network.node[32].content_store 	p_hit[32] 	0.28548821015984
scalar tree_4_3_u02_r1_network.node[32].content_store 	hits[32] 	3608
scalar tree_4_3_u02_r1_network.node[32].content_store 	misses[32] 	9030
scalar tree_4_3_u02_r1_network.node[32].content_store 	decision_yes[32] 	115
scalar tree_4_3_u02_r1_network.node[32].content_store 	decision_no[32] 	8915
scalar tree_4_3_u02_r1_network.node[32].content_store 	decision_ratio[32] 	0.012735326688815
scalar tree_4_3_u02_r1_network.node[33].core_layer 	interests[33] 	12423
scalar tree_4_3_u02_r1_network.node[33].core_layer 	data[33] 	8833
scalar tree_4_3_u02_r1_network.node[33].content_store 	p_hit[33] 	0.28898011752395
scalar tree_4_3_u02_r1_network.node[33].content_store 	hits[33] 	3590
scalar tree_4_3_u02_r1_network.node[33].content_store 	misses[33] 	8833
scalar tree_4_3_u02_r1_network.node[33].content_store 	decision_yes[33] 	130
scalar tree_4_3_u02_r1_network.node[33].content_store 	decision_no[33] 	8703
scalar tree_4_3_u02_r1_network.node[33].content_store 	decision_ratio[33] 	0.014717536510812
scalar tree_4_3_u02_r1_network.node[34].core_layer 	interests[34] 	13292
scalar tree_4_3_u02_r1_network.node[34].core_layer 	data[34] 	9059
scalar tree_4_3_u02_r1_network.node[34].content_store 	p_hit[34] 	0.31838699969907
scalar tree_4_3_u02_r1_network.node[34].content_store 	hits[34] 	4232
scalar tree_4_3_u02_r1_network.node[34].content_store 	misses[34] 	9060
scalar tree_4_3_u02_r1_network.node[34].content_store 	decision_yes[34] 	123
scalar tree_4_3_u02_r1_network.node[34].content_store 	decision_no[34] 	8936
scalar tree_4_3_u02_r1_network.node[34].content_store 	decision_ratio[34] 	0.013577657578099
scalar tree_4_3_u02_r1_network.node[35].core_layer 	interests[35] 	12412
scalar tree_4_3_u02_r1_network.node[35].core_layer 	data[35] 	8788
scalar tree_4_3_u02_r1_network.node[35].content_store 	p_hit[35] 	0.29197550757332
scalar tree_4_3_u02_r1_network.node[35].content_store 	hits[35] 	3624
scalar tree_4_3_u02_r1_network.node[35].content_store 	misses[35] 	8788
scalar tree_4_3_u02_r1_network.node[35].content_store 	decision_yes[35] 	110
scalar tree_4_3_u02_r1_network.node[35].content_store 	decision_no[35] 	8678
scalar tree_4_3_u02_r1_network.node[35].content_store 	decision_ratio[35] 	0.012517068730086
scalar tree_4_3_u02_r1_network.node[36].core_layer 	interests[36] 	12479
scalar tree_4_3_u02_r1_network.node[36].core_layer 	data[36] 	8889
scalar tree_4_3_u02_r1_network.node[36].content_store 	p_hit[36] 	0.28768330795737
scalar tree_4_3_u02_r1_network.node[36].content_store 	hits[36] 	3590
scalar tree_4_3_u02_r1_network.node[36].content_store 	misses[36] 	8889
scalar tree_4_3_u02_r1_network.node[36].content_store 	decision_yes[36] 	97
scalar tree_4_3_u02_r1_network.node[36].content_store 	decision_no[36] 	8792
scalar tree_4_3_u02_r1_network.node[36].content_store 	decision_ratio[36] 	0.010912363595455
scalar tree_4_3_u02_r1_network.node[37].core_layer 	interests[37] 	12530
scalar tree_4_3_u02_r1_network.node[37].core_layer 	data[37] 	8826
scalar tree_4_3_u02_r1_network.node[37].content_store 	p_hit[37] 	0.29561053471668
scalar tree_4_3_u02_r1_network.node[37].content_store 	hits[37] 	3704
scalar tree_4_3_u02_r1_network.node[37].content_store 	misses[37] 	8826
scalar tree_4_3_u02_r1_network.node[37].content_store 	decision_yes[37] 	118
scalar tree_4_3_u02_r1_network.node[37].content_store 	decision_no[37] 	8708
scalar tree_4_3_u02_r1_network.node[37].content_store 	decision_ratio[37] 	0.013369589848176
scalar tree_4_3_u02_r1_network.node[38].core_layer 	interests[38] 	12319
scalar tree_4_3_u02_r1_network.node[38].core_layer 	data[38] 	8862
scalar tree_4_3_u02_r1_network.node[38].content_store 	p_hit[38] 	0.28062342722624
scalar tree_4_3_u02_r1_network.node[38].content_store 	hits[38] 	3457
scalar tree_4_3_u02_r1_network.node[38].content_store 	misses[38] 	8862
scalar tree_4_3_u02_r1_network.node[38].content_store 	decision_yes[38] 	138
scalar tree_4_3_u02_r1_network.node[38].content_store 	decision_no[38] 	8724
scalar tree_4_3_u02_r1_network.node[38].content_store 	decision_ratio[38] 	0.015572105619499
scalar tree_4_3_u02_r1_network.node[39].core_layer 	interests[39] 	12514
scalar tree_4_3_u02_r1_network.node[39].core_layer 	data[39] 	8928
scalar tree_4_3_u02_r1_network.node[39].content_store 	p_hit[39] 	0.28655905385968
scalar tree_4_3_u02_r1_network.node[39].content_store 	hits[39] 	3586
scalar tree_4_3_u02_r1_network.node[39].content_store 	misses[39] 	8928
scalar tree_4_3_u02_r1_network.node[39].content_store 	decision_yes[39] 	112
scalar tree_4_3_u02_r1_network.node[39].content_store 	decision_no[39] 	8816
scalar tree_4_3_u02_r1_network.node[39].content_store 	decision_ratio[39] 	0.012544802867384
scalar tree_4_3_u02_r1_network.client[13] 	hdistance[13] 	2.7307885065152
scalar tree_4_3_u02_r1_network.client[13] 	downloads[13] 	11972
scalar tree_4_3_u02_r1_network.client[13] 	avg_time[13] 	0.004266742633
scalar tree_4_3_u02_r1_network.client[14] 	hdistance[14] 	2.7277042218336
scalar tree_4_3_u02_r1_network.client[14] 	downloads[14] 	12009
scalar tree_4_3_u02_r1_network.client[14] 	avg_time[14] 	0.004267296534
scalar tree_4_3_u02_r1_network.client[15] 	hdistance[15] 	2.7255564715581
scalar tree_4_3_u02_r1_network.client[15] 	downloads[15] 	12130
scalar tree_4_3_u02_r1_network.client[15] 	avg_time[15] 	0.004260837863
scalar tree_4_3_u02_r1_network.client[16] 	hdistance[16] 	2.7509452987144
scalar tree_4_3_u02_r1_network.client[16] 	downloads[16] 	11901
scalar tree_4_3_u02_r1_network.client[16] 	avg_time[16] 	0.004294930209
scalar tree_4_3_u02_r1_network.client[17] 	hdistance[17] 	2.7197939172345
scalar tree_4_3_u02_r1_network.client[17] 	downloads[17] 	12034
scalar tree_4_3_u02_r1_network.client[17] 	avg_time[17] 	0.004250952606
scalar tree_4_3_u02_r1_network.client[18] 	hdistance[18] 	2.7184345523746
scalar tree_4_3_u02_r1_network.client[18] 	downloads[18] 	12086
scalar tree_4_3_u02_r1_network.client[18] 	avg_time[18] 	0.004244246505
scalar tree_4_3_u02_r1_network.client[19] 	hdistance[19] 	2.7510242403551
scalar tree_4_3_u02_r1_network.client[19] 	downloads[19] 	11716
scalar tree_4_3_u02_r1_network.client[19] 	avg_time[19] 	0.004296856052
scalar tree_4_3_u02_r1_network.client[20] 	hdistance[20] 	2.6952860563032
scalar tree_4_3_u02_r1_network.client[20] 	downloads[20] 	12113
scalar tree_4_3_u02_r1_network.client[20] 	avg_time[20] 	0.004185301544
scalar tree_4_3_u02_r1_network.client[21] 	hdistance[21] 	2.7468910021946
scalar tree_4_3_u02_r1_network.client[21] 	downloads[21] 	12303
scalar tree_4_3_u02_r1_network.client[21] 	avg_time[21] 	0.004290982883
scalar tree_4_3_u02_r1_network.client[22] 	hdistance[22] 	2.726964433416
scalar tree_4_3_u02_r1_network.client[22] 	downloads[22] 	12090
scalar tree_4_3_u02_r1_network.client[22] 	avg_time[22] 	0.004261008891
scalar tree_4_3_u02_r1_network.client[23] 	hdistance[23] 	2.736107650137
scalar tree_4_3_u02_r1_network.client[23] 	downloads[23] 	12039
scalar tree_4_3_u02_r1_network.client[23] 	avg_time[23] 	0.004272688664
scalar tree_4_3_u02_r1_network.client[24] 	hdistance[24] 	2.7159129260884
scalar tree_4_3_u02_r1_network.client[24] 	downloads[24] 	11852
scalar tree_4_3_u02_r1_network.client[24] 	avg_time[24] 	0.004238437821
scalar tree_4_3_u02_r1_network.client[25] 	hdistance[25] 	2.741303982524
scalar tree_4_3_u02_r1_network.client[25] 	downloads[25] 	11902
scalar tree_4_3_u02_r1_network.client[25] 	avg_time[25] 	0.004280958212
scalar tree_4_3_u02_r1_network.client[26] 	hdistance[26] 	2.7341336467428
scalar tree_4_3_u02_r1_network.client[26] 	downloads[26] 	11912
scalar tree_4_3_u02_r1_network.client[26] 	avg_time[26] 	0.004270566147
scalar tree_4_3_u02_r1_network.client[27] 	hdistance[27] 	2.6617091000756
scalar tree_4_3_u02_r1_network.client[27] 	downloads[27] 	11901
scalar tree_4_3_u02_r1_network.client[27] 	avg_time[27] 	0.004130102742
scalar tree_4_3_u02_r1_network.client[28] 	hdistance[28] 	2.7306913996627
scalar tree_4_3_u02_r1_network.client[28] 	downloads[28] 	11860
scalar tree_4_3_u02_r1_network.client[28] 	avg_time[28] 	0.004253285362
scalar tree_4_3_u02_r1_network.client[29] 	hdistance[29] 	2.7319465584306
scalar tree_4_3_u02_r1_network.client[29] 	downloads[29] 	11826
scalar tree_4_3_u02_r1_network.client[29] 	avg_time[29] 	0.004248572492
scalar tree_4_3_u02_r1_network.client[30] 	hdistance[30] 	2.6930734482182
scalar tree_4_3_u02_r1_network.client[30] 	downloads[30] 	11954
scalar tree_4_3_u02_r1_network.client[30] 	avg_time[30] 	0.004189891626
scalar tree_4_3_u02_r1_network.client[31] 	hdistance[31] 	2.7059747128336
scalar tree_4_3_u02_r1_network.client[31] 	downloads[31] 	12101
scalar tree_4_3_u02_r1_network.client[31] 	avg_time[31] 	0.004240950883
scalar tree_4_3_u02_r1_network.client[32] 	hdistance[32] 	2.7292620018304
scalar tree_4_3_u02_r1_network.client[32] 	downloads[32] 	12019
scalar tree_4_3_u02_r1_network.client[32] 	avg_time[32] 	0.004292866621
scalar tree_4_3_u02_r1_network.client[33] 	hdistance[33] 	2.707122893199
scalar tree_4_3_u02_r1_network.client[33] 	downloads[33] 	11807
scalar tree_4_3_u02_r1_network.client[33] 	avg_time[33] 	0.004253914202
scalar tree_4_3_u02_r1_network.client[34] 	hdistance[34] 	2.6669436596311
scalar tree_4_3_u02_r1_network.client[34] 	downloads[34] 	12034
scalar tree_4_3_u02_r1_network.client[34] 	avg_time[34] 	0.004208240325
scalar tree_4_3_u02_r1_network.client[35] 	hdistance[35] 	2.6800838574424
scalar tree_4_3_u02_r1_network.client[35] 	downloads[35] 	11925
scalar tree_4_3_u02_r1_network.client[35] 	avg_time[35] 	0.004214672085
scalar tree_4_3_u02_r1_network.client[36] 	hdistance[36] 	2.7072987835361
scalar tree_4_3_u02_r1_network.client[36] 	downloads[36] 	12002
scalar tree_4_3_u02_r1_network.client[36] 	avg_time[36] 	0.004251954976
scalar tree_4_3_u02_r1_network.client[37] 	hdistance[37] 	2.7129929431299
scalar tree_4_3_u02_r1_network.client[37] 	downloads[37] 	12045
scalar tree_4_3_u02_r1_network.client[37] 	avg_time[37] 	0.004204397161
scalar tree_4_3_u02_r1_network.client[38] 	hdistance[38] 	2.7425219941349
scalar tree_4_3_u02_r1_network.client[38] 	downloads[38] 	11935
scalar tree_4_3_u02_r1_network.client[38] 	avg_time[38] 	0.004248844947
scalar tree_4_3_u02_r1_network.client[39] 	hdistance[39] 	2.7162195625258
scalar tree_4_3_u02_r1_network.client[39] 	downloads[39] 	12115
scalar tree_4_3_u02_r1_network.client[39] 	avg_time[39] 	0.004212870643
