version 2
run General-54-20160902-12:38:55-7280
attr a 0.9
attr cd wfc0.01
attr configname General
attr cr lru
attr datetime 20160902-12:38:55
attr experiment General
attr fsize 1
attr inifile hw5115/scenario_Y/omnetp.ini
attr iterationvars "$name=tree_4_3, $un=02, $rep=15, $cd=wfc0.01, $cr=lru, $fsize=1, $a=0.9, $sl=nrr, $ttl=1000, $variance=0.05"
attr iterationvars2 "$name=tree_4_3, $un=02, $rep=15, $cd=wfc0.01, $cr=lru, $fsize=1, $a=0.9, $sl=nrr, $ttl=1000, $variance=0.05, $repetition=0"
attr measurement "$name=tree_4_3, $un=02, $rep=15, $cd=wfc0.01, $cr=lru, $fsize=1, $a=0.9, $sl=nrr, $ttl=1000, $variance=0.05"
attr name tree_4_3
attr network networks.${name}_u${un}_r${rep}_network
attr processid 7280
attr rep 15
attr repetition 0
attr replication #0
attr resultdir results
attr runnumber 54
attr seedset 15
attr sl nrr
attr ttl 1000
attr un 02
attr variance 0.05

scalar . 	a 	0.9
scalar . 	fsize 	1
scalar . 	rep 	15
scalar . 	ttl 	1000
scalar . 	un 	02
scalar . 	variance 	0.05
scalar tree_4_3_u02_r15_network.content_distribution 	repo-0 	0
scalar tree_4_3_u02_r15_network.content_distribution 	client-0 	13
scalar tree_4_3_u02_r15_network.content_distribution 	client-1 	14
scalar tree_4_3_u02_r15_network.content_distribution 	client-2 	15
scalar tree_4_3_u02_r15_network.content_distribution 	client-3 	16
scalar tree_4_3_u02_r15_network.content_distribution 	client-4 	17
scalar tree_4_3_u02_r15_network.content_distribution 	client-5 	18
scalar tree_4_3_u02_r15_network.content_distribution 	client-6 	19
scalar tree_4_3_u02_r15_network.content_distribution 	client-7 	20
scalar tree_4_3_u02_r15_network.content_distribution 	client-8 	21
scalar tree_4_3_u02_r15_network.content_distribution 	client-9 	22
scalar tree_4_3_u02_r15_network.content_distribution 	client-10 	23
scalar tree_4_3_u02_r15_network.content_distribution 	client-11 	24
scalar tree_4_3_u02_r15_network.content_distribution 	client-12 	25
scalar tree_4_3_u02_r15_network.content_distribution 	client-13 	26
scalar tree_4_3_u02_r15_network.content_distribution 	client-14 	27
scalar tree_4_3_u02_r15_network.content_distribution 	client-15 	28
scalar tree_4_3_u02_r15_network.content_distribution 	client-16 	29
scalar tree_4_3_u02_r15_network.content_distribution 	client-17 	30
scalar tree_4_3_u02_r15_network.content_distribution 	client-18 	31
scalar tree_4_3_u02_r15_network.content_distribution 	client-19 	32
scalar tree_4_3_u02_r15_network.content_distribution 	client-20 	33
scalar tree_4_3_u02_r15_network.content_distribution 	client-21 	34
scalar tree_4_3_u02_r15_network.content_distribution 	client-22 	35
scalar tree_4_3_u02_r15_network.content_distribution 	client-23 	36
scalar tree_4_3_u02_r15_network.content_distribution 	client-24 	37
scalar tree_4_3_u02_r15_network.content_distribution 	client-25 	38
scalar tree_4_3_u02_r15_network.content_distribution 	client-26 	39
scalar tree_4_3_u02_r15_network.content_distribution 	repo-0_card 	100000
scalar tree_4_3_u02_r15_network.content_distribution 	repo-0_price 	0
scalar tree_4_3_u02_r15_network.statistics 	stabilization_time 	1166
scalar tree_4_3_u02_r15_network.statistics 	p_hit 	0.21776437399077
scalar tree_4_3_u02_r15_network.statistics 	interests 	25265.15
scalar tree_4_3_u02_r15_network.statistics 	data 	17162.775
scalar tree_4_3_u02_r15_network.statistics 	hdistance 	2.723434162941
scalar tree_4_3_u02_r15_network.statistics 	avg_time 	0.004236486869
scalar tree_4_3_u02_r15_network.statistics 	downloads 	324097
scalar tree_4_3_u02_r15_network.statistics 	total_cost 	0
scalar tree_4_3_u02_r15_network.statistics 	total_replicas 	100000
scalar tree_4_3_u02_r15_network.statistics 	inner_hit 	0.39487869372441
scalar tree_4_3_u02_r15_network.node[0].core_layer 	interests[0] 	198827
scalar tree_4_3_u02_r15_network.node[0].core_layer 	repo_load[0] 	196118
scalar tree_4_3_u02_r15_network.node[0].core_layer 	data[0] 	0
scalar tree_4_3_u02_r15_network.node[0].core_layer 	repo_int[0] 	196118
scalar tree_4_3_u02_r15_network.node[0].content_store 	p_hit[0] 	0.013624910097723
scalar tree_4_3_u02_r15_network.node[0].content_store 	hits[0] 	2709
scalar tree_4_3_u02_r15_network.node[0].content_store 	misses[0] 	196118
scalar tree_4_3_u02_r15_network.node[0].content_store 	decision_yes[0] 	2988
scalar tree_4_3_u02_r15_network.node[0].content_store 	decision_no[0] 	193130
scalar tree_4_3_u02_r15_network.node[0].content_store 	decision_ratio[0] 	0.015235725430608
scalar tree_4_3_u02_r15_network.node[1].core_layer 	interests[1] 	96120
scalar tree_4_3_u02_r15_network.node[1].core_layer 	data[1] 	94053
scalar tree_4_3_u02_r15_network.node[1].content_store 	p_hit[1] 	0.021504369538077
scalar tree_4_3_u02_r15_network.node[1].content_store 	hits[1] 	2067
scalar tree_4_3_u02_r15_network.node[1].content_store 	misses[1] 	94053
scalar tree_4_3_u02_r15_network.node[1].content_store 	decision_yes[1] 	1145
scalar tree_4_3_u02_r15_network.node[1].content_store 	decision_no[1] 	92908
scalar tree_4_3_u02_r15_network.node[1].content_store 	decision_ratio[1] 	0.012173987007326
scalar tree_4_3_u02_r15_network.node[2].core_layer 	interests[2] 	49247
scalar tree_4_3_u02_r15_network.node[2].core_layer 	data[2] 	47574
scalar tree_4_3_u02_r15_network.node[2].content_store 	p_hit[2] 	0.033971612484009
scalar tree_4_3_u02_r15_network.node[2].content_store 	hits[2] 	1673
scalar tree_4_3_u02_r15_network.node[2].content_store 	misses[2] 	47574
scalar tree_4_3_u02_r15_network.node[2].content_store 	decision_yes[2] 	605
scalar tree_4_3_u02_r15_network.node[2].content_store 	decision_no[2] 	46969
scalar tree_4_3_u02_r15_network.node[2].content_store 	decision_ratio[2] 	0.012717030310674
scalar tree_4_3_u02_r15_network.node[3].core_layer 	interests[3] 	72730
scalar tree_4_3_u02_r15_network.node[3].core_layer 	data[3] 	71022
scalar tree_4_3_u02_r15_network.node[3].content_store 	p_hit[3] 	0.023484119345525
scalar tree_4_3_u02_r15_network.node[3].content_store 	hits[3] 	1708
scalar tree_4_3_u02_r15_network.node[3].content_store 	misses[3] 	71022
scalar tree_4_3_u02_r15_network.node[3].content_store 	decision_yes[3] 	836
scalar tree_4_3_u02_r15_network.node[3].content_store 	decision_no[3] 	70186
scalar tree_4_3_u02_r15_network.node[3].content_store 	decision_ratio[3] 	0.011771000535045
scalar tree_4_3_u02_r15_network.node[4].core_layer 	interests[4] 	28235
scalar tree_4_3_u02_r15_network.node[4].core_layer 	data[4] 	26106
scalar tree_4_3_u02_r15_network.node[4].content_store 	p_hit[4] 	0.075402868779883
scalar tree_4_3_u02_r15_network.node[4].content_store 	hits[4] 	2129
scalar tree_4_3_u02_r15_network.node[4].content_store 	misses[4] 	26106
scalar tree_4_3_u02_r15_network.node[4].content_store 	decision_yes[4] 	389
scalar tree_4_3_u02_r15_network.node[4].content_store 	decision_no[4] 	25717
scalar tree_4_3_u02_r15_network.node[4].content_store 	decision_ratio[4] 	0.014900789090631
scalar tree_4_3_u02_r15_network.node[5].core_layer 	interests[5] 	27728
scalar tree_4_3_u02_r15_network.node[5].core_layer 	data[5] 	25679
scalar tree_4_3_u02_r15_network.node[5].content_store 	p_hit[5] 	0.073896422388921
scalar tree_4_3_u02_r15_network.node[5].content_store 	hits[5] 	2049
scalar tree_4_3_u02_r15_network.node[5].content_store 	misses[5] 	25679
scalar tree_4_3_u02_r15_network.node[5].content_store 	decision_yes[5] 	381
scalar tree_4_3_u02_r15_network.node[5].content_store 	decision_no[5] 	25298
scalar tree_4_3_u02_r15_network.node[5].content_store 	decision_ratio[5] 	0.014837026363955
scalar tree_4_3_u02_r15_network.node[6].core_layer 	interests[6] 	29391
scalar tree_4_3_u02_r15_network.node[6].core_layer 	data[6] 	26479
scalar tree_4_3_u02_r15_network.node[6].content_store 	p_hit[6] 	0.099043925011058
scalar tree_4_3_u02_r15_network.node[6].content_store 	hits[6] 	2911
scalar tree_4_3_u02_r15_network.node[6].content_store 	misses[6] 	26480
scalar tree_4_3_u02_r15_network.node[6].content_store 	decision_yes[6] 	417
scalar tree_4_3_u02_r15_network.node[6].content_store 	decision_no[6] 	26062
scalar tree_4_3_u02_r15_network.node[6].content_store 	decision_ratio[6] 	0.015748328864383
scalar tree_4_3_u02_r15_network.node[7].core_layer 	interests[7] 	29620
scalar tree_4_3_u02_r15_network.node[7].core_layer 	data[7] 	26207
scalar tree_4_3_u02_r15_network.node[7].content_store 	p_hit[7] 	0.11522619851452
scalar tree_4_3_u02_r15_network.node[7].content_store 	hits[7] 	3413
scalar tree_4_3_u02_r15_network.node[7].content_store 	misses[7] 	26207
scalar tree_4_3_u02_r15_network.node[7].content_store 	decision_yes[7] 	444
scalar tree_4_3_u02_r15_network.node[7].content_store 	decision_no[7] 	25763
scalar tree_4_3_u02_r15_network.node[7].content_store 	decision_ratio[7] 	0.016942038386691
scalar tree_4_3_u02_r15_network.node[8].core_layer 	interests[8] 	27730
scalar tree_4_3_u02_r15_network.node[8].core_layer 	data[8] 	25666
scalar tree_4_3_u02_r15_network.node[8].content_store 	p_hit[8] 	0.074359899026325
scalar tree_4_3_u02_r15_network.node[8].content_store 	hits[8] 	2062
scalar tree_4_3_u02_r15_network.node[8].content_store 	misses[8] 	25668
scalar tree_4_3_u02_r15_network.node[8].content_store 	decision_yes[8] 	408
scalar tree_4_3_u02_r15_network.node[8].content_store 	decision_no[8] 	25258
scalar tree_4_3_u02_r15_network.node[8].content_store 	decision_ratio[8] 	0.015896516792644
scalar tree_4_3_u02_r15_network.node[9].core_layer 	interests[9] 	27861
scalar tree_4_3_u02_r15_network.node[9].core_layer 	data[9] 	25876
scalar tree_4_3_u02_r15_network.node[9].content_store 	p_hit[9] 	0.071246545350131
scalar tree_4_3_u02_r15_network.node[9].content_store 	hits[9] 	1985
scalar tree_4_3_u02_r15_network.node[9].content_store 	misses[9] 	25876
scalar tree_4_3_u02_r15_network.node[9].content_store 	decision_yes[9] 	406
scalar tree_4_3_u02_r15_network.node[9].content_store 	decision_no[9] 	25470
scalar tree_4_3_u02_r15_network.node[9].content_store 	decision_ratio[9] 	0.015690214870923
scalar tree_4_3_u02_r15_network.node[10].core_layer 	interests[10] 	36499
scalar tree_4_3_u02_r15_network.node[10].core_layer 	data[10] 	34316
scalar tree_4_3_u02_r15_network.node[10].content_store 	p_hit[10] 	0.059837255815228
scalar tree_4_3_u02_r15_network.node[10].content_store 	hits[10] 	2184
scalar tree_4_3_u02_r15_network.node[10].content_store 	misses[10] 	34315
scalar tree_4_3_u02_r15_network.node[10].content_store 	decision_yes[10] 	507
scalar tree_4_3_u02_r15_network.node[10].content_store 	decision_no[10] 	33809
scalar tree_4_3_u02_r15_network.node[10].content_store 	decision_ratio[10] 	0.014774449236508
scalar tree_4_3_u02_r15_network.node[11].core_layer 	interests[11] 	27649
scalar tree_4_3_u02_r15_network.node[11].core_layer 	data[11] 	25661
scalar tree_4_3_u02_r15_network.node[11].content_store 	p_hit[11] 	0.071865166913812
scalar tree_4_3_u02_r15_network.node[11].content_store 	hits[11] 	1987
scalar tree_4_3_u02_r15_network.node[11].content_store 	misses[11] 	25662
scalar tree_4_3_u02_r15_network.node[11].content_store 	decision_yes[11] 	381
scalar tree_4_3_u02_r15_network.node[11].content_store 	decision_no[11] 	25280
scalar tree_4_3_u02_r15_network.node[11].content_store 	decision_ratio[11] 	0.014847433849032
scalar tree_4_3_u02_r15_network.node[12].core_layer 	interests[12] 	19552
scalar tree_4_3_u02_r15_network.node[12].core_layer 	data[12] 	17427
scalar tree_4_3_u02_r15_network.node[12].content_store 	p_hit[12] 	0.1087356792144
scalar tree_4_3_u02_r15_network.node[12].content_store 	hits[12] 	2126
scalar tree_4_3_u02_r15_network.node[12].content_store 	misses[12] 	17426
scalar tree_4_3_u02_r15_network.node[12].content_store 	decision_yes[12] 	259
scalar tree_4_3_u02_r15_network.node[12].content_store 	decision_no[12] 	17168
scalar tree_4_3_u02_r15_network.node[12].content_store 	decision_ratio[12] 	0.014861995753715
scalar tree_4_3_u02_r15_network.node[13].core_layer 	interests[13] 	12679
scalar tree_4_3_u02_r15_network.node[13].core_layer 	data[13] 	9026
scalar tree_4_3_u02_r15_network.node[13].content_store 	p_hit[13] 	0.28803533401688
scalar tree_4_3_u02_r15_network.node[13].content_store 	hits[13] 	3652
scalar tree_4_3_u02_r15_network.node[13].content_store 	misses[13] 	9027
scalar tree_4_3_u02_r15_network.node[13].content_store 	decision_yes[13] 	108
scalar tree_4_3_u02_r15_network.node[13].content_store 	decision_no[13] 	8918
scalar tree_4_3_u02_r15_network.node[13].content_store 	decision_ratio[13] 	0.011965433192998
scalar tree_4_3_u02_r15_network.node[14].core_layer 	interests[14] 	12459
scalar tree_4_3_u02_r15_network.node[14].core_layer 	data[14] 	8843
scalar tree_4_3_u02_r15_network.node[14].content_store 	p_hit[14] 	0.29023196083153
scalar tree_4_3_u02_r15_network.node[14].content_store 	hits[14] 	3616
scalar tree_4_3_u02_r15_network.node[14].content_store 	misses[14] 	8843
scalar tree_4_3_u02_r15_network.node[14].content_store 	decision_yes[14] 	100
scalar tree_4_3_u02_r15_network.node[14].content_store 	decision_no[14] 	8743
scalar tree_4_3_u02_r15_network.node[14].content_store 	decision_ratio[14] 	0.011308379509216
scalar tree_4_3_u02_r15_network.node[15].core_layer 	interests[15] 	12327
scalar tree_4_3_u02_r15_network.node[15].core_layer 	data[15] 	8684
scalar tree_4_3_u02_r15_network.node[15].content_store 	p_hit[15] 	0.29553013709743
scalar tree_4_3_u02_r15_network.node[15].content_store 	hits[15] 	3643
scalar tree_4_3_u02_r15_network.node[15].content_store 	misses[15] 	8684
scalar tree_4_3_u02_r15_network.node[15].content_store 	decision_yes[15] 	107
scalar tree_4_3_u02_r15_network.node[15].content_store 	decision_no[15] 	8577
scalar tree_4_3_u02_r15_network.node[15].content_store 	decision_ratio[15] 	0.012321510824505
scalar tree_4_3_u02_r15_network.node[16].core_layer 	interests[16] 	12707
scalar tree_4_3_u02_r15_network.node[16].core_layer 	data[16] 	9101
scalar tree_4_3_u02_r15_network.node[16].content_store 	p_hit[16] 	0.28385929015503
scalar tree_4_3_u02_r15_network.node[16].content_store 	hits[16] 	3607
scalar tree_4_3_u02_r15_network.node[16].content_store 	misses[16] 	9100
scalar tree_4_3_u02_r15_network.node[16].content_store 	decision_yes[16] 	114
scalar tree_4_3_u02_r15_network.node[16].content_store 	decision_no[16] 	8987
scalar tree_4_3_u02_r15_network.node[16].content_store 	decision_ratio[16] 	0.012526096033403
scalar tree_4_3_u02_r15_network.node[17].core_layer 	interests[17] 	12445
scalar tree_4_3_u02_r15_network.node[17].core_layer 	data[17] 	8829
scalar tree_4_3_u02_r15_network.node[17].content_store 	p_hit[17] 	0.29055845721173
scalar tree_4_3_u02_r15_network.node[17].content_store 	hits[17] 	3616
scalar tree_4_3_u02_r15_network.node[17].content_store 	misses[17] 	8829
scalar tree_4_3_u02_r15_network.node[17].content_store 	decision_yes[17] 	118
scalar tree_4_3_u02_r15_network.node[17].content_store 	decision_no[17] 	8711
scalar tree_4_3_u02_r15_network.node[17].content_store 	decision_ratio[17] 	0.013365047004191
scalar tree_4_3_u02_r15_network.node[18].core_layer 	interests[18] 	12957
scalar tree_4_3_u02_r15_network.node[18].core_layer 	data[18] 	8891
scalar tree_4_3_u02_r15_network.node[18].content_store 	p_hit[18] 	0.31380720845875
scalar tree_4_3_u02_r15_network.node[18].content_store 	hits[18] 	4066
scalar tree_4_3_u02_r15_network.node[18].content_store 	misses[18] 	8891
scalar tree_4_3_u02_r15_network.node[18].content_store 	decision_yes[18] 	109
scalar tree_4_3_u02_r15_network.node[18].content_store 	decision_no[18] 	8782
scalar tree_4_3_u02_r15_network.node[18].content_store 	decision_ratio[18] 	0.012259588347767
scalar tree_4_3_u02_r15_network.node[19].core_layer 	interests[19] 	12691
scalar tree_4_3_u02_r15_network.node[19].core_layer 	data[19] 	9043
scalar tree_4_3_u02_r15_network.node[19].content_store 	p_hit[19] 	0.28744779765188
scalar tree_4_3_u02_r15_network.node[19].content_store 	hits[19] 	3648
scalar tree_4_3_u02_r15_network.node[19].content_store 	misses[19] 	9043
scalar tree_4_3_u02_r15_network.node[19].content_store 	decision_yes[19] 	135
scalar tree_4_3_u02_r15_network.node[19].content_store 	decision_no[19] 	8908
scalar tree_4_3_u02_r15_network.node[19].content_store 	decision_ratio[19] 	0.014928674112573
scalar tree_4_3_u02_r15_network.node[20].core_layer 	interests[20] 	12562
scalar tree_4_3_u02_r15_network.node[20].core_layer 	data[20] 	8960
scalar tree_4_3_u02_r15_network.node[20].content_store 	p_hit[20] 	0.28665817544977
scalar tree_4_3_u02_r15_network.node[20].content_store 	hits[20] 	3601
scalar tree_4_3_u02_r15_network.node[20].content_store 	misses[20] 	8961
scalar tree_4_3_u02_r15_network.node[20].content_store 	decision_yes[20] 	122
scalar tree_4_3_u02_r15_network.node[20].content_store 	decision_no[20] 	8838
scalar tree_4_3_u02_r15_network.node[20].content_store 	decision_ratio[20] 	0.013616071428571
scalar tree_4_3_u02_r15_network.node[21].core_layer 	interests[21] 	12535
scalar tree_4_3_u02_r15_network.node[21].core_layer 	data[21] 	8966
scalar tree_4_3_u02_r15_network.node[21].content_store 	p_hit[21] 	0.28464299960112
scalar tree_4_3_u02_r15_network.node[21].content_store 	hits[21] 	3568
scalar tree_4_3_u02_r15_network.node[21].content_store 	misses[21] 	8967
scalar tree_4_3_u02_r15_network.node[21].content_store 	decision_yes[21] 	131
scalar tree_4_3_u02_r15_network.node[21].content_store 	decision_no[21] 	8835
scalar tree_4_3_u02_r15_network.node[21].content_store 	decision_ratio[21] 	0.014610751728753
scalar tree_4_3_u02_r15_network.node[22].core_layer 	interests[22] 	12611
scalar tree_4_3_u02_r15_network.node[22].core_layer 	data[22] 	9046
scalar tree_4_3_u02_r15_network.node[22].content_store 	p_hit[22] 	0.28268971532789
scalar tree_4_3_u02_r15_network.node[22].content_store 	hits[22] 	3565
scalar tree_4_3_u02_r15_network.node[22].content_store 	misses[22] 	9046
scalar tree_4_3_u02_r15_network.node[22].content_store 	decision_yes[22] 	117
scalar tree_4_3_u02_r15_network.node[22].content_store 	decision_no[22] 	8929
scalar tree_4_3_u02_r15_network.node[22].content_store 	decision_ratio[22] 	0.012933893433562
scalar tree_4_3_u02_r15_network.node[23].core_layer 	interests[23] 	13254
scalar tree_4_3_u02_r15_network.node[23].core_layer 	data[23] 	8962
scalar tree_4_3_u02_r15_network.node[23].content_store 	p_hit[23] 	0.3238267692772
scalar tree_4_3_u02_r15_network.node[23].content_store 	hits[23] 	4292
scalar tree_4_3_u02_r15_network.node[23].content_store 	misses[23] 	8962
scalar tree_4_3_u02_r15_network.node[23].content_store 	decision_yes[23] 	139
scalar tree_4_3_u02_r15_network.node[23].content_store 	decision_no[23] 	8823
scalar tree_4_3_u02_r15_network.node[23].content_store 	decision_ratio[23] 	0.015509930819014
scalar tree_4_3_u02_r15_network.node[24].core_layer 	interests[24] 	12643
scalar tree_4_3_u02_r15_network.node[24].core_layer 	data[24] 	8986
scalar tree_4_3_u02_r15_network.node[24].content_store 	p_hit[24] 	0.28925096891561
scalar tree_4_3_u02_r15_network.node[24].content_store 	hits[24] 	3657
scalar tree_4_3_u02_r15_network.node[24].content_store 	misses[24] 	8986
scalar tree_4_3_u02_r15_network.node[24].content_store 	decision_yes[24] 	126
scalar tree_4_3_u02_r15_network.node[24].content_store 	decision_no[24] 	8860
scalar tree_4_3_u02_r15_network.node[24].content_store 	decision_ratio[24] 	0.0140218117071
scalar tree_4_3_u02_r15_network.node[25].core_layer 	interests[25] 	12495
scalar tree_4_3_u02_r15_network.node[25].core_layer 	data[25] 	8915
scalar tree_4_3_u02_r15_network.node[25].content_store 	p_hit[25] 	0.28651460584234
scalar tree_4_3_u02_r15_network.node[25].content_store 	hits[25] 	3580
scalar tree_4_3_u02_r15_network.node[25].content_store 	misses[25] 	8915
scalar tree_4_3_u02_r15_network.node[25].content_store 	decision_yes[25] 	126
scalar tree_4_3_u02_r15_network.node[25].content_store 	decision_no[25] 	8789
scalar tree_4_3_u02_r15_network.node[25].content_store 	decision_ratio[25] 	0.014133482893999
scalar tree_4_3_u02_r15_network.node[26].core_layer 	interests[26] 	12434
scalar tree_4_3_u02_r15_network.node[26].core_layer 	data[26] 	8845
scalar tree_4_3_u02_r15_network.node[26].content_store 	p_hit[26] 	0.28864404053402
scalar tree_4_3_u02_r15_network.node[26].content_store 	hits[26] 	3589
scalar tree_4_3_u02_r15_network.node[26].content_store 	misses[26] 	8845
scalar tree_4_3_u02_r15_network.node[26].content_store 	decision_yes[26] 	136
scalar tree_4_3_u02_r15_network.node[26].content_store 	decision_no[26] 	8709
scalar tree_4_3_u02_r15_network.node[26].content_store 	decision_ratio[26] 	0.015375918598078
scalar tree_4_3_u02_r15_network.node[27].core_layer 	interests[27] 	12995
scalar tree_4_3_u02_r15_network.node[27].core_layer 	data[27] 	8986
scalar tree_4_3_u02_r15_network.node[27].content_store 	p_hit[27] 	0.30850327048865
scalar tree_4_3_u02_r15_network.node[27].content_store 	hits[27] 	4009
scalar tree_4_3_u02_r15_network.node[27].content_store 	misses[27] 	8986
scalar tree_4_3_u02_r15_network.node[27].content_store 	decision_yes[27] 	142
scalar tree_4_3_u02_r15_network.node[27].content_store 	decision_no[27] 	8844
scalar tree_4_3_u02_r15_network.node[27].content_store 	decision_ratio[27] 	0.015802359225462
scalar tree_4_3_u02_r15_network.node[28].core_layer 	interests[28] 	12474
scalar tree_4_3_u02_r15_network.node[28].core_layer 	data[28] 	8869
scalar tree_4_3_u02_r15_network.node[28].content_store 	p_hit[28] 	0.28900112233446
scalar tree_4_3_u02_r15_network.node[28].content_store 	hits[28] 	3605
scalar tree_4_3_u02_r15_network.node[28].content_store 	misses[28] 	8869
scalar tree_4_3_u02_r15_network.node[28].content_store 	decision_yes[28] 	132
scalar tree_4_3_u02_r15_network.node[28].content_store 	decision_no[28] 	8737
scalar tree_4_3_u02_r15_network.node[28].content_store 	decision_ratio[28] 	0.014883301386853
scalar tree_4_3_u02_r15_network.node[29].core_layer 	interests[29] 	12300
scalar tree_4_3_u02_r15_network.node[29].core_layer 	data[29] 	8830
scalar tree_4_3_u02_r15_network.node[29].content_store 	p_hit[29] 	0.28211382113821
scalar tree_4_3_u02_r15_network.node[29].content_store 	hits[29] 	3470
scalar tree_4_3_u02_r15_network.node[29].content_store 	misses[29] 	8830
scalar tree_4_3_u02_r15_network.node[29].content_store 	decision_yes[29] 	124
scalar tree_4_3_u02_r15_network.node[29].content_store 	decision_no[29] 	8706
scalar tree_4_3_u02_r15_network.node[29].content_store 	decision_ratio[29] 	0.014043035107588
scalar tree_4_3_u02_r15_network.node[30].core_layer 	interests[30] 	12411
scalar tree_4_3_u02_r15_network.node[30].core_layer 	data[30] 	8854
scalar tree_4_3_u02_r15_network.node[30].content_store 	p_hit[30] 	0.28652002256063
scalar tree_4_3_u02_r15_network.node[30].content_store 	hits[30] 	3556
scalar tree_4_3_u02_r15_network.node[30].content_store 	misses[30] 	8855
scalar tree_4_3_u02_r15_network.node[30].content_store 	decision_yes[30] 	106
scalar tree_4_3_u02_r15_network.node[30].content_store 	decision_no[30] 	8748
scalar tree_4_3_u02_r15_network.node[30].content_store 	decision_ratio[30] 	0.011971990060989
scalar tree_4_3_u02_r15_network.node[31].core_layer 	interests[31] 	12654
scalar tree_4_3_u02_r15_network.node[31].core_layer 	data[31] 	8883
scalar tree_4_3_u02_r15_network.node[31].content_store 	p_hit[31] 	0.29800853485064
scalar tree_4_3_u02_r15_network.node[31].content_store 	hits[31] 	3771
scalar tree_4_3_u02_r15_network.node[31].content_store 	misses[31] 	8883
scalar tree_4_3_u02_r15_network.node[31].content_store 	decision_yes[31] 	97
scalar tree_4_3_u02_r15_network.node[31].content_store 	decision_no[31] 	8786
scalar tree_4_3_u02_r15_network.node[31].content_store 	decision_ratio[31] 	0.01091973432399
scalar tree_4_3_u02_r15_network.node[32].core_layer 	interests[32] 	12530
scalar tree_4_3_u02_r15_network.node[32].core_layer 	data[32] 	8901
scalar tree_4_3_u02_r15_network.node[32].content_store 	p_hit[32] 	0.28962490023943
scalar tree_4_3_u02_r15_network.node[32].content_store 	hits[32] 	3629
scalar tree_4_3_u02_r15_network.node[32].content_store 	misses[32] 	8901
scalar tree_4_3_u02_r15_network.node[32].content_store 	decision_yes[32] 	120
scalar tree_4_3_u02_r15_network.node[32].content_store 	decision_no[32] 	8781
scalar tree_4_3_u02_r15_network.node[32].content_store 	decision_ratio[32] 	0.013481631277385
scalar tree_4_3_u02_r15_network.node[33].core_layer 	interests[33] 	12769
scalar tree_4_3_u02_r15_network.node[33].core_layer 	data[33] 	9032
scalar tree_4_3_u02_r15_network.node[33].content_store 	p_hit[33] 	0.29266191557679
scalar tree_4_3_u02_r15_network.node[33].content_store 	hits[33] 	3737
scalar tree_4_3_u02_r15_network.node[33].content_store 	misses[33] 	9032
scalar tree_4_3_u02_r15_network.node[33].content_store 	decision_yes[33] 	102
scalar tree_4_3_u02_r15_network.node[33].content_store 	decision_no[33] 	8930
scalar tree_4_3_u02_r15_network.node[33].content_store 	decision_ratio[33] 	0.011293179805137
scalar tree_4_3_u02_r15_network.node[34].core_layer 	interests[34] 	12343
scalar tree_4_3_u02_r15_network.node[34].core_layer 	data[34] 	8823
scalar tree_4_3_u02_r15_network.node[34].content_store 	p_hit[34] 	0.28510086688811
scalar tree_4_3_u02_r15_network.node[34].content_store 	hits[34] 	3519
scalar tree_4_3_u02_r15_network.node[34].content_store 	misses[34] 	8824
scalar tree_4_3_u02_r15_network.node[34].content_store 	decision_yes[34] 	108
scalar tree_4_3_u02_r15_network.node[34].content_store 	decision_no[34] 	8715
scalar tree_4_3_u02_r15_network.node[34].content_store 	decision_ratio[34] 	0.012240734444067
scalar tree_4_3_u02_r15_network.node[35].core_layer 	interests[35] 	12235
scalar tree_4_3_u02_r15_network.node[35].core_layer 	data[35] 	8763
scalar tree_4_3_u02_r15_network.node[35].content_store 	p_hit[35] 	0.28377605230895
scalar tree_4_3_u02_r15_network.node[35].content_store 	hits[35] 	3472
scalar tree_4_3_u02_r15_network.node[35].content_store 	misses[35] 	8763
scalar tree_4_3_u02_r15_network.node[35].content_store 	decision_yes[35] 	111
scalar tree_4_3_u02_r15_network.node[35].content_store 	decision_no[35] 	8652
scalar tree_4_3_u02_r15_network.node[35].content_store 	decision_ratio[35] 	0.012666894899007
scalar tree_4_3_u02_r15_network.node[36].core_layer 	interests[36] 	12368
scalar tree_4_3_u02_r15_network.node[36].core_layer 	data[36] 	8763
scalar tree_4_3_u02_r15_network.node[36].content_store 	p_hit[36] 	0.29147800776197
scalar tree_4_3_u02_r15_network.node[36].content_store 	hits[36] 	3605
scalar tree_4_3_u02_r15_network.node[36].content_store 	misses[36] 	8763
scalar tree_4_3_u02_r15_network.node[36].content_store 	decision_yes[36] 	124
scalar tree_4_3_u02_r15_network.node[36].content_store 	decision_no[36] 	8639
scalar tree_4_3_u02_r15_network.node[36].content_store 	decision_ratio[36] 	0.014150405112404
scalar tree_4_3_u02_r15_network.node[37].core_layer 	interests[37] 	12917
scalar tree_4_3_u02_r15_network.node[37].core_layer 	data[37] 	8928
scalar tree_4_3_u02_r15_network.node[37].content_store 	p_hit[37] 	0.30889525431602
scalar tree_4_3_u02_r15_network.node[37].content_store 	hits[37] 	3990
scalar tree_4_3_u02_r15_network.node[37].content_store 	misses[37] 	8927
scalar tree_4_3_u02_r15_network.node[37].content_store 	decision_yes[37] 	147
scalar tree_4_3_u02_r15_network.node[37].content_store 	decision_no[37] 	8781
scalar tree_4_3_u02_r15_network.node[37].content_store 	decision_ratio[37] 	0.016465053763441
scalar tree_4_3_u02_r15_network.node[38].core_layer 	interests[38] 	12522
scalar tree_4_3_u02_r15_network.node[38].core_layer 	data[38] 	8992
scalar tree_4_3_u02_r15_network.node[38].content_store 	p_hit[38] 	0.28190384922536
scalar tree_4_3_u02_r15_network.node[38].content_store 	hits[38] 	3530
scalar tree_4_3_u02_r15_network.node[38].content_store 	misses[38] 	8992
scalar tree_4_3_u02_r15_network.node[38].content_store 	decision_yes[38] 	107
scalar tree_4_3_u02_r15_network.node[38].content_store 	decision_no[38] 	8885
scalar tree_4_3_u02_r15_network.node[38].content_store 	decision_ratio[38] 	0.011899466192171
scalar tree_4_3_u02_r15_network.node[39].core_layer 	interests[39] 	12100
scalar tree_4_3_u02_r15_network.node[39].core_layer 	data[39] 	8724
scalar tree_4_3_u02_r15_network.node[39].content_store 	p_hit[39] 	0.27909090909091
scalar tree_4_3_u02_r15_network.node[39].content_store 	hits[39] 	3377
scalar tree_4_3_u02_r15_network.node[39].content_store 	misses[39] 	8723
scalar tree_4_3_u02_r15_network.node[39].content_store 	decision_yes[39] 	133
scalar tree_4_3_u02_r15_network.node[39].content_store 	decision_no[39] 	8591
scalar tree_4_3_u02_r15_network.node[39].content_store 	decision_ratio[39] 	0.015245300320954
scalar tree_4_3_u02_r15_network.client[13] 	hdistance[13] 	2.7636997675191
scalar tree_4_3_u02_r15_network.client[13] 	downloads[13] 	12044
scalar tree_4_3_u02_r15_network.client[13] 	avg_time[13] 	0.004322804135
scalar tree_4_3_u02_r15_network.client[14] 	hdistance[14] 	2.7346683354193
scalar tree_4_3_u02_r15_network.client[14] 	downloads[14] 	11985
scalar tree_4_3_u02_r15_network.client[14] 	avg_time[14] 	0.004275007415
scalar tree_4_3_u02_r15_network.client[15] 	hdistance[15] 	2.7224151071217
scalar tree_4_3_u02_r15_network.client[15] 	downloads[15] 	11809
scalar tree_4_3_u02_r15_network.client[15] 	avg_time[15] 	0.004250992058
scalar tree_4_3_u02_r15_network.client[16] 	hdistance[16] 	2.740774003919
scalar tree_4_3_u02_r15_network.client[16] 	downloads[16] 	12248
scalar tree_4_3_u02_r15_network.client[16] 	avg_time[16] 	0.004281607033
scalar tree_4_3_u02_r15_network.client[17] 	hdistance[17] 	2.7198968128485
scalar tree_4_3_u02_r15_network.client[17] 	downloads[17] 	12017
scalar tree_4_3_u02_r15_network.client[17] 	avg_time[17] 	0.004247313303
scalar tree_4_3_u02_r15_network.client[18] 	hdistance[18] 	2.6895655091428
scalar tree_4_3_u02_r15_network.client[18] 	downloads[18] 	11922
scalar tree_4_3_u02_r15_network.client[18] 	avg_time[18] 	0.004176141978
scalar tree_4_3_u02_r15_network.client[19] 	hdistance[19] 	2.7180562407499
scalar tree_4_3_u02_r15_network.client[19] 	downloads[19] 	12162
scalar tree_4_3_u02_r15_network.client[19] 	avg_time[19] 	0.00423778683
scalar tree_4_3_u02_r15_network.client[20] 	hdistance[20] 	2.7268572378262
scalar tree_4_3_u02_r15_network.client[20] 	downloads[20] 	12034
scalar tree_4_3_u02_r15_network.client[20] 	avg_time[20] 	0.004252335922
scalar tree_4_3_u02_r15_network.client[21] 	hdistance[21] 	2.7337787056367
scalar tree_4_3_u02_r15_network.client[21] 	downloads[21] 	11975
scalar tree_4_3_u02_r15_network.client[21] 	avg_time[21] 	0.004267053384
scalar tree_4_3_u02_r15_network.client[22] 	hdistance[22] 	2.7465553235908
scalar tree_4_3_u02_r15_network.client[22] 	downloads[22] 	11975
scalar tree_4_3_u02_r15_network.client[22] 	avg_time[22] 	0.00431314939
scalar tree_4_3_u02_r15_network.client[23] 	hdistance[23] 	2.6404345302264
scalar tree_4_3_u02_r15_network.client[23] 	downloads[23] 	12059
scalar tree_4_3_u02_r15_network.client[23] 	avg_time[23] 	0.00413209924
scalar tree_4_3_u02_r15_network.client[24] 	hdistance[24] 	2.7088660136145
scalar tree_4_3_u02_r15_network.client[24] 	downloads[24] 	12046
scalar tree_4_3_u02_r15_network.client[24] 	avg_time[24] 	0.004258672048
scalar tree_4_3_u02_r15_network.client[25] 	hdistance[25] 	2.7085988578995
scalar tree_4_3_u02_r15_network.client[25] 	downloads[25] 	12083
scalar tree_4_3_u02_r15_network.client[25] 	avg_time[25] 	0.00420160255
scalar tree_4_3_u02_r15_network.client[26] 	hdistance[26] 	2.7216693150456
scalar tree_4_3_u02_r15_network.client[26] 	downloads[26] 	11957
scalar tree_4_3_u02_r15_network.client[26] 	avg_time[26] 	0.004218248275
scalar tree_4_3_u02_r15_network.client[27] 	hdistance[27] 	2.6988612750395
scalar tree_4_3_u02_r15_network.client[27] 	downloads[27] 	12031
scalar tree_4_3_u02_r15_network.client[27] 	avg_time[27] 	0.004163075663
scalar tree_4_3_u02_r15_network.client[28] 	hdistance[28] 	2.7176402256887
scalar tree_4_3_u02_r15_network.client[28] 	downloads[28] 	12052
scalar tree_4_3_u02_r15_network.client[28] 	avg_time[28] 	0.004211912014
scalar tree_4_3_u02_r15_network.client[29] 	hdistance[29] 	2.7288078635638
scalar tree_4_3_u02_r15_network.client[29] 	downloads[29] 	11903
scalar tree_4_3_u02_r15_network.client[29] 	avg_time[29] 	0.004236744054
scalar tree_4_3_u02_r15_network.client[30] 	hdistance[30] 	2.7205087704714
scalar tree_4_3_u02_r15_network.client[30] 	downloads[30] 	12029
scalar tree_4_3_u02_r15_network.client[30] 	avg_time[30] 	0.004215337237
scalar tree_4_3_u02_r15_network.client[31] 	hdistance[31] 	2.7055564742848
scalar tree_4_3_u02_r15_network.client[31] 	downloads[31] 	12094
scalar tree_4_3_u02_r15_network.client[31] 	avg_time[31] 	0.004199434709
scalar tree_4_3_u02_r15_network.client[32] 	hdistance[32] 	2.7274157489443
scalar tree_4_3_u02_r15_network.client[32] 	downloads[32] 	12077
scalar tree_4_3_u02_r15_network.client[32] 	avg_time[32] 	0.004223728045
scalar tree_4_3_u02_r15_network.client[33] 	hdistance[33] 	2.7277341191879
scalar tree_4_3_u02_r15_network.client[33] 	downloads[33] 	12216
scalar tree_4_3_u02_r15_network.client[33] 	avg_time[33] 	0.004230514316
scalar tree_4_3_u02_r15_network.client[34] 	hdistance[34] 	2.7504409911802
scalar tree_4_3_u02_r15_network.client[34] 	downloads[34] 	11905
scalar tree_4_3_u02_r15_network.client[34] 	avg_time[34] 	0.004267111693
scalar tree_4_3_u02_r15_network.client[35] 	hdistance[35] 	2.7536637018212
scalar tree_4_3_u02_r15_network.client[35] 	downloads[35] 	11805
scalar tree_4_3_u02_r15_network.client[35] 	avg_time[35] 	0.004271407482
scalar tree_4_3_u02_r15_network.client[36] 	hdistance[36] 	2.7284511784512
scalar tree_4_3_u02_r15_network.client[36] 	downloads[36] 	11880
scalar tree_4_3_u02_r15_network.client[36] 	avg_time[36] 	0.004239896043
scalar tree_4_3_u02_r15_network.client[37] 	hdistance[37] 	2.6892400300978
scalar tree_4_3_u02_r15_network.client[37] 	downloads[37] 	11961
scalar tree_4_3_u02_r15_network.client[37] 	avg_time[37] 	0.004155167978
scalar tree_4_3_u02_r15_network.client[38] 	hdistance[38] 	2.757119205298
scalar tree_4_3_u02_r15_network.client[38] 	downloads[38] 	12080
scalar tree_4_3_u02_r15_network.client[38] 	avg_time[38] 	0.004274003601
scalar tree_4_3_u02_r15_network.client[39] 	hdistance[39] 	2.7514470548178
scalar tree_4_3_u02_r15_network.client[39] 	downloads[39] 	11748
scalar tree_4_3_u02_r15_network.client[39] 	avg_time[39] 	0.004261999086
