version 2
run General-46-20160902-12:26:13-7280
attr a 0.9
attr cd wfc0.01
attr configname General
attr cr lru
attr datetime 20160902-12:26:13
attr experiment General
attr fsize 1
attr inifile hw5115/scenario_Y/omnetp.ini
attr iterationvars "$name=tree_4_3, $un=02, $rep=7, $cd=wfc0.01, $cr=lru, $fsize=1, $a=0.9, $sl=nrr, $ttl=1000, $variance=0.05"
attr iterationvars2 "$name=tree_4_3, $un=02, $rep=7, $cd=wfc0.01, $cr=lru, $fsize=1, $a=0.9, $sl=nrr, $ttl=1000, $variance=0.05, $repetition=0"
attr measurement "$name=tree_4_3, $un=02, $rep=7, $cd=wfc0.01, $cr=lru, $fsize=1, $a=0.9, $sl=nrr, $ttl=1000, $variance=0.05"
attr name tree_4_3
attr network networks.${name}_u${un}_r${rep}_network
attr processid 7280
attr rep 7
attr repetition 0
attr replication #0
attr resultdir results
attr runnumber 46
attr seedset 7
attr sl nrr
attr ttl 1000
attr un 02
attr variance 0.05

scalar . 	a 	0.9
scalar . 	fsize 	1
scalar . 	rep 	7
scalar . 	ttl 	1000
scalar . 	un 	02
scalar . 	variance 	0.05
scalar tree_4_3_u02_r7_network.content_distribution 	repo-0 	0
scalar tree_4_3_u02_r7_network.content_distribution 	client-0 	13
scalar tree_4_3_u02_r7_network.content_distribution 	client-1 	14
scalar tree_4_3_u02_r7_network.content_distribution 	client-2 	15
scalar tree_4_3_u02_r7_network.content_distribution 	client-3 	16
scalar tree_4_3_u02_r7_network.content_distribution 	client-4 	17
scalar tree_4_3_u02_r7_network.content_distribution 	client-5 	18
scalar tree_4_3_u02_r7_network.content_distribution 	client-6 	19
scalar tree_4_3_u02_r7_network.content_distribution 	client-7 	20
scalar tree_4_3_u02_r7_network.content_distribution 	client-8 	21
scalar tree_4_3_u02_r7_network.content_distribution 	client-9 	22
scalar tree_4_3_u02_r7_network.content_distribution 	client-10 	23
scalar tree_4_3_u02_r7_network.content_distribution 	client-11 	24
scalar tree_4_3_u02_r7_network.content_distribution 	client-12 	25
scalar tree_4_3_u02_r7_network.content_distribution 	client-13 	26
scalar tree_4_3_u02_r7_network.content_distribution 	client-14 	27
scalar tree_4_3_u02_r7_network.content_distribution 	client-15 	28
scalar tree_4_3_u02_r7_network.content_distribution 	client-16 	29
scalar tree_4_3_u02_r7_network.content_distribution 	client-17 	30
scalar tree_4_3_u02_r7_network.content_distribution 	client-18 	31
scalar tree_4_3_u02_r7_network.content_distribution 	client-19 	32
scalar tree_4_3_u02_r7_network.content_distribution 	client-20 	33
scalar tree_4_3_u02_r7_network.content_distribution 	client-21 	34
scalar tree_4_3_u02_r7_network.content_distribution 	client-22 	35
scalar tree_4_3_u02_r7_network.content_distribution 	client-23 	36
scalar tree_4_3_u02_r7_network.content_distribution 	client-24 	37
scalar tree_4_3_u02_r7_network.content_distribution 	client-25 	38
scalar tree_4_3_u02_r7_network.content_distribution 	client-26 	39
scalar tree_4_3_u02_r7_network.content_distribution 	repo-0_card 	100000
scalar tree_4_3_u02_r7_network.content_distribution 	repo-0_price 	0
scalar tree_4_3_u02_r7_network.statistics 	stabilization_time 	1045.5
scalar tree_4_3_u02_r7_network.statistics 	p_hit 	0.21625744143398
scalar tree_4_3_u02_r7_network.statistics 	interests 	25166.875
scalar tree_4_3_u02_r7_network.statistics 	data 	17074.825
scalar tree_4_3_u02_r7_network.statistics 	hdistance 	2.7239440208939
scalar tree_4_3_u02_r7_network.statistics 	avg_time 	0.004220019653
scalar tree_4_3_u02_r7_network.statistics 	downloads 	323683
scalar tree_4_3_u02_r7_network.statistics 	total_cost 	0
scalar tree_4_3_u02_r7_network.statistics 	total_replicas 	100000
scalar tree_4_3_u02_r7_network.statistics 	inner_hit 	0.38609380165162
scalar tree_4_3_u02_r7_network.node[0].core_layer 	interests[0] 	201526
scalar tree_4_3_u02_r7_network.node[0].core_layer 	repo_load[0] 	198711
scalar tree_4_3_u02_r7_network.node[0].core_layer 	data[0] 	0
scalar tree_4_3_u02_r7_network.node[0].core_layer 	repo_int[0] 	198711
scalar tree_4_3_u02_r7_network.node[0].content_store 	p_hit[0] 	0.013968420948165
scalar tree_4_3_u02_r7_network.node[0].content_store 	hits[0] 	2815
scalar tree_4_3_u02_r7_network.node[0].content_store 	misses[0] 	198711
scalar tree_4_3_u02_r7_network.node[0].content_store 	decision_yes[0] 	3082
scalar tree_4_3_u02_r7_network.node[0].content_store 	decision_no[0] 	195629
scalar tree_4_3_u02_r7_network.node[0].content_store 	decision_ratio[0] 	0.015509961703177
scalar tree_4_3_u02_r7_network.node[1].core_layer 	interests[1] 	72484
scalar tree_4_3_u02_r7_network.node[1].core_layer 	data[1] 	70911
scalar tree_4_3_u02_r7_network.node[1].content_store 	p_hit[1] 	0.021701340985597
scalar tree_4_3_u02_r7_network.node[1].content_store 	hits[1] 	1573
scalar tree_4_3_u02_r7_network.node[1].content_store 	misses[1] 	70911
scalar tree_4_3_u02_r7_network.node[1].content_store 	decision_yes[1] 	774
scalar tree_4_3_u02_r7_network.node[1].content_store 	decision_no[1] 	70136
scalar tree_4_3_u02_r7_network.node[1].content_store 	decision_ratio[1] 	0.01091524467635
scalar tree_4_3_u02_r7_network.node[2].core_layer 	interests[2] 	72103
scalar tree_4_3_u02_r7_network.node[2].core_layer 	data[2] 	70589
scalar tree_4_3_u02_r7_network.node[2].content_store 	p_hit[2] 	0.021011608393548
scalar tree_4_3_u02_r7_network.node[2].content_store 	hits[2] 	1515
scalar tree_4_3_u02_r7_network.node[2].content_store 	misses[2] 	70588
scalar tree_4_3_u02_r7_network.node[2].content_store 	decision_yes[2] 	761
scalar tree_4_3_u02_r7_network.node[2].content_store 	decision_no[2] 	69828
scalar tree_4_3_u02_r7_network.node[2].content_store 	decision_ratio[2] 	0.010780716542237
scalar tree_4_3_u02_r7_network.node[3].core_layer 	interests[3] 	72082
scalar tree_4_3_u02_r7_network.node[3].core_layer 	data[3] 	70705
scalar tree_4_3_u02_r7_network.node[3].content_store 	p_hit[3] 	0.019089370439222
scalar tree_4_3_u02_r7_network.node[3].content_store 	hits[3] 	1376
scalar tree_4_3_u02_r7_network.node[3].content_store 	misses[3] 	70706
scalar tree_4_3_u02_r7_network.node[3].content_store 	decision_yes[3] 	850
scalar tree_4_3_u02_r7_network.node[3].content_store 	decision_no[3] 	69855
scalar tree_4_3_u02_r7_network.node[3].content_store 	decision_ratio[3] 	0.012021780637862
scalar tree_4_3_u02_r7_network.node[4].core_layer 	interests[4] 	27951
scalar tree_4_3_u02_r7_network.node[4].core_layer 	data[4] 	25909
scalar tree_4_3_u02_r7_network.node[4].content_store 	p_hit[4] 	0.073056420163858
scalar tree_4_3_u02_r7_network.node[4].content_store 	hits[4] 	2042
scalar tree_4_3_u02_r7_network.node[4].content_store 	misses[4] 	25909
scalar tree_4_3_u02_r7_network.node[4].content_store 	decision_yes[4] 	354
scalar tree_4_3_u02_r7_network.node[4].content_store 	decision_no[4] 	25555
scalar tree_4_3_u02_r7_network.node[4].content_store 	decision_ratio[4] 	0.01366320583581
scalar tree_4_3_u02_r7_network.node[5].core_layer 	interests[5] 	36344
scalar tree_4_3_u02_r7_network.node[5].core_layer 	data[5] 	34075
scalar tree_4_3_u02_r7_network.node[5].content_store 	p_hit[5] 	0.062431212854942
scalar tree_4_3_u02_r7_network.node[5].content_store 	hits[5] 	2269
scalar tree_4_3_u02_r7_network.node[5].content_store 	misses[5] 	34075
scalar tree_4_3_u02_r7_network.node[5].content_store 	decision_yes[5] 	498
scalar tree_4_3_u02_r7_network.node[5].content_store 	decision_no[5] 	33577
scalar tree_4_3_u02_r7_network.node[5].content_store 	decision_ratio[5] 	0.01461482024945
scalar tree_4_3_u02_r7_network.node[6].core_layer 	interests[6] 	19278
scalar tree_4_3_u02_r7_network.node[6].core_layer 	data[6] 	17186
scalar tree_4_3_u02_r7_network.node[6].content_store 	p_hit[6] 	0.10846560846561
scalar tree_4_3_u02_r7_network.node[6].content_store 	hits[6] 	2091
scalar tree_4_3_u02_r7_network.node[6].content_store 	misses[6] 	17187
scalar tree_4_3_u02_r7_network.node[6].content_store 	decision_yes[6] 	286
scalar tree_4_3_u02_r7_network.node[6].content_store 	decision_no[6] 	16900
scalar tree_4_3_u02_r7_network.node[6].content_store 	decision_ratio[6] 	0.016641452344932
scalar tree_4_3_u02_r7_network.node[7].core_layer 	interests[7] 	35896
scalar tree_4_3_u02_r7_network.node[7].core_layer 	data[7] 	33779
scalar tree_4_3_u02_r7_network.node[7].content_store 	p_hit[7] 	0.05897593046579
scalar tree_4_3_u02_r7_network.node[7].content_store 	hits[7] 	2117
scalar tree_4_3_u02_r7_network.node[7].content_store 	misses[7] 	33779
scalar tree_4_3_u02_r7_network.node[7].content_store 	decision_yes[7] 	464
scalar tree_4_3_u02_r7_network.node[7].content_store 	decision_no[7] 	33315
scalar tree_4_3_u02_r7_network.node[7].content_store 	decision_ratio[7] 	0.013736345066461
scalar tree_4_3_u02_r7_network.node[8].core_layer 	interests[8] 	28289
scalar tree_4_3_u02_r7_network.node[8].core_layer 	data[8] 	25855
scalar tree_4_3_u02_r7_network.node[8].content_store 	p_hit[8] 	0.086040510445756
scalar tree_4_3_u02_r7_network.node[8].content_store 	hits[8] 	2434
scalar tree_4_3_u02_r7_network.node[8].content_store 	misses[8] 	25855
scalar tree_4_3_u02_r7_network.node[8].content_store 	decision_yes[8] 	359
scalar tree_4_3_u02_r7_network.node[8].content_store 	decision_no[8] 	25496
scalar tree_4_3_u02_r7_network.node[8].content_store 	decision_ratio[8] 	0.013885128601818
scalar tree_4_3_u02_r7_network.node[9].core_layer 	interests[9] 	19207
scalar tree_4_3_u02_r7_network.node[9].core_layer 	data[9] 	17472
scalar tree_4_3_u02_r7_network.node[9].content_store 	p_hit[9] 	0.0903316499193
scalar tree_4_3_u02_r7_network.node[9].content_store 	hits[9] 	1735
scalar tree_4_3_u02_r7_network.node[9].content_store 	misses[9] 	17472
scalar tree_4_3_u02_r7_network.node[9].content_store 	decision_yes[9] 	265
scalar tree_4_3_u02_r7_network.node[9].content_store 	decision_no[9] 	17207
scalar tree_4_3_u02_r7_network.node[9].content_store 	decision_ratio[9] 	0.015167124542125
scalar tree_4_3_u02_r7_network.node[10].core_layer 	interests[10] 	27154
scalar tree_4_3_u02_r7_network.node[10].core_layer 	data[10] 	25310
scalar tree_4_3_u02_r7_network.node[10].content_store 	p_hit[10] 	0.067872136701775
scalar tree_4_3_u02_r7_network.node[10].content_store 	hits[10] 	1843
scalar tree_4_3_u02_r7_network.node[10].content_store 	misses[10] 	25311
scalar tree_4_3_u02_r7_network.node[10].content_store 	decision_yes[10] 	329
scalar tree_4_3_u02_r7_network.node[10].content_store 	decision_no[10] 	24981
scalar tree_4_3_u02_r7_network.node[10].content_store 	decision_ratio[10] 	0.012998814697748
scalar tree_4_3_u02_r7_network.node[11].core_layer 	interests[11] 	27855
scalar tree_4_3_u02_r7_network.node[11].core_layer 	data[11] 	25581
scalar tree_4_3_u02_r7_network.node[11].content_store 	p_hit[11] 	0.08163704900377
scalar tree_4_3_u02_r7_network.node[11].content_store 	hits[11] 	2274
scalar tree_4_3_u02_r7_network.node[11].content_store 	misses[11] 	25581
scalar tree_4_3_u02_r7_network.node[11].content_store 	decision_yes[11] 	377
scalar tree_4_3_u02_r7_network.node[11].content_store 	decision_no[11] 	25204
scalar tree_4_3_u02_r7_network.node[11].content_store 	decision_ratio[11] 	0.014737500488644
scalar tree_4_3_u02_r7_network.node[12].core_layer 	interests[12] 	28334
scalar tree_4_3_u02_r7_network.node[12].core_layer 	data[12] 	25990
scalar tree_4_3_u02_r7_network.node[12].content_store 	p_hit[12] 	0.082727465236112
scalar tree_4_3_u02_r7_network.node[12].content_store 	hits[12] 	2344
scalar tree_4_3_u02_r7_network.node[12].content_store 	misses[12] 	25990
scalar tree_4_3_u02_r7_network.node[12].content_store 	decision_yes[12] 	423
scalar tree_4_3_u02_r7_network.node[12].content_store 	decision_no[12] 	25567
scalar tree_4_3_u02_r7_network.node[12].content_store 	decision_ratio[12] 	0.016275490573297
scalar tree_4_3_u02_r7_network.node[13].core_layer 	interests[13] 	12409
scalar tree_4_3_u02_r7_network.node[13].core_layer 	data[13] 	8859
scalar tree_4_3_u02_r7_network.node[13].content_store 	p_hit[13] 	0.28600209525345
scalar tree_4_3_u02_r7_network.node[13].content_store 	hits[13] 	3549
scalar tree_4_3_u02_r7_network.node[13].content_store 	misses[13] 	8860
scalar tree_4_3_u02_r7_network.node[13].content_store 	decision_yes[13] 	106
scalar tree_4_3_u02_r7_network.node[13].content_store 	decision_no[13] 	8753
scalar tree_4_3_u02_r7_network.node[13].content_store 	decision_ratio[13] 	0.011965233096286
scalar tree_4_3_u02_r7_network.node[14].core_layer 	interests[14] 	12489
scalar tree_4_3_u02_r7_network.node[14].core_layer 	data[14] 	8804
scalar tree_4_3_u02_r7_network.node[14].content_store 	p_hit[14] 	0.29497958203219
scalar tree_4_3_u02_r7_network.node[14].content_store 	hits[14] 	3684
scalar tree_4_3_u02_r7_network.node[14].content_store 	misses[14] 	8805
scalar tree_4_3_u02_r7_network.node[14].content_store 	decision_yes[14] 	114
scalar tree_4_3_u02_r7_network.node[14].content_store 	decision_no[14] 	8690
scalar tree_4_3_u02_r7_network.node[14].content_store 	decision_ratio[14] 	0.012948659700136
scalar tree_4_3_u02_r7_network.node[15].core_layer 	interests[15] 	12518
scalar tree_4_3_u02_r7_network.node[15].core_layer 	data[15] 	8924
scalar tree_4_3_u02_r7_network.node[15].content_store 	p_hit[15] 	0.28710656654418
scalar tree_4_3_u02_r7_network.node[15].content_store 	hits[15] 	3594
scalar tree_4_3_u02_r7_network.node[15].content_store 	misses[15] 	8924
scalar tree_4_3_u02_r7_network.node[15].content_store 	decision_yes[15] 	113
scalar tree_4_3_u02_r7_network.node[15].content_store 	decision_no[15] 	8811
scalar tree_4_3_u02_r7_network.node[15].content_store 	decision_ratio[15] 	0.012662483191394
scalar tree_4_3_u02_r7_network.node[16].core_layer 	interests[16] 	12780
scalar tree_4_3_u02_r7_network.node[16].core_layer 	data[16] 	9118
scalar tree_4_3_u02_r7_network.node[16].content_store 	p_hit[16] 	0.28654147104851
scalar tree_4_3_u02_r7_network.node[16].content_store 	hits[16] 	3662
scalar tree_4_3_u02_r7_network.node[16].content_store 	misses[16] 	9118
scalar tree_4_3_u02_r7_network.node[16].content_store 	decision_yes[16] 	107
scalar tree_4_3_u02_r7_network.node[16].content_store 	decision_no[16] 	9011
scalar tree_4_3_u02_r7_network.node[16].content_store 	decision_ratio[16] 	0.011735029611757
scalar tree_4_3_u02_r7_network.node[17].core_layer 	interests[17] 	12375
scalar tree_4_3_u02_r7_network.node[17].core_layer 	data[17] 	8703
scalar tree_4_3_u02_r7_network.node[17].content_store 	p_hit[17] 	0.29672727272727
scalar tree_4_3_u02_r7_network.node[17].content_store 	hits[17] 	3672
scalar tree_4_3_u02_r7_network.node[17].content_store 	misses[17] 	8703
scalar tree_4_3_u02_r7_network.node[17].content_store 	decision_yes[17] 	89
scalar tree_4_3_u02_r7_network.node[17].content_store 	decision_no[17] 	8614
scalar tree_4_3_u02_r7_network.node[17].content_store 	decision_ratio[17] 	0.010226358726876
scalar tree_4_3_u02_r7_network.node[18].core_layer 	interests[18] 	12427
scalar tree_4_3_u02_r7_network.node[18].core_layer 	data[18] 	8893
scalar tree_4_3_u02_r7_network.node[18].content_store 	p_hit[18] 	0.28438078377726
scalar tree_4_3_u02_r7_network.node[18].content_store 	hits[18] 	3534
scalar tree_4_3_u02_r7_network.node[18].content_store 	misses[18] 	8893
scalar tree_4_3_u02_r7_network.node[18].content_store 	decision_yes[18] 	122
scalar tree_4_3_u02_r7_network.node[18].content_store 	decision_no[18] 	8771
scalar tree_4_3_u02_r7_network.node[18].content_store 	decision_ratio[18] 	0.013718655122006
scalar tree_4_3_u02_r7_network.node[19].core_layer 	interests[19] 	12280
scalar tree_4_3_u02_r7_network.node[19].core_layer 	data[19] 	8711
scalar tree_4_3_u02_r7_network.node[19].content_store 	p_hit[19] 	0.29063517915309
scalar tree_4_3_u02_r7_network.node[19].content_store 	hits[19] 	3569
scalar tree_4_3_u02_r7_network.node[19].content_store 	misses[19] 	8711
scalar tree_4_3_u02_r7_network.node[19].content_store 	decision_yes[19] 	113
scalar tree_4_3_u02_r7_network.node[19].content_store 	decision_no[19] 	8598
scalar tree_4_3_u02_r7_network.node[19].content_store 	decision_ratio[19] 	0.012972104236023
scalar tree_4_3_u02_r7_network.node[20].core_layer 	interests[20] 	13015
scalar tree_4_3_u02_r7_network.node[20].core_layer 	data[20] 	8761
scalar tree_4_3_u02_r7_network.node[20].content_store 	p_hit[20] 	0.32685363042643
scalar tree_4_3_u02_r7_network.node[20].content_store 	hits[20] 	4254
scalar tree_4_3_u02_r7_network.node[20].content_store 	misses[20] 	8761
scalar tree_4_3_u02_r7_network.node[20].content_store 	decision_yes[20] 	142
scalar tree_4_3_u02_r7_network.node[20].content_store 	decision_no[20] 	8619
scalar tree_4_3_u02_r7_network.node[20].content_store 	decision_ratio[20] 	0.016208195411483
scalar tree_4_3_u02_r7_network.node[21].core_layer 	interests[21] 	12305
scalar tree_4_3_u02_r7_network.node[21].core_layer 	data[21] 	8885
scalar tree_4_3_u02_r7_network.node[21].content_store 	p_hit[21] 	0.27793579845591
scalar tree_4_3_u02_r7_network.node[21].content_store 	hits[21] 	3420
scalar tree_4_3_u02_r7_network.node[21].content_store 	misses[21] 	8885
scalar tree_4_3_u02_r7_network.node[21].content_store 	decision_yes[21] 	115
scalar tree_4_3_u02_r7_network.node[21].content_store 	decision_no[21] 	8770
scalar tree_4_3_u02_r7_network.node[21].content_store 	decision_ratio[21] 	0.012943162633652
scalar tree_4_3_u02_r7_network.node[22].core_layer 	interests[22] 	12638
scalar tree_4_3_u02_r7_network.node[22].core_layer 	data[22] 	9002
scalar tree_4_3_u02_r7_network.node[22].content_store 	p_hit[22] 	0.28778287703751
scalar tree_4_3_u02_r7_network.node[22].content_store 	hits[22] 	3637
scalar tree_4_3_u02_r7_network.node[22].content_store 	misses[22] 	9001
scalar tree_4_3_u02_r7_network.node[22].content_store 	decision_yes[22] 	113
scalar tree_4_3_u02_r7_network.node[22].content_store 	decision_no[22] 	8889
scalar tree_4_3_u02_r7_network.node[22].content_store 	decision_ratio[22] 	0.012552766051988
scalar tree_4_3_u02_r7_network.node[23].core_layer 	interests[23] 	13096
scalar tree_4_3_u02_r7_network.node[23].core_layer 	data[23] 	8988
scalar tree_4_3_u02_r7_network.node[23].content_store 	p_hit[23] 	0.31368356750153
scalar tree_4_3_u02_r7_network.node[23].content_store 	hits[23] 	4108
scalar tree_4_3_u02_r7_network.node[23].content_store 	misses[23] 	8988
scalar tree_4_3_u02_r7_network.node[23].content_store 	decision_yes[23] 	133
scalar tree_4_3_u02_r7_network.node[23].content_store 	decision_no[23] 	8855
scalar tree_4_3_u02_r7_network.node[23].content_store 	decision_ratio[23] 	0.014797507788162
scalar tree_4_3_u02_r7_network.node[24].core_layer 	interests[24] 	12376
scalar tree_4_3_u02_r7_network.node[24].core_layer 	data[24] 	8783
scalar tree_4_3_u02_r7_network.node[24].content_store 	p_hit[24] 	0.2903199741435
scalar tree_4_3_u02_r7_network.node[24].content_store 	hits[24] 	3593
scalar tree_4_3_u02_r7_network.node[24].content_store 	misses[24] 	8783
scalar tree_4_3_u02_r7_network.node[24].content_store 	decision_yes[24] 	123
scalar tree_4_3_u02_r7_network.node[24].content_store 	decision_no[24] 	8660
scalar tree_4_3_u02_r7_network.node[24].content_store 	decision_ratio[24] 	0.014004326539907
scalar tree_4_3_u02_r7_network.node[25].core_layer 	interests[25] 	12314
scalar tree_4_3_u02_r7_network.node[25].core_layer 	data[25] 	8818
scalar tree_4_3_u02_r7_network.node[25].content_store 	p_hit[25] 	0.28390449894429
scalar tree_4_3_u02_r7_network.node[25].content_store 	hits[25] 	3496
scalar tree_4_3_u02_r7_network.node[25].content_store 	misses[25] 	8818
scalar tree_4_3_u02_r7_network.node[25].content_store 	decision_yes[25] 	138
scalar tree_4_3_u02_r7_network.node[25].content_store 	decision_no[25] 	8680
scalar tree_4_3_u02_r7_network.node[25].content_store 	decision_ratio[25] 	0.01564980721252
scalar tree_4_3_u02_r7_network.node[26].core_layer 	interests[26] 	12406
scalar tree_4_3_u02_r7_network.node[26].core_layer 	data[26] 	8886
scalar tree_4_3_u02_r7_network.node[26].content_store 	p_hit[26] 	0.28373367725294
scalar tree_4_3_u02_r7_network.node[26].content_store 	hits[26] 	3520
scalar tree_4_3_u02_r7_network.node[26].content_store 	misses[26] 	8886
scalar tree_4_3_u02_r7_network.node[26].content_store 	decision_yes[26] 	117
scalar tree_4_3_u02_r7_network.node[26].content_store 	decision_no[26] 	8769
scalar tree_4_3_u02_r7_network.node[26].content_store 	decision_ratio[26] 	0.013166779203241
scalar tree_4_3_u02_r7_network.node[27].core_layer 	interests[27] 	12479
scalar tree_4_3_u02_r7_network.node[27].core_layer 	data[27] 	8803
scalar tree_4_3_u02_r7_network.node[27].content_store 	p_hit[27] 	0.29449475118199
scalar tree_4_3_u02_r7_network.node[27].content_store 	hits[27] 	3675
scalar tree_4_3_u02_r7_network.node[27].content_store 	misses[27] 	8804
scalar tree_4_3_u02_r7_network.node[27].content_store 	decision_yes[27] 	121
scalar tree_4_3_u02_r7_network.node[27].content_store 	decision_no[27] 	8682
scalar tree_4_3_u02_r7_network.node[27].content_store 	decision_ratio[27] 	0.013745314097467
scalar tree_4_3_u02_r7_network.node[28].core_layer 	interests[28] 	12826
scalar tree_4_3_u02_r7_network.node[28].core_layer 	data[28] 	9025
scalar tree_4_3_u02_r7_network.node[28].content_store 	p_hit[28] 	0.29635116170279
scalar tree_4_3_u02_r7_network.node[28].content_store 	hits[28] 	3801
scalar tree_4_3_u02_r7_network.node[28].content_store 	misses[28] 	9025
scalar tree_4_3_u02_r7_network.node[28].content_store 	decision_yes[28] 	138
scalar tree_4_3_u02_r7_network.node[28].content_store 	decision_no[28] 	8887
scalar tree_4_3_u02_r7_network.node[28].content_store 	decision_ratio[28] 	0.015290858725762
scalar tree_4_3_u02_r7_network.node[29].core_layer 	interests[29] 	12335
scalar tree_4_3_u02_r7_network.node[29].core_layer 	data[29] 	8929
scalar tree_4_3_u02_r7_network.node[29].content_store 	p_hit[29] 	0.27612484799351
scalar tree_4_3_u02_r7_network.node[29].content_store 	hits[29] 	3406
scalar tree_4_3_u02_r7_network.node[29].content_store 	misses[29] 	8929
scalar tree_4_3_u02_r7_network.node[29].content_store 	decision_yes[29] 	113
scalar tree_4_3_u02_r7_network.node[29].content_store 	decision_no[29] 	8816
scalar tree_4_3_u02_r7_network.node[29].content_store 	decision_ratio[29] 	0.012655392541158
scalar tree_4_3_u02_r7_network.node[30].core_layer 	interests[30] 	12337
scalar tree_4_3_u02_r7_network.node[30].core_layer 	data[30] 	8842
scalar tree_4_3_u02_r7_network.node[30].content_store 	p_hit[30] 	0.28329415579152
scalar tree_4_3_u02_r7_network.node[30].content_store 	hits[30] 	3495
scalar tree_4_3_u02_r7_network.node[30].content_store 	misses[30] 	8842
scalar tree_4_3_u02_r7_network.node[30].content_store 	decision_yes[30] 	102
scalar tree_4_3_u02_r7_network.node[30].content_store 	decision_no[30] 	8740
scalar tree_4_3_u02_r7_network.node[30].content_store 	decision_ratio[30] 	0.011535851617281
scalar tree_4_3_u02_r7_network.node[31].core_layer 	interests[31] 	12267
scalar tree_4_3_u02_r7_network.node[31].core_layer 	data[31] 	8691
scalar tree_4_3_u02_r7_network.node[31].content_store 	p_hit[31] 	0.29151381755931
scalar tree_4_3_u02_r7_network.node[31].content_store 	hits[31] 	3576
scalar tree_4_3_u02_r7_network.node[31].content_store 	misses[31] 	8691
scalar tree_4_3_u02_r7_network.node[31].content_store 	decision_yes[31] 	99
scalar tree_4_3_u02_r7_network.node[31].content_store 	decision_no[31] 	8592
scalar tree_4_3_u02_r7_network.node[31].content_store 	decision_ratio[31] 	0.011391094235416
scalar tree_4_3_u02_r7_network.node[32].core_layer 	interests[32] 	12846
scalar tree_4_3_u02_r7_network.node[32].core_layer 	data[32] 	8979
scalar tree_4_3_u02_r7_network.node[32].content_store 	p_hit[32] 	0.3009497119726
scalar tree_4_3_u02_r7_network.node[32].content_store 	hits[32] 	3866
scalar tree_4_3_u02_r7_network.node[32].content_store 	misses[32] 	8980
scalar tree_4_3_u02_r7_network.node[32].content_store 	decision_yes[32] 	160
scalar tree_4_3_u02_r7_network.node[32].content_store 	decision_no[32] 	8819
scalar tree_4_3_u02_r7_network.node[32].content_store 	decision_ratio[32] 	0.017819356275755
scalar tree_4_3_u02_r7_network.node[33].core_layer 	interests[33] 	12489
scalar tree_4_3_u02_r7_network.node[33].core_layer 	data[33] 	8971
scalar tree_4_3_u02_r7_network.node[33].content_store 	p_hit[33] 	0.2816878853391
scalar tree_4_3_u02_r7_network.node[33].content_store 	hits[33] 	3518
scalar tree_4_3_u02_r7_network.node[33].content_store 	misses[33] 	8971
scalar tree_4_3_u02_r7_network.node[33].content_store 	decision_yes[33] 	110
scalar tree_4_3_u02_r7_network.node[33].content_store 	decision_no[33] 	8861
scalar tree_4_3_u02_r7_network.node[33].content_store 	decision_ratio[33] 	0.012261732248356
scalar tree_4_3_u02_r7_network.node[34].core_layer 	interests[34] 	12332
scalar tree_4_3_u02_r7_network.node[34].core_layer 	data[34] 	8871
scalar tree_4_3_u02_r7_network.node[34].content_store 	p_hit[34] 	0.28073305222186
scalar tree_4_3_u02_r7_network.node[34].content_store 	hits[34] 	3462
scalar tree_4_3_u02_r7_network.node[34].content_store 	misses[34] 	8870
scalar tree_4_3_u02_r7_network.node[34].content_store 	decision_yes[34] 	111
scalar tree_4_3_u02_r7_network.node[34].content_store 	decision_no[34] 	8760
scalar tree_4_3_u02_r7_network.node[34].content_store 	decision_ratio[34] 	0.012512681772066
scalar tree_4_3_u02_r7_network.node[35].core_layer 	interests[35] 	12700
scalar tree_4_3_u02_r7_network.node[35].core_layer 	data[35] 	9054
scalar tree_4_3_u02_r7_network.node[35].content_store 	p_hit[35] 	0.28708661417323
scalar tree_4_3_u02_r7_network.node[35].content_store 	hits[35] 	3646
scalar tree_4_3_u02_r7_network.node[35].content_store 	misses[35] 	9054
scalar tree_4_3_u02_r7_network.node[35].content_store 	decision_yes[35] 	112
scalar tree_4_3_u02_r7_network.node[35].content_store 	decision_no[35] 	8942
scalar tree_4_3_u02_r7_network.node[35].content_store 	decision_ratio[35] 	0.01237022310581
scalar tree_4_3_u02_r7_network.node[36].core_layer 	interests[36] 	12842
scalar tree_4_3_u02_r7_network.node[36].core_layer 	data[36] 	8711
scalar tree_4_3_u02_r7_network.node[36].content_store 	p_hit[36] 	0.32167886622021
scalar tree_4_3_u02_r7_network.node[36].content_store 	hits[36] 	4131
scalar tree_4_3_u02_r7_network.node[36].content_store 	misses[36] 	8711
scalar tree_4_3_u02_r7_network.node[36].content_store 	decision_yes[36] 	116
scalar tree_4_3_u02_r7_network.node[36].content_store 	decision_no[36] 	8595
scalar tree_4_3_u02_r7_network.node[36].content_store 	decision_ratio[36] 	0.013316496383882
scalar tree_4_3_u02_r7_network.node[37].core_layer 	interests[37] 	12463
scalar tree_4_3_u02_r7_network.node[37].core_layer 	data[37] 	8895
scalar tree_4_3_u02_r7_network.node[37].content_store 	p_hit[37] 	0.28628741073578
scalar tree_4_3_u02_r7_network.node[37].content_store 	hits[37] 	3568
scalar tree_4_3_u02_r7_network.node[37].content_store 	misses[37] 	8895
scalar tree_4_3_u02_r7_network.node[37].content_store 	decision_yes[37] 	125
scalar tree_4_3_u02_r7_network.node[37].content_store 	decision_no[37] 	8770
scalar tree_4_3_u02_r7_network.node[37].content_store 	decision_ratio[37] 	0.014052838673412
scalar tree_4_3_u02_r7_network.node[38].core_layer 	interests[38] 	12453
scalar tree_4_3_u02_r7_network.node[38].core_layer 	data[38] 	8936
scalar tree_4_3_u02_r7_network.node[38].content_store 	p_hit[38] 	0.28242190636794
scalar tree_4_3_u02_r7_network.node[38].content_store 	hits[38] 	3517
scalar tree_4_3_u02_r7_network.node[38].content_store 	misses[38] 	8936
scalar tree_4_3_u02_r7_network.node[38].content_store 	decision_yes[38] 	121
scalar tree_4_3_u02_r7_network.node[38].content_store 	decision_no[38] 	8815
scalar tree_4_3_u02_r7_network.node[38].content_store 	decision_ratio[38] 	0.013540734109221
scalar tree_4_3_u02_r7_network.node[39].core_layer 	interests[39] 	12375
scalar tree_4_3_u02_r7_network.node[39].core_layer 	data[39] 	8789
scalar tree_4_3_u02_r7_network.node[39].content_store 	p_hit[39] 	0.28977777777778
scalar tree_4_3_u02_r7_network.node[39].content_store 	hits[39] 	3586
scalar tree_4_3_u02_r7_network.node[39].content_store 	misses[39] 	8789
scalar tree_4_3_u02_r7_network.node[39].content_store 	decision_yes[39] 	103
scalar tree_4_3_u02_r7_network.node[39].content_store 	decision_no[39] 	8686
scalar tree_4_3_u02_r7_network.node[39].content_store 	decision_ratio[39] 	0.011719194447605
scalar tree_4_3_u02_r7_network.client[13] 	hdistance[13] 	2.7442792717555
scalar tree_4_3_u02_r7_network.client[13] 	downloads[13] 	11974
scalar tree_4_3_u02_r7_network.client[13] 	avg_time[13] 	0.004261056223
scalar tree_4_3_u02_r7_network.client[14] 	hdistance[14] 	2.7338757024239
scalar tree_4_3_u02_r7_network.client[14] 	downloads[14] 	11923
scalar tree_4_3_u02_r7_network.client[14] 	avg_time[14] 	0.004242659198
scalar tree_4_3_u02_r7_network.client[15] 	hdistance[15] 	2.7430757714381
scalar tree_4_3_u02_r7_network.client[15] 	downloads[15] 	12023
scalar tree_4_3_u02_r7_network.client[15] 	avg_time[15] 	0.004253344721
scalar tree_4_3_u02_r7_network.client[16] 	hdistance[16] 	2.7560516846582
scalar tree_4_3_u02_r7_network.client[16] 	downloads[16] 	12228
scalar tree_4_3_u02_r7_network.client[16] 	avg_time[16] 	0.004271341403
scalar tree_4_3_u02_r7_network.client[17] 	hdistance[17] 	2.7082771409305
scalar tree_4_3_u02_r7_network.client[17] 	downloads[17] 	11864
scalar tree_4_3_u02_r7_network.client[17] 	avg_time[17] 	0.004199761019
scalar tree_4_3_u02_r7_network.client[18] 	hdistance[18] 	2.7296642725906
scalar tree_4_3_u02_r7_network.client[18] 	downloads[18] 	11974
scalar tree_4_3_u02_r7_network.client[18] 	avg_time[18] 	0.004231498589
scalar tree_4_3_u02_r7_network.client[19] 	hdistance[19] 	2.6954884071315
scalar tree_4_3_u02_r7_network.client[19] 	downloads[19] 	11947
scalar tree_4_3_u02_r7_network.client[19] 	avg_time[19] 	0.004186489686
scalar tree_4_3_u02_r7_network.client[20] 	hdistance[20] 	2.6415267685626
scalar tree_4_3_u02_r7_network.client[20] 	downloads[20] 	11973
scalar tree_4_3_u02_r7_network.client[20] 	avg_time[20] 	0.004076168371
scalar tree_4_3_u02_r7_network.client[21] 	hdistance[21] 	2.7489170276574
scalar tree_4_3_u02_r7_network.client[21] 	downloads[21] 	12004
scalar tree_4_3_u02_r7_network.client[21] 	avg_time[21] 	0.00426390902
scalar tree_4_3_u02_r7_network.client[22] 	hdistance[22] 	2.7399203583873
scalar tree_4_3_u02_r7_network.client[22] 	downloads[22] 	12054
scalar tree_4_3_u02_r7_network.client[22] 	avg_time[22] 	0.004252043534
scalar tree_4_3_u02_r7_network.client[23] 	hdistance[23] 	2.6771248339973
scalar tree_4_3_u02_r7_network.client[23] 	downloads[23] 	12048
scalar tree_4_3_u02_r7_network.client[23] 	avg_time[23] 	0.004127154995
scalar tree_4_3_u02_r7_network.client[24] 	hdistance[24] 	2.7235299080402
scalar tree_4_3_u02_r7_network.client[24] 	downloads[24] 	11853
scalar tree_4_3_u02_r7_network.client[24] 	avg_time[24] 	0.004229137341
scalar tree_4_3_u02_r7_network.client[25] 	hdistance[25] 	2.7364465461915
scalar tree_4_3_u02_r7_network.client[25] 	downloads[25] 	11842
scalar tree_4_3_u02_r7_network.client[25] 	avg_time[25] 	0.004239145826
scalar tree_4_3_u02_r7_network.client[26] 	hdistance[26] 	2.7341286393593
scalar tree_4_3_u02_r7_network.client[26] 	downloads[26] 	11987
scalar tree_4_3_u02_r7_network.client[26] 	avg_time[26] 	0.00423191489
scalar tree_4_3_u02_r7_network.client[27] 	hdistance[27] 	2.6982464888224
scalar tree_4_3_u02_r7_network.client[27] 	downloads[27] 	12033
scalar tree_4_3_u02_r7_network.client[27] 	avg_time[27] 	0.004184727988
scalar tree_4_3_u02_r7_network.client[28] 	hdistance[28] 	2.7328498791365
scalar tree_4_3_u02_r7_network.client[28] 	downloads[28] 	11997
scalar tree_4_3_u02_r7_network.client[28] 	avg_time[28] 	0.004213050243
scalar tree_4_3_u02_r7_network.client[29] 	hdistance[29] 	2.771853585158
scalar tree_4_3_u02_r7_network.client[29] 	downloads[29] 	11966
scalar tree_4_3_u02_r7_network.client[29] 	avg_time[29] 	0.004302019369
scalar tree_4_3_u02_r7_network.client[30] 	hdistance[30] 	2.7391268191268
scalar tree_4_3_u02_r7_network.client[30] 	downloads[30] 	12025
scalar tree_4_3_u02_r7_network.client[30] 	avg_time[30] 	0.004251805735
scalar tree_4_3_u02_r7_network.client[31] 	hdistance[31] 	2.7220350404313
scalar tree_4_3_u02_r7_network.client[31] 	downloads[31] 	11872
scalar tree_4_3_u02_r7_network.client[31] 	avg_time[31] 	0.004221459492
scalar tree_4_3_u02_r7_network.client[32] 	hdistance[32] 	2.6931979019232
scalar tree_4_3_u02_r7_network.client[32] 	downloads[32] 	12011
scalar tree_4_3_u02_r7_network.client[32] 	avg_time[32] 	0.004158122942
scalar tree_4_3_u02_r7_network.client[33] 	hdistance[33] 	2.7491145704637
scalar tree_4_3_u02_r7_network.client[33] 	downloads[33] 	12141
scalar tree_4_3_u02_r7_network.client[33] 	avg_time[33] 	0.004263401973
scalar tree_4_3_u02_r7_network.client[34] 	hdistance[34] 	2.7432580021843
scalar tree_4_3_u02_r7_network.client[34] 	downloads[34] 	11903
scalar tree_4_3_u02_r7_network.client[34] 	avg_time[34] 	0.004255226766
scalar tree_4_3_u02_r7_network.client[35] 	hdistance[35] 	2.7325752617801
scalar tree_4_3_u02_r7_network.client[35] 	downloads[35] 	12224
scalar tree_4_3_u02_r7_network.client[35] 	avg_time[35] 	0.00423478969
scalar tree_4_3_u02_r7_network.client[36] 	hdistance[36] 	2.6584851551957
scalar tree_4_3_u02_r7_network.client[36] 	downloads[36] 	11856
scalar tree_4_3_u02_r7_network.client[36] 	avg_time[36] 	0.004092608358
scalar tree_4_3_u02_r7_network.client[37] 	hdistance[37] 	2.724691974692
scalar tree_4_3_u02_r7_network.client[37] 	downloads[37] 	12012
scalar tree_4_3_u02_r7_network.client[37] 	avg_time[37] 	0.00422527171
scalar tree_4_3_u02_r7_network.client[38] 	hdistance[38] 	2.7438333333333
scalar tree_4_3_u02_r7_network.client[38] 	downloads[38] 	12000
scalar tree_4_3_u02_r7_network.client[38] 	avg_time[38] 	0.004254163627
scalar tree_4_3_u02_r7_network.client[39] 	hdistance[39] 	2.7249142187631
scalar tree_4_3_u02_r7_network.client[39] 	downloads[39] 	11949
scalar tree_4_3_u02_r7_network.client[39] 	avg_time[39] 	0.004218257931
