version 2
run General-56-20160902-12:42:03-7280
attr a 0.9
attr cd wfc0.01
attr configname General
attr cr lru
attr datetime 20160902-12:42:03
attr experiment General
attr fsize 1
attr inifile hw5115/scenario_Y/omnetp.ini
attr iterationvars "$name=tree_4_3, $un=02, $rep=17, $cd=wfc0.01, $cr=lru, $fsize=1, $a=0.9, $sl=nrr, $ttl=1000, $variance=0.05"
attr iterationvars2 "$name=tree_4_3, $un=02, $rep=17, $cd=wfc0.01, $cr=lru, $fsize=1, $a=0.9, $sl=nrr, $ttl=1000, $variance=0.05, $repetition=0"
attr measurement "$name=tree_4_3, $un=02, $rep=17, $cd=wfc0.01, $cr=lru, $fsize=1, $a=0.9, $sl=nrr, $ttl=1000, $variance=0.05"
attr name tree_4_3
attr network networks.${name}_u${un}_r${rep}_network
attr processid 7280
attr rep 17
attr repetition 0
attr replication #0
attr resultdir results
attr runnumber 56
attr seedset 17
attr sl nrr
attr ttl 1000
attr un 02
attr variance 0.05

scalar . 	a 	0.9
scalar . 	fsize 	1
scalar . 	rep 	17
scalar . 	ttl 	1000
scalar . 	un 	02
scalar . 	variance 	0.05
scalar tree_4_3_u02_r17_network.content_distribution 	repo-0 	0
scalar tree_4_3_u02_r17_network.content_distribution 	client-0 	13
scalar tree_4_3_u02_r17_network.content_distribution 	client-1 	14
scalar tree_4_3_u02_r17_network.content_distribution 	client-2 	15
scalar tree_4_3_u02_r17_network.content_distribution 	client-3 	16
scalar tree_4_3_u02_r17_network.content_distribution 	client-4 	17
scalar tree_4_3_u02_r17_network.content_distribution 	client-5 	18
scalar tree_4_3_u02_r17_network.content_distribution 	client-6 	19
scalar tree_4_3_u02_r17_network.content_distribution 	client-7 	20
scalar tree_4_3_u02_r17_network.content_distribution 	client-8 	21
scalar tree_4_3_u02_r17_network.content_distribution 	client-9 	22
scalar tree_4_3_u02_r17_network.content_distribution 	client-10 	23
scalar tree_4_3_u02_r17_network.content_distribution 	client-11 	24
scalar tree_4_3_u02_r17_network.content_distribution 	client-12 	25
scalar tree_4_3_u02_r17_network.content_distribution 	client-13 	26
scalar tree_4_3_u02_r17_network.content_distribution 	client-14 	27
scalar tree_4_3_u02_r17_network.content_distribution 	client-15 	28
scalar tree_4_3_u02_r17_network.content_distribution 	client-16 	29
scalar tree_4_3_u02_r17_network.content_distribution 	client-17 	30
scalar tree_4_3_u02_r17_network.content_distribution 	client-18 	31
scalar tree_4_3_u02_r17_network.content_distribution 	client-19 	32
scalar tree_4_3_u02_r17_network.content_distribution 	client-20 	33
scalar tree_4_3_u02_r17_network.content_distribution 	client-21 	34
scalar tree_4_3_u02_r17_network.content_distribution 	client-22 	35
scalar tree_4_3_u02_r17_network.content_distribution 	client-23 	36
scalar tree_4_3_u02_r17_network.content_distribution 	client-24 	37
scalar tree_4_3_u02_r17_network.content_distribution 	client-25 	38
scalar tree_4_3_u02_r17_network.content_distribution 	client-26 	39
scalar tree_4_3_u02_r17_network.content_distribution 	repo-0_card 	100000
scalar tree_4_3_u02_r17_network.content_distribution 	repo-0_price 	0
scalar tree_4_3_u02_r17_network.statistics 	stabilization_time 	1988.3
scalar tree_4_3_u02_r17_network.statistics 	p_hit 	0.22254991186009
scalar tree_4_3_u02_r17_network.statistics 	interests 	25364.65
scalar tree_4_3_u02_r17_network.statistics 	data 	17258.9
scalar tree_4_3_u02_r17_network.statistics 	hdistance 	2.7195338919694
scalar tree_4_3_u02_r17_network.statistics 	avg_time 	0.004258354136
scalar tree_4_3_u02_r17_network.statistics 	downloads 	324240
scalar tree_4_3_u02_r17_network.statistics 	total_cost 	0
scalar tree_4_3_u02_r17_network.statistics 	total_replicas 	100000
scalar tree_4_3_u02_r17_network.statistics 	inner_hit 	0.4096656797434
scalar tree_4_3_u02_r17_network.node[0].core_layer 	interests[0] 	193806
scalar tree_4_3_u02_r17_network.node[0].core_layer 	repo_load[0] 	191410
scalar tree_4_3_u02_r17_network.node[0].core_layer 	data[0] 	0
scalar tree_4_3_u02_r17_network.node[0].core_layer 	repo_int[0] 	191410
scalar tree_4_3_u02_r17_network.node[0].content_store 	p_hit[0] 	0.01236287834226
scalar tree_4_3_u02_r17_network.node[0].content_store 	hits[0] 	2396
scalar tree_4_3_u02_r17_network.node[0].content_store 	misses[0] 	191410
scalar tree_4_3_u02_r17_network.node[0].content_store 	decision_yes[0] 	2883
scalar tree_4_3_u02_r17_network.node[0].content_store 	decision_no[0] 	188527
scalar tree_4_3_u02_r17_network.node[0].content_store 	decision_ratio[0] 	0.015061908991171
scalar tree_4_3_u02_r17_network.node[1].core_layer 	interests[1] 	134904
scalar tree_4_3_u02_r17_network.node[1].core_layer 	data[1] 	131879
scalar tree_4_3_u02_r17_network.node[1].content_store 	p_hit[1] 	0.022430765581451
scalar tree_4_3_u02_r17_network.node[1].content_store 	hits[1] 	3026
scalar tree_4_3_u02_r17_network.node[1].content_store 	misses[1] 	131878
scalar tree_4_3_u02_r17_network.node[1].content_store 	decision_yes[1] 	1593
scalar tree_4_3_u02_r17_network.node[1].content_store 	decision_no[1] 	130286
scalar tree_4_3_u02_r17_network.node[1].content_store 	decision_ratio[1] 	0.012079254468111
scalar tree_4_3_u02_r17_network.node[2].core_layer 	interests[2] 	42351
scalar tree_4_3_u02_r17_network.node[2].core_layer 	data[2] 	40583
scalar tree_4_3_u02_r17_network.node[2].content_store 	p_hit[2] 	0.041769970012514
scalar tree_4_3_u02_r17_network.node[2].content_store 	hits[2] 	1769
scalar tree_4_3_u02_r17_network.node[2].content_store 	misses[2] 	40582
scalar tree_4_3_u02_r17_network.node[2].content_store 	decision_yes[2] 	514
scalar tree_4_3_u02_r17_network.node[2].content_store 	decision_no[2] 	40069
scalar tree_4_3_u02_r17_network.node[2].content_store 	decision_ratio[2] 	0.012665401769214
scalar tree_4_3_u02_r17_network.node[3].core_layer 	interests[3] 	41792
scalar tree_4_3_u02_r17_network.node[3].core_layer 	data[3] 	40163
scalar tree_4_3_u02_r17_network.node[3].content_store 	p_hit[3] 	0.038978751914242
scalar tree_4_3_u02_r17_network.node[3].content_store 	hits[3] 	1629
scalar tree_4_3_u02_r17_network.node[3].content_store 	misses[3] 	40163
scalar tree_4_3_u02_r17_network.node[3].content_store 	decision_yes[3] 	505
scalar tree_4_3_u02_r17_network.node[3].content_store 	decision_no[3] 	39658
scalar tree_4_3_u02_r17_network.node[3].content_store 	decision_ratio[3] 	0.012573761920175
scalar tree_4_3_u02_r17_network.node[4].core_layer 	interests[4] 	29177
scalar tree_4_3_u02_r17_network.node[4].core_layer 	data[4] 	26308
scalar tree_4_3_u02_r17_network.node[4].content_store 	p_hit[4] 	0.098365150632347
scalar tree_4_3_u02_r17_network.node[4].content_store 	hits[4] 	2870
scalar tree_4_3_u02_r17_network.node[4].content_store 	misses[4] 	26307
scalar tree_4_3_u02_r17_network.node[4].content_store 	decision_yes[4] 	408
scalar tree_4_3_u02_r17_network.node[4].content_store 	decision_no[4] 	25900
scalar tree_4_3_u02_r17_network.node[4].content_store 	decision_ratio[4] 	0.015508590542801
scalar tree_4_3_u02_r17_network.node[5].core_layer 	interests[5] 	29049
scalar tree_4_3_u02_r17_network.node[5].core_layer 	data[5] 	26226
scalar tree_4_3_u02_r17_network.node[5].content_store 	p_hit[5] 	0.097180625839099
scalar tree_4_3_u02_r17_network.node[5].content_store 	hits[5] 	2823
scalar tree_4_3_u02_r17_network.node[5].content_store 	misses[5] 	26226
scalar tree_4_3_u02_r17_network.node[5].content_store 	decision_yes[5] 	402
scalar tree_4_3_u02_r17_network.node[5].content_store 	decision_no[5] 	25824
scalar tree_4_3_u02_r17_network.node[5].content_store 	decision_ratio[5] 	0.015328300160146
scalar tree_4_3_u02_r17_network.node[6].core_layer 	interests[6] 	29175
scalar tree_4_3_u02_r17_network.node[6].core_layer 	data[6] 	26570
scalar tree_4_3_u02_r17_network.node[6].content_store 	p_hit[6] 	0.089254498714653
scalar tree_4_3_u02_r17_network.node[6].content_store 	hits[6] 	2604
scalar tree_4_3_u02_r17_network.node[6].content_store 	misses[6] 	26571
scalar tree_4_3_u02_r17_network.node[6].content_store 	decision_yes[6] 	408
scalar tree_4_3_u02_r17_network.node[6].content_store 	decision_no[6] 	26162
scalar tree_4_3_u02_r17_network.node[6].content_store 	decision_ratio[6] 	0.015355664283026
scalar tree_4_3_u02_r17_network.node[7].core_layer 	interests[7] 	39727
scalar tree_4_3_u02_r17_network.node[7].core_layer 	data[7] 	35476
scalar tree_4_3_u02_r17_network.node[7].content_store 	p_hit[7] 	0.10698013945176
scalar tree_4_3_u02_r17_network.node[7].content_store 	hits[7] 	4250
scalar tree_4_3_u02_r17_network.node[7].content_store 	misses[7] 	35477
scalar tree_4_3_u02_r17_network.node[7].content_store 	decision_yes[7] 	579
scalar tree_4_3_u02_r17_network.node[7].content_store 	decision_no[7] 	34897
scalar tree_4_3_u02_r17_network.node[7].content_store 	decision_ratio[7] 	0.016320892998083
scalar tree_4_3_u02_r17_network.node[8].core_layer 	interests[8] 	19178
scalar tree_4_3_u02_r17_network.node[8].core_layer 	data[8] 	17401
scalar tree_4_3_u02_r17_network.node[8].content_store 	p_hit[8] 	0.092710397330274
scalar tree_4_3_u02_r17_network.node[8].content_store 	hits[8] 	1778
scalar tree_4_3_u02_r17_network.node[8].content_store 	misses[8] 	17400
scalar tree_4_3_u02_r17_network.node[8].content_store 	decision_yes[8] 	274
scalar tree_4_3_u02_r17_network.node[8].content_store 	decision_no[8] 	17127
scalar tree_4_3_u02_r17_network.node[8].content_store 	decision_ratio[8] 	0.015746221481524
scalar tree_4_3_u02_r17_network.node[9].core_layer 	interests[9] 	27565
scalar tree_4_3_u02_r17_network.node[9].core_layer 	data[9] 	25903
scalar tree_4_3_u02_r17_network.node[9].content_store 	p_hit[9] 	0.060330128786505
scalar tree_4_3_u02_r17_network.node[9].content_store 	hits[9] 	1663
scalar tree_4_3_u02_r17_network.node[9].content_store 	misses[9] 	25902
scalar tree_4_3_u02_r17_network.node[9].content_store 	decision_yes[9] 	345
scalar tree_4_3_u02_r17_network.node[9].content_store 	decision_no[9] 	25558
scalar tree_4_3_u02_r17_network.node[9].content_store 	decision_ratio[9] 	0.013318920588349
scalar tree_4_3_u02_r17_network.node[10].core_layer 	interests[10] 	39524
scalar tree_4_3_u02_r17_network.node[10].core_layer 	data[10] 	35381
scalar tree_4_3_u02_r17_network.node[10].content_store 	p_hit[10] 	0.10482238639814
scalar tree_4_3_u02_r17_network.node[10].content_store 	hits[10] 	4143
scalar tree_4_3_u02_r17_network.node[10].content_store 	misses[10] 	35381
scalar tree_4_3_u02_r17_network.node[10].content_store 	decision_yes[10] 	616
scalar tree_4_3_u02_r17_network.node[10].content_store 	decision_no[10] 	34765
scalar tree_4_3_u02_r17_network.node[10].content_store 	decision_ratio[10] 	0.017410474548486
scalar tree_4_3_u02_r17_network.node[11].core_layer 	interests[11] 	36074
scalar tree_4_3_u02_r17_network.node[11].core_layer 	data[11] 	34194
scalar tree_4_3_u02_r17_network.node[11].content_store 	p_hit[11] 	0.052087375949437
scalar tree_4_3_u02_r17_network.node[11].content_store 	hits[11] 	1879
scalar tree_4_3_u02_r17_network.node[11].content_store 	misses[11] 	34195
scalar tree_4_3_u02_r17_network.node[11].content_store 	decision_yes[11] 	451
scalar tree_4_3_u02_r17_network.node[11].content_store 	decision_no[11] 	33743
scalar tree_4_3_u02_r17_network.node[11].content_store 	decision_ratio[11] 	0.013189448441247
scalar tree_4_3_u02_r17_network.node[12].core_layer 	interests[12] 	10765
scalar tree_4_3_u02_r17_network.node[12].core_layer 	data[12] 	8853
scalar tree_4_3_u02_r17_network.node[12].content_store 	p_hit[12] 	0.1776126335346
scalar tree_4_3_u02_r17_network.node[12].content_store 	hits[12] 	1912
scalar tree_4_3_u02_r17_network.node[12].content_store 	misses[12] 	8853
scalar tree_4_3_u02_r17_network.node[12].content_store 	decision_yes[12] 	144
scalar tree_4_3_u02_r17_network.node[12].content_store 	decision_no[12] 	8709
scalar tree_4_3_u02_r17_network.node[12].content_store 	decision_ratio[12] 	0.016265672653338
scalar tree_4_3_u02_r17_network.node[13].core_layer 	interests[13] 	12658
scalar tree_4_3_u02_r17_network.node[13].core_layer 	data[13] 	8984
scalar tree_4_3_u02_r17_network.node[13].content_store 	p_hit[13] 	0.29025122452204
scalar tree_4_3_u02_r17_network.node[13].content_store 	hits[13] 	3674
scalar tree_4_3_u02_r17_network.node[13].content_store 	misses[13] 	8984
scalar tree_4_3_u02_r17_network.node[13].content_store 	decision_yes[13] 	130
scalar tree_4_3_u02_r17_network.node[13].content_store 	decision_no[13] 	8854
scalar tree_4_3_u02_r17_network.node[13].content_store 	decision_ratio[13] 	0.014470169189671
scalar tree_4_3_u02_r17_network.node[14].core_layer 	interests[14] 	12480
scalar tree_4_3_u02_r17_network.node[14].core_layer 	data[14] 	8879
scalar tree_4_3_u02_r17_network.node[14].content_store 	p_hit[14] 	0.28862179487179
scalar tree_4_3_u02_r17_network.node[14].content_store 	hits[14] 	3602
scalar tree_4_3_u02_r17_network.node[14].content_store 	misses[14] 	8878
scalar tree_4_3_u02_r17_network.node[14].content_store 	decision_yes[14] 	124
scalar tree_4_3_u02_r17_network.node[14].content_store 	decision_no[14] 	8755
scalar tree_4_3_u02_r17_network.node[14].content_store 	decision_ratio[14] 	0.013965536659534
scalar tree_4_3_u02_r17_network.node[15].core_layer 	interests[15] 	12650
scalar tree_4_3_u02_r17_network.node[15].core_layer 	data[15] 	8960
scalar tree_4_3_u02_r17_network.node[15].content_store 	p_hit[15] 	0.29177865612648
scalar tree_4_3_u02_r17_network.node[15].content_store 	hits[15] 	3691
scalar tree_4_3_u02_r17_network.node[15].content_store 	misses[15] 	8959
scalar tree_4_3_u02_r17_network.node[15].content_store 	decision_yes[15] 	116
scalar tree_4_3_u02_r17_network.node[15].content_store 	decision_no[15] 	8844
scalar tree_4_3_u02_r17_network.node[15].content_store 	decision_ratio[15] 	0.012946428571429
scalar tree_4_3_u02_r17_network.node[16].core_layer 	interests[16] 	12299
scalar tree_4_3_u02_r17_network.node[16].core_layer 	data[16] 	8626
scalar tree_4_3_u02_r17_network.node[16].content_store 	p_hit[16] 	0.29864216602976
scalar tree_4_3_u02_r17_network.node[16].content_store 	hits[16] 	3673
scalar tree_4_3_u02_r17_network.node[16].content_store 	misses[16] 	8626
scalar tree_4_3_u02_r17_network.node[16].content_store 	decision_yes[16] 	110
scalar tree_4_3_u02_r17_network.node[16].content_store 	decision_no[16] 	8516
scalar tree_4_3_u02_r17_network.node[16].content_store 	decision_ratio[16] 	0.012752144678878
scalar tree_4_3_u02_r17_network.node[17].core_layer 	interests[17] 	12607
scalar tree_4_3_u02_r17_network.node[17].core_layer 	data[17] 	8985
scalar tree_4_3_u02_r17_network.node[17].content_store 	p_hit[17] 	0.28730070595701
scalar tree_4_3_u02_r17_network.node[17].content_store 	hits[17] 	3622
scalar tree_4_3_u02_r17_network.node[17].content_store 	misses[17] 	8985
scalar tree_4_3_u02_r17_network.node[17].content_store 	decision_yes[17] 	120
scalar tree_4_3_u02_r17_network.node[17].content_store 	decision_no[17] 	8865
scalar tree_4_3_u02_r17_network.node[17].content_store 	decision_ratio[17] 	0.013355592654424
scalar tree_4_3_u02_r17_network.node[18].core_layer 	interests[18] 	12584
scalar tree_4_3_u02_r17_network.node[18].core_layer 	data[18] 	8944
scalar tree_4_3_u02_r17_network.node[18].content_store 	p_hit[18] 	0.28925619834711
scalar tree_4_3_u02_r17_network.node[18].content_store 	hits[18] 	3640
scalar tree_4_3_u02_r17_network.node[18].content_store 	misses[18] 	8944
scalar tree_4_3_u02_r17_network.node[18].content_store 	decision_yes[18] 	122
scalar tree_4_3_u02_r17_network.node[18].content_store 	decision_no[18] 	8822
scalar tree_4_3_u02_r17_network.node[18].content_store 	decision_ratio[18] 	0.013640429338104
scalar tree_4_3_u02_r17_network.node[19].core_layer 	interests[19] 	12606
scalar tree_4_3_u02_r17_network.node[19].core_layer 	data[19] 	8937
scalar tree_4_3_u02_r17_network.node[19].content_store 	p_hit[19] 	0.29105188005712
scalar tree_4_3_u02_r17_network.node[19].content_store 	hits[19] 	3669
scalar tree_4_3_u02_r17_network.node[19].content_store 	misses[19] 	8937
scalar tree_4_3_u02_r17_network.node[19].content_store 	decision_yes[19] 	115
scalar tree_4_3_u02_r17_network.node[19].content_store 	decision_no[19] 	8822
scalar tree_4_3_u02_r17_network.node[19].content_store 	decision_ratio[19] 	0.012867852747007
scalar tree_4_3_u02_r17_network.node[20].core_layer 	interests[20] 	12682
scalar tree_4_3_u02_r17_network.node[20].core_layer 	data[20] 	9051
scalar tree_4_3_u02_r17_network.node[20].content_store 	p_hit[20] 	0.28631130736477
scalar tree_4_3_u02_r17_network.node[20].content_store 	hits[20] 	3631
scalar tree_4_3_u02_r17_network.node[20].content_store 	misses[20] 	9051
scalar tree_4_3_u02_r17_network.node[20].content_store 	decision_yes[20] 	121
scalar tree_4_3_u02_r17_network.node[20].content_store 	decision_no[20] 	8930
scalar tree_4_3_u02_r17_network.node[20].content_store 	decision_ratio[20] 	0.013368688542702
scalar tree_4_3_u02_r17_network.node[21].core_layer 	interests[21] 	12748
scalar tree_4_3_u02_r17_network.node[21].core_layer 	data[21] 	9016
scalar tree_4_3_u02_r17_network.node[21].content_store 	p_hit[21] 	0.29275180420458
scalar tree_4_3_u02_r17_network.node[21].content_store 	hits[21] 	3732
scalar tree_4_3_u02_r17_network.node[21].content_store 	misses[21] 	9016
scalar tree_4_3_u02_r17_network.node[21].content_store 	decision_yes[21] 	94
scalar tree_4_3_u02_r17_network.node[21].content_store 	decision_no[21] 	8922
scalar tree_4_3_u02_r17_network.node[21].content_store 	decision_ratio[21] 	0.010425909494232
scalar tree_4_3_u02_r17_network.node[22].core_layer 	interests[22] 	12863
scalar tree_4_3_u02_r17_network.node[22].core_layer 	data[22] 	9108
scalar tree_4_3_u02_r17_network.node[22].content_store 	p_hit[22] 	0.29192256860763
scalar tree_4_3_u02_r17_network.node[22].content_store 	hits[22] 	3755
scalar tree_4_3_u02_r17_network.node[22].content_store 	misses[22] 	9108
scalar tree_4_3_u02_r17_network.node[22].content_store 	decision_yes[22] 	117
scalar tree_4_3_u02_r17_network.node[22].content_store 	decision_no[22] 	8991
scalar tree_4_3_u02_r17_network.node[22].content_store 	decision_ratio[22] 	0.012845849802372
scalar tree_4_3_u02_r17_network.node[23].core_layer 	interests[23] 	12876
scalar tree_4_3_u02_r17_network.node[23].core_layer 	data[23] 	8940
scalar tree_4_3_u02_r17_network.node[23].content_store 	p_hit[23] 	0.30568499534017
scalar tree_4_3_u02_r17_network.node[23].content_store 	hits[23] 	3936
scalar tree_4_3_u02_r17_network.node[23].content_store 	misses[23] 	8940
scalar tree_4_3_u02_r17_network.node[23].content_store 	decision_yes[23] 	119
scalar tree_4_3_u02_r17_network.node[23].content_store 	decision_no[23] 	8821
scalar tree_4_3_u02_r17_network.node[23].content_store 	decision_ratio[23] 	0.01331096196868
scalar tree_4_3_u02_r17_network.node[24].core_layer 	interests[24] 	12871
scalar tree_4_3_u02_r17_network.node[24].core_layer 	data[24] 	8902
scalar tree_4_3_u02_r17_network.node[24].content_store 	p_hit[24] 	0.30836764820138
scalar tree_4_3_u02_r17_network.node[24].content_store 	hits[24] 	3969
scalar tree_4_3_u02_r17_network.node[24].content_store 	misses[24] 	8902
scalar tree_4_3_u02_r17_network.node[24].content_store 	decision_yes[24] 	93
scalar tree_4_3_u02_r17_network.node[24].content_store 	decision_no[24] 	8809
scalar tree_4_3_u02_r17_network.node[24].content_store 	decision_ratio[24] 	0.010447090541451
scalar tree_4_3_u02_r17_network.node[25].core_layer 	interests[25] 	13323
scalar tree_4_3_u02_r17_network.node[25].core_layer 	data[25] 	8982
scalar tree_4_3_u02_r17_network.node[25].content_store 	p_hit[25] 	0.32582751632515
scalar tree_4_3_u02_r17_network.node[25].content_store 	hits[25] 	4341
scalar tree_4_3_u02_r17_network.node[25].content_store 	misses[25] 	8982
scalar tree_4_3_u02_r17_network.node[25].content_store 	decision_yes[25] 	154
scalar tree_4_3_u02_r17_network.node[25].content_store 	decision_no[25] 	8828
scalar tree_4_3_u02_r17_network.node[25].content_store 	decision_ratio[25] 	0.017145401914941
scalar tree_4_3_u02_r17_network.node[26].core_layer 	interests[26] 	12445
scalar tree_4_3_u02_r17_network.node[26].core_layer 	data[26] 	8898
scalar tree_4_3_u02_r17_network.node[26].content_store 	p_hit[26] 	0.28501406187224
scalar tree_4_3_u02_r17_network.node[26].content_store 	hits[26] 	3547
scalar tree_4_3_u02_r17_network.node[26].content_store 	misses[26] 	8898
scalar tree_4_3_u02_r17_network.node[26].content_store 	decision_yes[26] 	106
scalar tree_4_3_u02_r17_network.node[26].content_store 	decision_no[26] 	8792
scalar tree_4_3_u02_r17_network.node[26].content_store 	decision_ratio[26] 	0.011912789390874
scalar tree_4_3_u02_r17_network.node[27].core_layer 	interests[27] 	12244
scalar tree_4_3_u02_r17_network.node[27].core_layer 	data[27] 	8847
scalar tree_4_3_u02_r17_network.node[27].content_store 	p_hit[27] 	0.27752368507024
scalar tree_4_3_u02_r17_network.node[27].content_store 	hits[27] 	3398
scalar tree_4_3_u02_r17_network.node[27].content_store 	misses[27] 	8846
scalar tree_4_3_u02_r17_network.node[27].content_store 	decision_yes[27] 	132
scalar tree_4_3_u02_r17_network.node[27].content_store 	decision_no[27] 	8715
scalar tree_4_3_u02_r17_network.node[27].content_store 	decision_ratio[27] 	0.014920311970159
scalar tree_4_3_u02_r17_network.node[28].core_layer 	interests[28] 	12326
scalar tree_4_3_u02_r17_network.node[28].core_layer 	data[28] 	8891
scalar tree_4_3_u02_r17_network.node[28].content_store 	p_hit[28] 	0.27859808534804
scalar tree_4_3_u02_r17_network.node[28].content_store 	hits[28] 	3434
scalar tree_4_3_u02_r17_network.node[28].content_store 	misses[28] 	8892
scalar tree_4_3_u02_r17_network.node[28].content_store 	decision_yes[28] 	116
scalar tree_4_3_u02_r17_network.node[28].content_store 	decision_no[28] 	8775
scalar tree_4_3_u02_r17_network.node[28].content_store 	decision_ratio[28] 	0.013046901360927
scalar tree_4_3_u02_r17_network.node[29].core_layer 	interests[29] 	12318
scalar tree_4_3_u02_r17_network.node[29].core_layer 	data[29] 	8778
scalar tree_4_3_u02_r17_network.node[29].content_store 	p_hit[29] 	0.28746549764572
scalar tree_4_3_u02_r17_network.node[29].content_store 	hits[29] 	3541
scalar tree_4_3_u02_r17_network.node[29].content_store 	misses[29] 	8777
scalar tree_4_3_u02_r17_network.node[29].content_store 	decision_yes[29] 	116
scalar tree_4_3_u02_r17_network.node[29].content_store 	decision_no[29] 	8662
scalar tree_4_3_u02_r17_network.node[29].content_store 	decision_ratio[29] 	0.013214855320118
scalar tree_4_3_u02_r17_network.node[30].core_layer 	interests[30] 	12602
scalar tree_4_3_u02_r17_network.node[30].core_layer 	data[30] 	9066
scalar tree_4_3_u02_r17_network.node[30].content_store 	p_hit[30] 	0.2806697349627
scalar tree_4_3_u02_r17_network.node[30].content_store 	hits[30] 	3537
scalar tree_4_3_u02_r17_network.node[30].content_store 	misses[30] 	9065
scalar tree_4_3_u02_r17_network.node[30].content_store 	decision_yes[30] 	125
scalar tree_4_3_u02_r17_network.node[30].content_store 	decision_no[30] 	8941
scalar tree_4_3_u02_r17_network.node[30].content_store 	decision_ratio[30] 	0.013787778513126
scalar tree_4_3_u02_r17_network.node[31].core_layer 	interests[31] 	12871
scalar tree_4_3_u02_r17_network.node[31].core_layer 	data[31] 	9057
scalar tree_4_3_u02_r17_network.node[31].content_store 	p_hit[31] 	0.29632507186699
scalar tree_4_3_u02_r17_network.node[31].content_store 	hits[31] 	3814
scalar tree_4_3_u02_r17_network.node[31].content_store 	misses[31] 	9057
scalar tree_4_3_u02_r17_network.node[31].content_store 	decision_yes[31] 	110
scalar tree_4_3_u02_r17_network.node[31].content_store 	decision_no[31] 	8947
scalar tree_4_3_u02_r17_network.node[31].content_store 	decision_ratio[31] 	0.012145301976372
scalar tree_4_3_u02_r17_network.node[32].core_layer 	interests[32] 	12719
scalar tree_4_3_u02_r17_network.node[32].core_layer 	data[32] 	9032
scalar tree_4_3_u02_r17_network.node[32].content_store 	p_hit[32] 	0.28988127997484
scalar tree_4_3_u02_r17_network.node[32].content_store 	hits[32] 	3687
scalar tree_4_3_u02_r17_network.node[32].content_store 	misses[32] 	9032
scalar tree_4_3_u02_r17_network.node[32].content_store 	decision_yes[32] 	116
scalar tree_4_3_u02_r17_network.node[32].content_store 	decision_no[32] 	8916
scalar tree_4_3_u02_r17_network.node[32].content_store 	decision_ratio[32] 	0.012843224092117
scalar tree_4_3_u02_r17_network.node[33].core_layer 	interests[33] 	12792
scalar tree_4_3_u02_r17_network.node[33].core_layer 	data[33] 	8914
scalar tree_4_3_u02_r17_network.node[33].content_store 	p_hit[33] 	0.30315822388993
scalar tree_4_3_u02_r17_network.node[33].content_store 	hits[33] 	3878
scalar tree_4_3_u02_r17_network.node[33].content_store 	misses[33] 	8914
scalar tree_4_3_u02_r17_network.node[33].content_store 	decision_yes[33] 	122
scalar tree_4_3_u02_r17_network.node[33].content_store 	decision_no[33] 	8792
scalar tree_4_3_u02_r17_network.node[33].content_store 	decision_ratio[33] 	0.013686336100516
scalar tree_4_3_u02_r17_network.node[34].core_layer 	interests[34] 	12627
scalar tree_4_3_u02_r17_network.node[34].core_layer 	data[34] 	9040
scalar tree_4_3_u02_r17_network.node[34].content_store 	p_hit[34] 	0.28407381008949
scalar tree_4_3_u02_r17_network.node[34].content_store 	hits[34] 	3587
scalar tree_4_3_u02_r17_network.node[34].content_store 	misses[34] 	9040
scalar tree_4_3_u02_r17_network.node[34].content_store 	decision_yes[34] 	118
scalar tree_4_3_u02_r17_network.node[34].content_store 	decision_no[34] 	8922
scalar tree_4_3_u02_r17_network.node[34].content_store 	decision_ratio[34] 	0.013053097345133
scalar tree_4_3_u02_r17_network.node[35].core_layer 	interests[35] 	12504
scalar tree_4_3_u02_r17_network.node[35].core_layer 	data[35] 	8921
scalar tree_4_3_u02_r17_network.node[35].content_store 	p_hit[35] 	0.28654830454255
scalar tree_4_3_u02_r17_network.node[35].content_store 	hits[35] 	3583
scalar tree_4_3_u02_r17_network.node[35].content_store 	misses[35] 	8921
scalar tree_4_3_u02_r17_network.node[35].content_store 	decision_yes[35] 	101
scalar tree_4_3_u02_r17_network.node[35].content_store 	decision_no[35] 	8820
scalar tree_4_3_u02_r17_network.node[35].content_store 	decision_ratio[35] 	0.011321600717408
scalar tree_4_3_u02_r17_network.node[36].core_layer 	interests[36] 	12456
scalar tree_4_3_u02_r17_network.node[36].core_layer 	data[36] 	8892
scalar tree_4_3_u02_r17_network.node[36].content_store 	p_hit[36] 	0.28604688503532
scalar tree_4_3_u02_r17_network.node[36].content_store 	hits[36] 	3563
scalar tree_4_3_u02_r17_network.node[36].content_store 	misses[36] 	8893
scalar tree_4_3_u02_r17_network.node[36].content_store 	decision_yes[36] 	109
scalar tree_4_3_u02_r17_network.node[36].content_store 	decision_no[36] 	8783
scalar tree_4_3_u02_r17_network.node[36].content_store 	decision_ratio[36] 	0.012258209626631
scalar tree_4_3_u02_r17_network.node[37].core_layer 	interests[37] 	13170
scalar tree_4_3_u02_r17_network.node[37].core_layer 	data[37] 	8925
scalar tree_4_3_u02_r17_network.node[37].content_store 	p_hit[37] 	0.32232346241458
scalar tree_4_3_u02_r17_network.node[37].content_store 	hits[37] 	4245
scalar tree_4_3_u02_r17_network.node[37].content_store 	misses[37] 	8925
scalar tree_4_3_u02_r17_network.node[37].content_store 	decision_yes[37] 	136
scalar tree_4_3_u02_r17_network.node[37].content_store 	decision_no[37] 	8789
scalar tree_4_3_u02_r17_network.node[37].content_store 	decision_ratio[37] 	0.015238095238095
scalar tree_4_3_u02_r17_network.node[38].core_layer 	interests[38] 	12916
scalar tree_4_3_u02_r17_network.node[38].core_layer 	data[38] 	8946
scalar tree_4_3_u02_r17_network.node[38].content_store 	p_hit[38] 	0.30737070300403
scalar tree_4_3_u02_r17_network.node[38].content_store 	hits[38] 	3970
scalar tree_4_3_u02_r17_network.node[38].content_store 	misses[38] 	8946
scalar tree_4_3_u02_r17_network.node[38].content_store 	decision_yes[38] 	135
scalar tree_4_3_u02_r17_network.node[38].content_store 	decision_no[38] 	8811
scalar tree_4_3_u02_r17_network.node[38].content_store 	decision_ratio[38] 	0.015090543259557
scalar tree_4_3_u02_r17_network.node[39].core_layer 	interests[39] 	12262
scalar tree_4_3_u02_r17_network.node[39].core_layer 	data[39] 	8898
scalar tree_4_3_u02_r17_network.node[39].content_store 	p_hit[39] 	0.27434350024466
scalar tree_4_3_u02_r17_network.node[39].content_store 	hits[39] 	3364
scalar tree_4_3_u02_r17_network.node[39].content_store 	misses[39] 	8898
scalar tree_4_3_u02_r17_network.node[39].content_store 	decision_yes[39] 	119
scalar tree_4_3_u02_r17_network.node[39].content_store 	decision_no[39] 	8779
scalar tree_4_3_u02_r17_network.node[39].content_store 	decision_ratio[39] 	0.01337379186334
scalar tree_4_3_u02_r17_network.client[13] 	hdistance[13] 	2.72
scalar tree_4_3_u02_r17_network.client[13] 	downloads[13] 	12075
scalar tree_4_3_u02_r17_network.client[13] 	avg_time[13] 	0.004286870708
scalar tree_4_3_u02_r17_network.client[14] 	hdistance[14] 	2.7340720221607
scalar tree_4_3_u02_r17_network.client[14] 	downloads[14] 	11913
scalar tree_4_3_u02_r17_network.client[14] 	avg_time[14] 	0.004294667722
scalar tree_4_3_u02_r17_network.client[15] 	hdistance[15] 	2.7242150608897
scalar tree_4_3_u02_r17_network.client[15] 	downloads[15] 	12071
scalar tree_4_3_u02_r17_network.client[15] 	avg_time[15] 	0.004288291253
scalar tree_4_3_u02_r17_network.client[16] 	hdistance[16] 	2.7072567579091
scalar tree_4_3_u02_r17_network.client[16] 	downloads[16] 	11727
scalar tree_4_3_u02_r17_network.client[16] 	avg_time[16] 	0.004258204631
scalar tree_4_3_u02_r17_network.client[17] 	hdistance[17] 	2.7490434203959
scalar tree_4_3_u02_r17_network.client[17] 	downloads[17] 	12022
scalar tree_4_3_u02_r17_network.client[17] 	avg_time[17] 	0.004322904969
scalar tree_4_3_u02_r17_network.client[18] 	hdistance[18] 	2.7335103293786
scalar tree_4_3_u02_r17_network.client[18] 	downloads[18] 	12053
scalar tree_4_3_u02_r17_network.client[18] 	avg_time[18] 	0.004297682203
scalar tree_4_3_u02_r17_network.client[19] 	hdistance[19] 	2.7144037682836
scalar tree_4_3_u02_r17_network.client[19] 	downloads[19] 	12101
scalar tree_4_3_u02_r17_network.client[19] 	avg_time[19] 	0.004272866988
scalar tree_4_3_u02_r17_network.client[20] 	hdistance[20] 	2.7546794765612
scalar tree_4_3_u02_r17_network.client[20] 	downloads[20] 	12074
scalar tree_4_3_u02_r17_network.client[20] 	avg_time[20] 	0.004332473015
scalar tree_4_3_u02_r17_network.client[21] 	hdistance[21] 	2.7324117501851
scalar tree_4_3_u02_r17_network.client[21] 	downloads[21] 	12153
scalar tree_4_3_u02_r17_network.client[21] 	avg_time[21] 	0.004294245274
scalar tree_4_3_u02_r17_network.client[22] 	hdistance[22] 	2.7167765078835
scalar tree_4_3_u02_r17_network.client[22] 	downloads[22] 	11987
scalar tree_4_3_u02_r17_network.client[22] 	avg_time[22] 	0.004298565066
scalar tree_4_3_u02_r17_network.client[23] 	hdistance[23] 	2.6846531767841
scalar tree_4_3_u02_r17_network.client[23] 	downloads[23] 	12009
scalar tree_4_3_u02_r17_network.client[23] 	avg_time[23] 	0.004236652814
scalar tree_4_3_u02_r17_network.client[24] 	hdistance[24] 	2.6671376329787
scalar tree_4_3_u02_r17_network.client[24] 	downloads[24] 	12032
scalar tree_4_3_u02_r17_network.client[24] 	avg_time[24] 	0.004211100701
scalar tree_4_3_u02_r17_network.client[25] 	hdistance[25] 	2.6450617283951
scalar tree_4_3_u02_r17_network.client[25] 	downloads[25] 	11988
scalar tree_4_3_u02_r17_network.client[25] 	avg_time[25] 	0.004163660673
scalar tree_4_3_u02_r17_network.client[26] 	hdistance[26] 	2.7345315994367
scalar tree_4_3_u02_r17_network.client[26] 	downloads[26] 	12073
scalar tree_4_3_u02_r17_network.client[26] 	avg_time[26] 	0.004234735661
scalar tree_4_3_u02_r17_network.client[27] 	hdistance[27] 	2.7526258297622
scalar tree_4_3_u02_r17_network.client[27] 	downloads[27] 	11901
scalar tree_4_3_u02_r17_network.client[27] 	avg_time[27] 	0.004261655737
scalar tree_4_3_u02_r17_network.client[28] 	hdistance[28] 	2.7782088041828
scalar tree_4_3_u02_r17_network.client[28] 	downloads[28] 	11858
scalar tree_4_3_u02_r17_network.client[28] 	avg_time[28] 	0.004307468785
scalar tree_4_3_u02_r17_network.client[29] 	hdistance[29] 	2.7551895117237
scalar tree_4_3_u02_r17_network.client[29] 	downloads[29] 	11899
scalar tree_4_3_u02_r17_network.client[29] 	avg_time[29] 	0.00426018695
scalar tree_4_3_u02_r17_network.client[30] 	hdistance[30] 	2.7451061029775
scalar tree_4_3_u02_r17_network.client[30] 	downloads[30] 	12158
scalar tree_4_3_u02_r17_network.client[30] 	avg_time[30] 	0.004259685457
scalar tree_4_3_u02_r17_network.client[31] 	hdistance[31] 	2.7151730992215
scalar tree_4_3_u02_r17_network.client[31] 	downloads[31] 	12074
scalar tree_4_3_u02_r17_network.client[31] 	avg_time[31] 	0.004295342342
scalar tree_4_3_u02_r17_network.client[32] 	hdistance[32] 	2.7366434622159
scalar tree_4_3_u02_r17_network.client[32] 	downloads[32] 	11923
scalar tree_4_3_u02_r17_network.client[32] 	avg_time[32] 	0.004323405561
scalar tree_4_3_u02_r17_network.client[33] 	hdistance[33] 	2.6706501754972
scalar tree_4_3_u02_r17_network.client[33] 	downloads[33] 	11966
scalar tree_4_3_u02_r17_network.client[33] 	avg_time[33] 	0.004227474853
scalar tree_4_3_u02_r17_network.client[34] 	hdistance[34] 	2.7353742057926
scalar tree_4_3_u02_r17_network.client[34] 	downloads[34] 	12119
scalar tree_4_3_u02_r17_network.client[34] 	avg_time[34] 	0.0042457268
scalar tree_4_3_u02_r17_network.client[35] 	hdistance[35] 	2.7311022311022
scalar tree_4_3_u02_r17_network.client[35] 	downloads[35] 	12012
scalar tree_4_3_u02_r17_network.client[35] 	avg_time[35] 	0.004244918756
scalar tree_4_3_u02_r17_network.client[36] 	hdistance[36] 	2.748179154458
scalar tree_4_3_u02_r17_network.client[36] 	downloads[36] 	11945
scalar tree_4_3_u02_r17_network.client[36] 	avg_time[36] 	0.004259017498
scalar tree_4_3_u02_r17_network.client[37] 	hdistance[37] 	2.6381469115192
scalar tree_4_3_u02_r17_network.client[37] 	downloads[37] 	11980
scalar tree_4_3_u02_r17_network.client[37] 	avg_time[37] 	0.004144738234
scalar tree_4_3_u02_r17_network.client[38] 	hdistance[38] 	2.671205743996
scalar tree_4_3_u02_r17_network.client[38] 	downloads[38] 	12117
scalar tree_4_3_u02_r17_network.client[38] 	avg_time[38] 	0.004113721459
scalar tree_4_3_u02_r17_network.client[39] 	hdistance[39] 	2.7320566194838
scalar tree_4_3_u02_r17_network.client[39] 	downloads[39] 	12010
scalar tree_4_3_u02_r17_network.client[39] 	avg_time[39] 	0.004239297572
