version 2
run General-11-20160830-14:39:26-31327
attr a 0.9
attr branch 3
attr cd wfc0.01
attr configname General
attr cr lru
attr datetime 20160830-14:39:26
attr experiment General
attr fsize 1
attr inifile hw5115/scenario_E/omnetp.ini
attr iterationvars "$name=tree, $levels=5, $branch=3, $un=10, $rep=1, $cd=wfc0.01, $cr=lru, $fsize=1, $a=0.9, $sl=nrr, $ttl=1000, $variance=0.05"
attr iterationvars2 "$name=tree, $levels=5, $branch=3, $un=10, $rep=1, $cd=wfc0.01, $cr=lru, $fsize=1, $a=0.9, $sl=nrr, $ttl=1000, $variance=0.05, $repetition=0"
attr levels 5
attr measurement "$name=tree, $levels=5, $branch=3, $un=10, $rep=1, $cd=wfc0.01, $cr=lru, $fsize=1, $a=0.9, $sl=nrr, $ttl=1000, $variance=0.05"
attr name tree
attr network networks.${name}_${levels}_${branch}_u${un}_r${rep}_network
attr processid 31327
attr rep 1
attr repetition 0
attr replication #0
attr resultdir results
attr runnumber 11
attr seedset 1
attr sl nrr
attr ttl 1000
attr un 10
attr variance 0.05

scalar . 	a 	0.9
scalar . 	branch 	3
scalar . 	fsize 	1
scalar . 	levels 	5
scalar . 	rep 	1
scalar . 	ttl 	1000
scalar . 	un 	10
scalar . 	variance 	0.05
scalar tree_5_3_u10_r1_network.content_distribution 	repo-0 	0
scalar tree_5_3_u10_r1_network.content_distribution 	client-0 	120
scalar tree_5_3_u10_r1_network.content_distribution 	client-1 	119
scalar tree_5_3_u10_r1_network.content_distribution 	client-2 	118
scalar tree_5_3_u10_r1_network.content_distribution 	client-3 	117
scalar tree_5_3_u10_r1_network.content_distribution 	client-4 	116
scalar tree_5_3_u10_r1_network.content_distribution 	client-5 	115
scalar tree_5_3_u10_r1_network.content_distribution 	client-6 	114
scalar tree_5_3_u10_r1_network.content_distribution 	client-7 	113
scalar tree_5_3_u10_r1_network.content_distribution 	client-8 	112
scalar tree_5_3_u10_r1_network.content_distribution 	client-9 	111
scalar tree_5_3_u10_r1_network.content_distribution 	client-10 	110
scalar tree_5_3_u10_r1_network.content_distribution 	client-11 	109
scalar tree_5_3_u10_r1_network.content_distribution 	client-12 	108
scalar tree_5_3_u10_r1_network.content_distribution 	client-13 	107
scalar tree_5_3_u10_r1_network.content_distribution 	client-14 	106
scalar tree_5_3_u10_r1_network.content_distribution 	client-15 	105
scalar tree_5_3_u10_r1_network.content_distribution 	client-16 	104
scalar tree_5_3_u10_r1_network.content_distribution 	client-17 	103
scalar tree_5_3_u10_r1_network.content_distribution 	client-18 	102
scalar tree_5_3_u10_r1_network.content_distribution 	client-19 	101
scalar tree_5_3_u10_r1_network.content_distribution 	client-20 	100
scalar tree_5_3_u10_r1_network.content_distribution 	client-21 	99
scalar tree_5_3_u10_r1_network.content_distribution 	client-22 	98
scalar tree_5_3_u10_r1_network.content_distribution 	client-23 	97
scalar tree_5_3_u10_r1_network.content_distribution 	client-24 	96
scalar tree_5_3_u10_r1_network.content_distribution 	client-25 	95
scalar tree_5_3_u10_r1_network.content_distribution 	client-26 	94
scalar tree_5_3_u10_r1_network.content_distribution 	client-27 	93
scalar tree_5_3_u10_r1_network.content_distribution 	client-28 	92
scalar tree_5_3_u10_r1_network.content_distribution 	client-29 	91
scalar tree_5_3_u10_r1_network.content_distribution 	client-30 	90
scalar tree_5_3_u10_r1_network.content_distribution 	client-31 	89
scalar tree_5_3_u10_r1_network.content_distribution 	client-32 	88
scalar tree_5_3_u10_r1_network.content_distribution 	client-33 	87
scalar tree_5_3_u10_r1_network.content_distribution 	client-34 	86
scalar tree_5_3_u10_r1_network.content_distribution 	client-35 	85
scalar tree_5_3_u10_r1_network.content_distribution 	client-36 	84
scalar tree_5_3_u10_r1_network.content_distribution 	client-37 	83
scalar tree_5_3_u10_r1_network.content_distribution 	client-38 	82
scalar tree_5_3_u10_r1_network.content_distribution 	client-39 	81
scalar tree_5_3_u10_r1_network.content_distribution 	client-40 	80
scalar tree_5_3_u10_r1_network.content_distribution 	client-41 	79
scalar tree_5_3_u10_r1_network.content_distribution 	client-42 	78
scalar tree_5_3_u10_r1_network.content_distribution 	client-43 	77
scalar tree_5_3_u10_r1_network.content_distribution 	client-44 	76
scalar tree_5_3_u10_r1_network.content_distribution 	client-45 	75
scalar tree_5_3_u10_r1_network.content_distribution 	client-46 	74
scalar tree_5_3_u10_r1_network.content_distribution 	client-47 	73
scalar tree_5_3_u10_r1_network.content_distribution 	client-48 	72
scalar tree_5_3_u10_r1_network.content_distribution 	client-49 	71
scalar tree_5_3_u10_r1_network.content_distribution 	client-50 	70
scalar tree_5_3_u10_r1_network.content_distribution 	client-51 	69
scalar tree_5_3_u10_r1_network.content_distribution 	client-52 	68
scalar tree_5_3_u10_r1_network.content_distribution 	client-53 	67
scalar tree_5_3_u10_r1_network.content_distribution 	client-54 	66
scalar tree_5_3_u10_r1_network.content_distribution 	client-55 	65
scalar tree_5_3_u10_r1_network.content_distribution 	client-56 	64
scalar tree_5_3_u10_r1_network.content_distribution 	client-57 	63
scalar tree_5_3_u10_r1_network.content_distribution 	client-58 	62
scalar tree_5_3_u10_r1_network.content_distribution 	client-59 	61
scalar tree_5_3_u10_r1_network.content_distribution 	client-60 	60
scalar tree_5_3_u10_r1_network.content_distribution 	client-61 	59
scalar tree_5_3_u10_r1_network.content_distribution 	client-62 	58
scalar tree_5_3_u10_r1_network.content_distribution 	client-63 	57
scalar tree_5_3_u10_r1_network.content_distribution 	client-64 	56
scalar tree_5_3_u10_r1_network.content_distribution 	client-65 	55
scalar tree_5_3_u10_r1_network.content_distribution 	client-66 	54
scalar tree_5_3_u10_r1_network.content_distribution 	client-67 	53
scalar tree_5_3_u10_r1_network.content_distribution 	client-68 	52
scalar tree_5_3_u10_r1_network.content_distribution 	client-69 	51
scalar tree_5_3_u10_r1_network.content_distribution 	client-70 	50
scalar tree_5_3_u10_r1_network.content_distribution 	client-71 	49
scalar tree_5_3_u10_r1_network.content_distribution 	client-72 	48
scalar tree_5_3_u10_r1_network.content_distribution 	client-73 	47
scalar tree_5_3_u10_r1_network.content_distribution 	client-74 	46
scalar tree_5_3_u10_r1_network.content_distribution 	client-75 	45
scalar tree_5_3_u10_r1_network.content_distribution 	client-76 	44
scalar tree_5_3_u10_r1_network.content_distribution 	client-77 	43
scalar tree_5_3_u10_r1_network.content_distribution 	client-78 	42
scalar tree_5_3_u10_r1_network.content_distribution 	client-79 	41
scalar tree_5_3_u10_r1_network.content_distribution 	client-80 	40
scalar tree_5_3_u10_r1_network.content_distribution 	repo-0_card 	100000
scalar tree_5_3_u10_r1_network.content_distribution 	repo-0_price 	0
scalar tree_5_3_u10_r1_network.statistics 	stabilization_time 	1091
scalar tree_5_3_u10_r1_network.statistics 	p_hit 	0.25190370990548
scalar tree_5_3_u10_r1_network.statistics 	interests 	29361.727272727
scalar tree_5_3_u10_r1_network.statistics 	data 	21333.371900826
scalar tree_5_3_u10_r1_network.statistics 	hdistance 	3.1586291729882
scalar tree_5_3_u10_r1_network.statistics 	avg_time 	0.005314513722
scalar tree_5_3_u10_r1_network.statistics 	downloads 	971425
scalar tree_5_3_u10_r1_network.statistics 	total_cost 	0
scalar tree_5_3_u10_r1_network.statistics 	total_replicas 	100000
scalar tree_5_3_u10_r1_network.statistics 	inner_hit 	0.49870139228453
scalar tree_5_3_u10_r1_network.node[0].core_layer 	interests[0] 	490119
scalar tree_5_3_u10_r1_network.node[0].core_layer 	repo_load[0] 	486974
scalar tree_5_3_u10_r1_network.node[0].core_layer 	data[0] 	0
scalar tree_5_3_u10_r1_network.node[0].core_layer 	repo_int[0] 	486974
scalar tree_5_3_u10_r1_network.node[0].content_store 	p_hit[0] 	0.0064168089790439
scalar tree_5_3_u10_r1_network.node[0].content_store 	hits[0] 	3145
scalar tree_5_3_u10_r1_network.node[0].content_store 	misses[0] 	486974
scalar tree_5_3_u10_r1_network.node[0].content_store 	decision_yes[0] 	6417
scalar tree_5_3_u10_r1_network.node[0].content_store 	decision_no[0] 	480557
scalar tree_5_3_u10_r1_network.node[0].content_store 	decision_ratio[0] 	0.01317729488638
scalar tree_5_3_u10_r1_network.node[1].core_layer 	interests[1] 	421527
scalar tree_5_3_u10_r1_network.node[1].core_layer 	data[1] 	418730
scalar tree_5_3_u10_r1_network.node[1].content_store 	p_hit[1] 	0.0066021868112837
scalar tree_5_3_u10_r1_network.node[1].content_store 	hits[1] 	2783
scalar tree_5_3_u10_r1_network.node[1].content_store 	misses[1] 	418744
scalar tree_5_3_u10_r1_network.node[1].content_store 	decision_yes[1] 	4444
scalar tree_5_3_u10_r1_network.node[1].content_store 	decision_no[1] 	414284
scalar tree_5_3_u10_r1_network.node[1].content_store 	decision_ratio[1] 	0.010613094896926
scalar tree_5_3_u10_r1_network.node[2].core_layer 	interests[2] 	110694
scalar tree_5_3_u10_r1_network.node[2].core_layer 	data[2] 	104954
scalar tree_5_3_u10_r1_network.node[2].content_store 	p_hit[2] 	0.051836594576038
scalar tree_5_3_u10_r1_network.node[2].content_store 	hits[2] 	5738
scalar tree_5_3_u10_r1_network.node[2].content_store 	misses[2] 	104956
scalar tree_5_3_u10_r1_network.node[2].content_store 	decision_yes[2] 	1264
scalar tree_5_3_u10_r1_network.node[2].content_store 	decision_no[2] 	103690
scalar tree_5_3_u10_r1_network.node[2].content_store 	decision_ratio[2] 	0.012043371381748
scalar tree_5_3_u10_r1_network.node[3].core_layer 	interests[3] 	19867
scalar tree_5_3_u10_r1_network.node[3].core_layer 	data[3] 	13232
scalar tree_5_3_u10_r1_network.node[3].content_store 	p_hit[3] 	0.33397090652841
scalar tree_5_3_u10_r1_network.node[3].content_store 	hits[3] 	6635
scalar tree_5_3_u10_r1_network.node[3].content_store 	misses[3] 	13232
scalar tree_5_3_u10_r1_network.node[3].content_store 	decision_yes[3] 	759
scalar tree_5_3_u10_r1_network.node[3].content_store 	decision_no[3] 	12473
scalar tree_5_3_u10_r1_network.node[3].content_store 	decision_ratio[3] 	0.057360943168077
scalar tree_5_3_u10_r1_network.node[4].core_layer 	interests[4] 	138273
scalar tree_5_3_u10_r1_network.node[4].core_layer 	data[4] 	134170
scalar tree_5_3_u10_r1_network.node[4].content_store 	p_hit[4] 	0.029622558272403
scalar tree_5_3_u10_r1_network.node[4].content_store 	hits[4] 	4096
scalar tree_5_3_u10_r1_network.node[4].content_store 	misses[4] 	134177
scalar tree_5_3_u10_r1_network.node[4].content_store 	decision_yes[4] 	1619
scalar tree_5_3_u10_r1_network.node[4].content_store 	decision_no[4] 	132551
scalar tree_5_3_u10_r1_network.node[4].content_store 	decision_ratio[4] 	0.012066780949542
scalar tree_5_3_u10_r1_network.node[5].core_layer 	interests[5] 	65006
scalar tree_5_3_u10_r1_network.node[5].core_layer 	data[5] 	58573
scalar tree_5_3_u10_r1_network.node[5].content_store 	p_hit[5] 	0.098975479186537
scalar tree_5_3_u10_r1_network.node[5].content_store 	hits[5] 	6434
scalar tree_5_3_u10_r1_network.node[5].content_store 	misses[5] 	58572
scalar tree_5_3_u10_r1_network.node[5].content_store 	decision_yes[5] 	1103
scalar tree_5_3_u10_r1_network.node[5].content_store 	decision_no[5] 	57470
scalar tree_5_3_u10_r1_network.node[5].content_store 	decision_ratio[5] 	0.0188312020897
scalar tree_5_3_u10_r1_network.node[6].core_layer 	interests[6] 	21450
scalar tree_5_3_u10_r1_network.node[6].core_layer 	data[6] 	14796
scalar tree_5_3_u10_r1_network.node[6].content_store 	p_hit[6] 	0.31020979020979
scalar tree_5_3_u10_r1_network.node[6].content_store 	hits[6] 	6654
scalar tree_5_3_u10_r1_network.node[6].content_store 	misses[6] 	14796
scalar tree_5_3_u10_r1_network.node[6].content_store 	decision_yes[6] 	901
scalar tree_5_3_u10_r1_network.node[6].content_store 	decision_no[6] 	13895
scalar tree_5_3_u10_r1_network.node[6].content_store 	decision_ratio[6] 	0.060894836442282
scalar tree_5_3_u10_r1_network.node[7].core_layer 	interests[7] 	146813
scalar tree_5_3_u10_r1_network.node[7].core_layer 	data[7] 	141306
scalar tree_5_3_u10_r1_network.node[7].content_store 	p_hit[7] 	0.037496679449368
scalar tree_5_3_u10_r1_network.node[7].content_store 	hits[7] 	5505
scalar tree_5_3_u10_r1_network.node[7].content_store 	misses[7] 	141308
scalar tree_5_3_u10_r1_network.node[7].content_store 	decision_yes[7] 	1850
scalar tree_5_3_u10_r1_network.node[7].content_store 	decision_no[7] 	139455
scalar tree_5_3_u10_r1_network.node[7].content_store 	decision_ratio[7] 	0.013092247266551
scalar tree_5_3_u10_r1_network.node[8].core_layer 	interests[8] 	57682
scalar tree_5_3_u10_r1_network.node[8].core_layer 	data[8] 	53026
scalar tree_5_3_u10_r1_network.node[8].content_store 	p_hit[8] 	0.080735758122118
scalar tree_5_3_u10_r1_network.node[8].content_store 	hits[8] 	4657
scalar tree_5_3_u10_r1_network.node[8].content_store 	misses[8] 	53025
scalar tree_5_3_u10_r1_network.node[8].content_store 	decision_yes[8] 	840
scalar tree_5_3_u10_r1_network.node[8].content_store 	decision_no[8] 	52186
scalar tree_5_3_u10_r1_network.node[8].content_store 	decision_ratio[8] 	0.015841285407159
scalar tree_5_3_u10_r1_network.node[9].core_layer 	interests[9] 	21212
scalar tree_5_3_u10_r1_network.node[9].core_layer 	data[9] 	15052
scalar tree_5_3_u10_r1_network.node[9].content_store 	p_hit[9] 	0.29035451631152
scalar tree_5_3_u10_r1_network.node[9].content_store 	hits[9] 	6159
scalar tree_5_3_u10_r1_network.node[9].content_store 	misses[9] 	15053
scalar tree_5_3_u10_r1_network.node[9].content_store 	decision_yes[9] 	931
scalar tree_5_3_u10_r1_network.node[9].content_store 	decision_no[9] 	14121
scalar tree_5_3_u10_r1_network.node[9].content_store 	decision_ratio[9] 	0.061852245548764
scalar tree_5_3_u10_r1_network.node[10].core_layer 	interests[10] 	145454
scalar tree_5_3_u10_r1_network.node[10].core_layer 	data[10] 	139988
scalar tree_5_3_u10_r1_network.node[10].content_store 	p_hit[10] 	0.037558265843497
scalar tree_5_3_u10_r1_network.node[10].content_store 	hits[10] 	5463
scalar tree_5_3_u10_r1_network.node[10].content_store 	misses[10] 	139991
scalar tree_5_3_u10_r1_network.node[10].content_store 	decision_yes[10] 	1815
scalar tree_5_3_u10_r1_network.node[10].content_store 	decision_no[10] 	138172
scalar tree_5_3_u10_r1_network.node[10].content_store 	decision_ratio[10] 	0.012965489652611
scalar tree_5_3_u10_r1_network.node[11].core_layer 	interests[11] 	63100
scalar tree_5_3_u10_r1_network.node[11].core_layer 	data[11] 	57656
scalar tree_5_3_u10_r1_network.node[11].content_store 	p_hit[11] 	0.086275752773376
scalar tree_5_3_u10_r1_network.node[11].content_store 	hits[11] 	5444
scalar tree_5_3_u10_r1_network.node[11].content_store 	misses[11] 	57656
scalar tree_5_3_u10_r1_network.node[11].content_store 	decision_yes[11] 	952
scalar tree_5_3_u10_r1_network.node[11].content_store 	decision_no[11] 	56704
scalar tree_5_3_u10_r1_network.node[11].content_store 	decision_ratio[11] 	0.016511724712085
scalar tree_5_3_u10_r1_network.node[12].core_layer 	interests[12] 	15262
scalar tree_5_3_u10_r1_network.node[12].core_layer 	data[12] 	10563
scalar tree_5_3_u10_r1_network.node[12].content_store 	p_hit[12] 	0.3078888743284
scalar tree_5_3_u10_r1_network.node[12].content_store 	hits[12] 	4699
scalar tree_5_3_u10_r1_network.node[12].content_store 	misses[12] 	10563
scalar tree_5_3_u10_r1_network.node[12].content_store 	decision_yes[12] 	437
scalar tree_5_3_u10_r1_network.node[12].content_store 	decision_no[12] 	10126
scalar tree_5_3_u10_r1_network.node[12].content_store 	decision_ratio[12] 	0.04137082268295
scalar tree_5_3_u10_r1_network.node[13].core_layer 	interests[13] 	41450
scalar tree_5_3_u10_r1_network.node[13].core_layer 	data[13] 	38608
scalar tree_5_3_u10_r1_network.node[13].content_store 	p_hit[13] 	0.068564535585042
scalar tree_5_3_u10_r1_network.node[13].content_store 	hits[13] 	2842
scalar tree_5_3_u10_r1_network.node[13].content_store 	misses[13] 	38608
scalar tree_5_3_u10_r1_network.node[13].content_store 	decision_yes[13] 	566
scalar tree_5_3_u10_r1_network.node[13].content_store 	decision_no[13] 	38042
scalar tree_5_3_u10_r1_network.node[13].content_store 	decision_ratio[13] 	0.01466017405719
scalar tree_5_3_u10_r1_network.node[14].core_layer 	interests[14] 	31005
scalar tree_5_3_u10_r1_network.node[14].core_layer 	data[14] 	26607
scalar tree_5_3_u10_r1_network.node[14].content_store 	p_hit[14] 	0.1418480890179
scalar tree_5_3_u10_r1_network.node[14].content_store 	hits[14] 	4398
scalar tree_5_3_u10_r1_network.node[14].content_store 	misses[14] 	26607
scalar tree_5_3_u10_r1_network.node[14].content_store 	decision_yes[14] 	461
scalar tree_5_3_u10_r1_network.node[14].content_store 	decision_no[14] 	26146
scalar tree_5_3_u10_r1_network.node[14].content_store 	decision_ratio[14] 	0.017326267523584
scalar tree_5_3_u10_r1_network.node[15].core_layer 	interests[15] 	16232
scalar tree_5_3_u10_r1_network.node[15].core_layer 	data[15] 	11996
scalar tree_5_3_u10_r1_network.node[15].content_store 	p_hit[15] 	0.26096599310005
scalar tree_5_3_u10_r1_network.node[15].content_store 	hits[15] 	4236
scalar tree_5_3_u10_r1_network.node[15].content_store 	misses[15] 	11996
scalar tree_5_3_u10_r1_network.node[15].content_store 	decision_yes[15] 	438
scalar tree_5_3_u10_r1_network.node[15].content_store 	decision_no[15] 	11558
scalar tree_5_3_u10_r1_network.node[15].content_store 	decision_ratio[15] 	0.036512170723575
scalar tree_5_3_u10_r1_network.node[16].core_layer 	interests[16] 	45663
scalar tree_5_3_u10_r1_network.node[16].core_layer 	data[16] 	41317
scalar tree_5_3_u10_r1_network.node[16].content_store 	p_hit[16] 	0.095175525042157
scalar tree_5_3_u10_r1_network.node[16].content_store 	hits[16] 	4346
scalar tree_5_3_u10_r1_network.node[16].content_store 	misses[16] 	41317
scalar tree_5_3_u10_r1_network.node[16].content_store 	decision_yes[16] 	632
scalar tree_5_3_u10_r1_network.node[16].content_store 	decision_no[16] 	40685
scalar tree_5_3_u10_r1_network.node[16].content_store 	decision_ratio[16] 	0.015296367112811
scalar tree_5_3_u10_r1_network.node[17].core_layer 	interests[17] 	27119
scalar tree_5_3_u10_r1_network.node[17].core_layer 	data[17] 	24092
scalar tree_5_3_u10_r1_network.node[17].content_store 	p_hit[17] 	0.1115822854825
scalar tree_5_3_u10_r1_network.node[17].content_store 	hits[17] 	3026
scalar tree_5_3_u10_r1_network.node[17].content_store 	misses[17] 	24093
scalar tree_5_3_u10_r1_network.node[17].content_store 	decision_yes[17] 	404
scalar tree_5_3_u10_r1_network.node[17].content_store 	decision_no[17] 	23688
scalar tree_5_3_u10_r1_network.node[17].content_store 	decision_ratio[17] 	0.016769051967458
scalar tree_5_3_u10_r1_network.node[18].core_layer 	interests[18] 	15405
scalar tree_5_3_u10_r1_network.node[18].core_layer 	data[18] 	11478
scalar tree_5_3_u10_r1_network.node[18].content_store 	p_hit[18] 	0.25498214865303
scalar tree_5_3_u10_r1_network.node[18].content_store 	hits[18] 	3928
scalar tree_5_3_u10_r1_network.node[18].content_store 	misses[18] 	11477
scalar tree_5_3_u10_r1_network.node[18].content_store 	decision_yes[18] 	430
scalar tree_5_3_u10_r1_network.node[18].content_store 	decision_no[18] 	11048
scalar tree_5_3_u10_r1_network.node[18].content_store 	decision_ratio[18] 	0.037462972643318
scalar tree_5_3_u10_r1_network.node[19].core_layer 	interests[19] 	44863
scalar tree_5_3_u10_r1_network.node[19].core_layer 	data[19] 	41003
scalar tree_5_3_u10_r1_network.node[19].content_store 	p_hit[19] 	0.086017430845017
scalar tree_5_3_u10_r1_network.node[19].content_store 	hits[19] 	3859
scalar tree_5_3_u10_r1_network.node[19].content_store 	misses[19] 	41004
scalar tree_5_3_u10_r1_network.node[19].content_store 	decision_yes[19] 	604
scalar tree_5_3_u10_r1_network.node[19].content_store 	decision_no[19] 	40399
scalar tree_5_3_u10_r1_network.node[19].content_store 	decision_ratio[19] 	0.014730629466137
scalar tree_5_3_u10_r1_network.node[20].core_layer 	interests[20] 	31014
scalar tree_5_3_u10_r1_network.node[20].core_layer 	data[20] 	27175
scalar tree_5_3_u10_r1_network.node[20].content_store 	p_hit[20] 	0.12368607725543
scalar tree_5_3_u10_r1_network.node[20].content_store 	hits[20] 	3836
scalar tree_5_3_u10_r1_network.node[20].content_store 	misses[20] 	27178
scalar tree_5_3_u10_r1_network.node[20].content_store 	decision_yes[20] 	524
scalar tree_5_3_u10_r1_network.node[20].content_store 	decision_no[20] 	26651
scalar tree_5_3_u10_r1_network.node[20].content_store 	decision_ratio[20] 	0.019282428702852
scalar tree_5_3_u10_r1_network.node[21].core_layer 	interests[21] 	12377
scalar tree_5_3_u10_r1_network.node[21].core_layer 	data[21] 	9359
scalar tree_5_3_u10_r1_network.node[21].content_store 	p_hit[21] 	0.24383937949422
scalar tree_5_3_u10_r1_network.node[21].content_store 	hits[21] 	3018
scalar tree_5_3_u10_r1_network.node[21].content_store 	misses[21] 	9359
scalar tree_5_3_u10_r1_network.node[21].content_store 	decision_yes[21] 	284
scalar tree_5_3_u10_r1_network.node[21].content_store 	decision_no[21] 	9075
scalar tree_5_3_u10_r1_network.node[21].content_store 	decision_ratio[21] 	0.030345122342131
scalar tree_5_3_u10_r1_network.node[22].core_layer 	interests[22] 	43029
scalar tree_5_3_u10_r1_network.node[22].core_layer 	data[22] 	39603
scalar tree_5_3_u10_r1_network.node[22].content_store 	p_hit[22] 	0.079597480768784
scalar tree_5_3_u10_r1_network.node[22].content_store 	hits[22] 	3425
scalar tree_5_3_u10_r1_network.node[22].content_store 	misses[22] 	39604
scalar tree_5_3_u10_r1_network.node[22].content_store 	decision_yes[22] 	568
scalar tree_5_3_u10_r1_network.node[22].content_store 	decision_no[22] 	39035
scalar tree_5_3_u10_r1_network.node[22].content_store 	decision_ratio[22] 	0.014342347801934
scalar tree_5_3_u10_r1_network.node[23].core_layer 	interests[23] 	30891
scalar tree_5_3_u10_r1_network.node[23].core_layer 	data[23] 	26495
scalar tree_5_3_u10_r1_network.node[23].content_store 	p_hit[23] 	0.1422744488686
scalar tree_5_3_u10_r1_network.node[23].content_store 	hits[23] 	4395
scalar tree_5_3_u10_r1_network.node[23].content_store 	misses[23] 	26496
scalar tree_5_3_u10_r1_network.node[23].content_store 	decision_yes[23] 	499
scalar tree_5_3_u10_r1_network.node[23].content_store 	decision_no[23] 	25996
scalar tree_5_3_u10_r1_network.node[23].content_store 	decision_ratio[23] 	0.018833742215512
scalar tree_5_3_u10_r1_network.node[24].core_layer 	interests[24] 	16241
scalar tree_5_3_u10_r1_network.node[24].core_layer 	data[24] 	11852
scalar tree_5_3_u10_r1_network.node[24].content_store 	p_hit[24] 	0.27018040761037
scalar tree_5_3_u10_r1_network.node[24].content_store 	hits[24] 	4388
scalar tree_5_3_u10_r1_network.node[24].content_store 	misses[24] 	11853
scalar tree_5_3_u10_r1_network.node[24].content_store 	decision_yes[24] 	458
scalar tree_5_3_u10_r1_network.node[24].content_store 	decision_no[24] 	11394
scalar tree_5_3_u10_r1_network.node[24].content_store 	decision_ratio[24] 	0.038643266959163
scalar tree_5_3_u10_r1_network.node[25].core_layer 	interests[25] 	45295
scalar tree_5_3_u10_r1_network.node[25].core_layer 	data[25] 	41254
scalar tree_5_3_u10_r1_network.node[25].content_store 	p_hit[25] 	0.089170990175516
scalar tree_5_3_u10_r1_network.node[25].content_store 	hits[25] 	4039
scalar tree_5_3_u10_r1_network.node[25].content_store 	misses[25] 	41256
scalar tree_5_3_u10_r1_network.node[25].content_store 	decision_yes[25] 	646
scalar tree_5_3_u10_r1_network.node[25].content_store 	decision_no[25] 	40608
scalar tree_5_3_u10_r1_network.node[25].content_store 	decision_ratio[25] 	0.015659087603626
scalar tree_5_3_u10_r1_network.node[26].core_layer 	interests[26] 	26938
scalar tree_5_3_u10_r1_network.node[26].core_layer 	data[26] 	24165
scalar tree_5_3_u10_r1_network.node[26].content_store 	p_hit[26] 	0.10297720691959
scalar tree_5_3_u10_r1_network.node[26].content_store 	hits[26] 	2774
scalar tree_5_3_u10_r1_network.node[26].content_store 	misses[26] 	24164
scalar tree_5_3_u10_r1_network.node[26].content_store 	decision_yes[26] 	425
scalar tree_5_3_u10_r1_network.node[26].content_store 	decision_no[26] 	23740
scalar tree_5_3_u10_r1_network.node[26].content_store 	decision_ratio[26] 	0.017587419822057
scalar tree_5_3_u10_r1_network.node[27].core_layer 	interests[27] 	16322
scalar tree_5_3_u10_r1_network.node[27].core_layer 	data[27] 	12152
scalar tree_5_3_u10_r1_network.node[27].content_store 	p_hit[27] 	0.25548339664257
scalar tree_5_3_u10_r1_network.node[27].content_store 	hits[27] 	4170
scalar tree_5_3_u10_r1_network.node[27].content_store 	misses[27] 	12152
scalar tree_5_3_u10_r1_network.node[27].content_store 	decision_yes[27] 	431
scalar tree_5_3_u10_r1_network.node[27].content_store 	decision_no[27] 	11721
scalar tree_5_3_u10_r1_network.node[27].content_store 	decision_ratio[27] 	0.03546741277156
scalar tree_5_3_u10_r1_network.node[28].core_layer 	interests[28] 	45896
scalar tree_5_3_u10_r1_network.node[28].core_layer 	data[28] 	41849
scalar tree_5_3_u10_r1_network.node[28].content_store 	p_hit[28] 	0.088199407355761
scalar tree_5_3_u10_r1_network.node[28].content_store 	hits[28] 	4048
scalar tree_5_3_u10_r1_network.node[28].content_store 	misses[28] 	41848
scalar tree_5_3_u10_r1_network.node[28].content_store 	decision_yes[28] 	642
scalar tree_5_3_u10_r1_network.node[28].content_store 	decision_no[28] 	41207
scalar tree_5_3_u10_r1_network.node[28].content_store 	decision_ratio[28] 	0.015340868360056
scalar tree_5_3_u10_r1_network.node[29].core_layer 	interests[29] 	30280
scalar tree_5_3_u10_r1_network.node[29].core_layer 	data[29] 	26430
scalar tree_5_3_u10_r1_network.node[29].content_store 	p_hit[29] 	0.12714663143989
scalar tree_5_3_u10_r1_network.node[29].content_store 	hits[29] 	3850
scalar tree_5_3_u10_r1_network.node[29].content_store 	misses[29] 	26430
scalar tree_5_3_u10_r1_network.node[29].content_store 	decision_yes[29] 	481
scalar tree_5_3_u10_r1_network.node[29].content_store 	decision_no[29] 	25949
scalar tree_5_3_u10_r1_network.node[29].content_store 	decision_ratio[29] 	0.018199016269391
scalar tree_5_3_u10_r1_network.node[30].core_layer 	interests[30] 	12283
scalar tree_5_3_u10_r1_network.node[30].core_layer 	data[30] 	9346
scalar tree_5_3_u10_r1_network.node[30].content_store 	p_hit[30] 	0.23911096637629
scalar tree_5_3_u10_r1_network.node[30].content_store 	hits[30] 	2937
scalar tree_5_3_u10_r1_network.node[30].content_store 	misses[30] 	9346
scalar tree_5_3_u10_r1_network.node[30].content_store 	decision_yes[30] 	289
scalar tree_5_3_u10_r1_network.node[30].content_store 	decision_no[30] 	9057
scalar tree_5_3_u10_r1_network.node[30].content_store 	decision_ratio[30] 	0.030922319708966
scalar tree_5_3_u10_r1_network.node[31].core_layer 	interests[31] 	42874
scalar tree_5_3_u10_r1_network.node[31].core_layer 	data[31] 	39623
scalar tree_5_3_u10_r1_network.node[31].content_store 	p_hit[31] 	0.075826841442366
scalar tree_5_3_u10_r1_network.node[31].content_store 	hits[31] 	3251
scalar tree_5_3_u10_r1_network.node[31].content_store 	misses[31] 	39623
scalar tree_5_3_u10_r1_network.node[31].content_store 	decision_yes[31] 	538
scalar tree_5_3_u10_r1_network.node[31].content_store 	decision_no[31] 	39085
scalar tree_5_3_u10_r1_network.node[31].content_store 	decision_ratio[31] 	0.013577972389774
scalar tree_5_3_u10_r1_network.node[32].core_layer 	interests[32] 	31020
scalar tree_5_3_u10_r1_network.node[32].core_layer 	data[32] 	26623
scalar tree_5_3_u10_r1_network.node[32].content_store 	p_hit[32] 	0.14171502256609
scalar tree_5_3_u10_r1_network.node[32].content_store 	hits[32] 	4396
scalar tree_5_3_u10_r1_network.node[32].content_store 	misses[32] 	26624
scalar tree_5_3_u10_r1_network.node[32].content_store 	decision_yes[32] 	491
scalar tree_5_3_u10_r1_network.node[32].content_store 	decision_no[32] 	26132
scalar tree_5_3_u10_r1_network.node[32].content_store 	decision_ratio[32] 	0.018442699921121
scalar tree_5_3_u10_r1_network.node[33].core_layer 	interests[33] 	15329
scalar tree_5_3_u10_r1_network.node[33].core_layer 	data[33] 	11127
scalar tree_5_3_u10_r1_network.node[33].content_store 	p_hit[33] 	0.27412094722422
scalar tree_5_3_u10_r1_network.node[33].content_store 	hits[33] 	4202
scalar tree_5_3_u10_r1_network.node[33].content_store 	misses[33] 	11127
scalar tree_5_3_u10_r1_network.node[33].content_store 	decision_yes[33] 	489
scalar tree_5_3_u10_r1_network.node[33].content_store 	decision_no[33] 	10638
scalar tree_5_3_u10_r1_network.node[33].content_store 	decision_ratio[33] 	0.043947155567538
scalar tree_5_3_u10_r1_network.node[34].core_layer 	interests[34] 	45660
scalar tree_5_3_u10_r1_network.node[34].core_layer 	data[34] 	41463
scalar tree_5_3_u10_r1_network.node[34].content_store 	p_hit[34] 	0.091874726237407
scalar tree_5_3_u10_r1_network.node[34].content_store 	hits[34] 	4195
scalar tree_5_3_u10_r1_network.node[34].content_store 	misses[34] 	41465
scalar tree_5_3_u10_r1_network.node[34].content_store 	decision_yes[34] 	612
scalar tree_5_3_u10_r1_network.node[34].content_store 	decision_no[34] 	40851
scalar tree_5_3_u10_r1_network.node[34].content_store 	decision_ratio[34] 	0.014760147601476
scalar tree_5_3_u10_r1_network.node[35].core_layer 	interests[35] 	27420
scalar tree_5_3_u10_r1_network.node[35].core_layer 	data[35] 	24487
scalar tree_5_3_u10_r1_network.node[35].content_store 	p_hit[35] 	0.10696571845368
scalar tree_5_3_u10_r1_network.node[35].content_store 	hits[35] 	2933
scalar tree_5_3_u10_r1_network.node[35].content_store 	misses[35] 	24487
scalar tree_5_3_u10_r1_network.node[35].content_store 	decision_yes[35] 	373
scalar tree_5_3_u10_r1_network.node[35].content_store 	decision_no[35] 	24114
scalar tree_5_3_u10_r1_network.node[35].content_store 	decision_ratio[35] 	0.015232572385347
scalar tree_5_3_u10_r1_network.node[36].core_layer 	interests[36] 	14800
scalar tree_5_3_u10_r1_network.node[36].core_layer 	data[36] 	10992
scalar tree_5_3_u10_r1_network.node[36].content_store 	p_hit[36] 	0.2572972972973
scalar tree_5_3_u10_r1_network.node[36].content_store 	hits[36] 	3808
scalar tree_5_3_u10_r1_network.node[36].content_store 	misses[36] 	10992
scalar tree_5_3_u10_r1_network.node[36].content_store 	decision_yes[36] 	445
scalar tree_5_3_u10_r1_network.node[36].content_store 	decision_no[36] 	10547
scalar tree_5_3_u10_r1_network.node[36].content_store 	decision_ratio[36] 	0.040483988355167
scalar tree_5_3_u10_r1_network.node[37].core_layer 	interests[37] 	44767
scalar tree_5_3_u10_r1_network.node[37].core_layer 	data[37] 	40983
scalar tree_5_3_u10_r1_network.node[37].content_store 	p_hit[37] 	0.084437197042464
scalar tree_5_3_u10_r1_network.node[37].content_store 	hits[37] 	3780
scalar tree_5_3_u10_r1_network.node[37].content_store 	misses[37] 	40987
scalar tree_5_3_u10_r1_network.node[37].content_store 	decision_yes[37] 	647
scalar tree_5_3_u10_r1_network.node[37].content_store 	decision_no[37] 	40336
scalar tree_5_3_u10_r1_network.node[37].content_store 	decision_ratio[37] 	0.015787033648098
scalar tree_5_3_u10_r1_network.node[38].core_layer 	interests[38] 	30075
scalar tree_5_3_u10_r1_network.node[38].core_layer 	data[38] 	26565
scalar tree_5_3_u10_r1_network.node[38].content_store 	p_hit[38] 	0.11670822942643
scalar tree_5_3_u10_r1_network.node[38].content_store 	hits[38] 	3510
scalar tree_5_3_u10_r1_network.node[38].content_store 	misses[38] 	26565
scalar tree_5_3_u10_r1_network.node[38].content_store 	decision_yes[38] 	505
scalar tree_5_3_u10_r1_network.node[38].content_store 	decision_no[38] 	26060
scalar tree_5_3_u10_r1_network.node[38].content_store 	decision_ratio[38] 	0.019009975531715
scalar tree_5_3_u10_r1_network.node[39].core_layer 	interests[39] 	12183
scalar tree_5_3_u10_r1_network.node[39].core_layer 	data[39] 	9257
scalar tree_5_3_u10_r1_network.node[39].content_store 	p_hit[39] 	0.24008864811623
scalar tree_5_3_u10_r1_network.node[39].content_store 	hits[39] 	2925
scalar tree_5_3_u10_r1_network.node[39].content_store 	misses[39] 	9258
scalar tree_5_3_u10_r1_network.node[39].content_store 	decision_yes[39] 	255
scalar tree_5_3_u10_r1_network.node[39].content_store 	decision_no[39] 	9002
scalar tree_5_3_u10_r1_network.node[39].content_store 	decision_ratio[39] 	0.027546721400022
scalar tree_5_3_u10_r1_network.node[40].core_layer 	interests[40] 	12516
scalar tree_5_3_u10_r1_network.node[40].core_layer 	data[40] 	8925
scalar tree_5_3_u10_r1_network.node[40].content_store 	p_hit[40] 	0.28707254713966
scalar tree_5_3_u10_r1_network.node[40].content_store 	hits[40] 	3593
scalar tree_5_3_u10_r1_network.node[40].content_store 	misses[40] 	8923
scalar tree_5_3_u10_r1_network.node[40].content_store 	decision_yes[40] 	96
scalar tree_5_3_u10_r1_network.node[40].content_store 	decision_no[40] 	8829
scalar tree_5_3_u10_r1_network.node[40].content_store 	decision_ratio[40] 	0.010756302521008
scalar tree_5_3_u10_r1_network.node[41].core_layer 	interests[41] 	12996
scalar tree_5_3_u10_r1_network.node[41].core_layer 	data[41] 	8878
scalar tree_5_3_u10_r1_network.node[41].content_store 	p_hit[41] 	0.31686672822407
scalar tree_5_3_u10_r1_network.node[41].content_store 	hits[41] 	4118
scalar tree_5_3_u10_r1_network.node[41].content_store 	misses[41] 	8878
scalar tree_5_3_u10_r1_network.node[41].content_store 	decision_yes[41] 	140
scalar tree_5_3_u10_r1_network.node[41].content_store 	decision_no[41] 	8738
scalar tree_5_3_u10_r1_network.node[41].content_store 	decision_ratio[41] 	0.015769317413832
scalar tree_5_3_u10_r1_network.node[42].core_layer 	interests[42] 	13086
scalar tree_5_3_u10_r1_network.node[42].core_layer 	data[42] 	9020
scalar tree_5_3_u10_r1_network.node[42].content_store 	p_hit[42] 	0.31056090478374
scalar tree_5_3_u10_r1_network.node[42].content_store 	hits[42] 	4064
scalar tree_5_3_u10_r1_network.node[42].content_store 	misses[42] 	9022
scalar tree_5_3_u10_r1_network.node[42].content_store 	decision_yes[42] 	147
scalar tree_5_3_u10_r1_network.node[42].content_store 	decision_no[42] 	8873
scalar tree_5_3_u10_r1_network.node[42].content_store 	decision_ratio[42] 	0.01629711751663
scalar tree_5_3_u10_r1_network.node[43].core_layer 	interests[43] 	13081
scalar tree_5_3_u10_r1_network.node[43].core_layer 	data[43] 	8854
scalar tree_5_3_u10_r1_network.node[43].content_store 	p_hit[43] 	0.32314043268863
scalar tree_5_3_u10_r1_network.node[43].content_store 	hits[43] 	4227
scalar tree_5_3_u10_r1_network.node[43].content_store 	misses[43] 	8854
scalar tree_5_3_u10_r1_network.node[43].content_store 	decision_yes[43] 	123
scalar tree_5_3_u10_r1_network.node[43].content_store 	decision_no[43] 	8731
scalar tree_5_3_u10_r1_network.node[43].content_store 	decision_ratio[43] 	0.013892026202846
scalar tree_5_3_u10_r1_network.node[44].core_layer 	interests[44] 	12653
scalar tree_5_3_u10_r1_network.node[44].core_layer 	data[44] 	8931
scalar tree_5_3_u10_r1_network.node[44].content_store 	p_hit[44] 	0.29408045522801
scalar tree_5_3_u10_r1_network.node[44].content_store 	hits[44] 	3721
scalar tree_5_3_u10_r1_network.node[44].content_store 	misses[44] 	8932
scalar tree_5_3_u10_r1_network.node[44].content_store 	decision_yes[44] 	108
scalar tree_5_3_u10_r1_network.node[44].content_store 	decision_no[44] 	8823
scalar tree_5_3_u10_r1_network.node[44].content_store 	decision_ratio[44] 	0.012092710782667
scalar tree_5_3_u10_r1_network.node[45].core_layer 	interests[45] 	12898
scalar tree_5_3_u10_r1_network.node[45].core_layer 	data[45] 	8791
scalar tree_5_3_u10_r1_network.node[45].content_store 	p_hit[45] 	0.31842146069158
scalar tree_5_3_u10_r1_network.node[45].content_store 	hits[45] 	4107
scalar tree_5_3_u10_r1_network.node[45].content_store 	misses[45] 	8791
scalar tree_5_3_u10_r1_network.node[45].content_store 	decision_yes[45] 	132
scalar tree_5_3_u10_r1_network.node[45].content_store 	decision_no[45] 	8659
scalar tree_5_3_u10_r1_network.node[45].content_store 	decision_ratio[45] 	0.01501535661472
scalar tree_5_3_u10_r1_network.node[46].core_layer 	interests[46] 	13150
scalar tree_5_3_u10_r1_network.node[46].core_layer 	data[46] 	8992
scalar tree_5_3_u10_r1_network.node[46].content_store 	p_hit[46] 	0.31619771863118
scalar tree_5_3_u10_r1_network.node[46].content_store 	hits[46] 	4158
scalar tree_5_3_u10_r1_network.node[46].content_store 	misses[46] 	8992
scalar tree_5_3_u10_r1_network.node[46].content_store 	decision_yes[46] 	152
scalar tree_5_3_u10_r1_network.node[46].content_store 	decision_no[46] 	8840
scalar tree_5_3_u10_r1_network.node[46].content_store 	decision_ratio[46] 	0.016903914590747
scalar tree_5_3_u10_r1_network.node[47].core_layer 	interests[47] 	12868
scalar tree_5_3_u10_r1_network.node[47].core_layer 	data[47] 	8901
scalar tree_5_3_u10_r1_network.node[47].content_store 	p_hit[47] 	0.30828411563569
scalar tree_5_3_u10_r1_network.node[47].content_store 	hits[47] 	3967
scalar tree_5_3_u10_r1_network.node[47].content_store 	misses[47] 	8901
scalar tree_5_3_u10_r1_network.node[47].content_store 	decision_yes[47] 	131
scalar tree_5_3_u10_r1_network.node[47].content_store 	decision_no[47] 	8770
scalar tree_5_3_u10_r1_network.node[47].content_store 	decision_ratio[47] 	0.014717447477811
scalar tree_5_3_u10_r1_network.node[48].core_layer 	interests[48] 	12338
scalar tree_5_3_u10_r1_network.node[48].core_layer 	data[48] 	8929
scalar tree_5_3_u10_r1_network.node[48].content_store 	p_hit[48] 	0.27621980872102
scalar tree_5_3_u10_r1_network.node[48].content_store 	hits[48] 	3408
scalar tree_5_3_u10_r1_network.node[48].content_store 	misses[48] 	8930
scalar tree_5_3_u10_r1_network.node[48].content_store 	decision_yes[48] 	128
scalar tree_5_3_u10_r1_network.node[48].content_store 	decision_no[48] 	8801
scalar tree_5_3_u10_r1_network.node[48].content_store 	decision_ratio[48] 	0.014335311905029
scalar tree_5_3_u10_r1_network.node[49].core_layer 	interests[49] 	12822
scalar tree_5_3_u10_r1_network.node[49].core_layer 	data[49] 	9163
scalar tree_5_3_u10_r1_network.node[49].content_store 	p_hit[49] 	0.28529090625487
scalar tree_5_3_u10_r1_network.node[49].content_store 	hits[49] 	3658
scalar tree_5_3_u10_r1_network.node[49].content_store 	misses[49] 	9164
scalar tree_5_3_u10_r1_network.node[49].content_store 	decision_yes[49] 	111
scalar tree_5_3_u10_r1_network.node[49].content_store 	decision_no[49] 	9052
scalar tree_5_3_u10_r1_network.node[49].content_store 	decision_ratio[49] 	0.012113936483684
scalar tree_5_3_u10_r1_network.node[50].core_layer 	interests[50] 	13131
scalar tree_5_3_u10_r1_network.node[50].core_layer 	data[50] 	8956
scalar tree_5_3_u10_r1_network.node[50].content_store 	p_hit[50] 	0.31794988957429
scalar tree_5_3_u10_r1_network.node[50].content_store 	hits[50] 	4175
scalar tree_5_3_u10_r1_network.node[50].content_store 	misses[50] 	8956
scalar tree_5_3_u10_r1_network.node[50].content_store 	decision_yes[50] 	139
scalar tree_5_3_u10_r1_network.node[50].content_store 	decision_no[50] 	8817
scalar tree_5_3_u10_r1_network.node[50].content_store 	decision_ratio[50] 	0.01552032157213
scalar tree_5_3_u10_r1_network.node[51].core_layer 	interests[51] 	13052
scalar tree_5_3_u10_r1_network.node[51].core_layer 	data[51] 	8898
scalar tree_5_3_u10_r1_network.node[51].content_store 	p_hit[51] 	0.31834201654919
scalar tree_5_3_u10_r1_network.node[51].content_store 	hits[51] 	4155
scalar tree_5_3_u10_r1_network.node[51].content_store 	misses[51] 	8897
scalar tree_5_3_u10_r1_network.node[51].content_store 	decision_yes[51] 	138
scalar tree_5_3_u10_r1_network.node[51].content_store 	decision_no[51] 	8760
scalar tree_5_3_u10_r1_network.node[51].content_store 	decision_ratio[51] 	0.015509103169252
scalar tree_5_3_u10_r1_network.node[52].core_layer 	interests[52] 	13096
scalar tree_5_3_u10_r1_network.node[52].core_layer 	data[52] 	8967
scalar tree_5_3_u10_r1_network.node[52].content_store 	p_hit[52] 	0.31528711056811
scalar tree_5_3_u10_r1_network.node[52].content_store 	hits[52] 	4129
scalar tree_5_3_u10_r1_network.node[52].content_store 	misses[52] 	8967
scalar tree_5_3_u10_r1_network.node[52].content_store 	decision_yes[52] 	139
scalar tree_5_3_u10_r1_network.node[52].content_store 	decision_no[52] 	8828
scalar tree_5_3_u10_r1_network.node[52].content_store 	decision_ratio[52] 	0.015501282480205
scalar tree_5_3_u10_r1_network.node[53].core_layer 	interests[53] 	12300
scalar tree_5_3_u10_r1_network.node[53].core_layer 	data[53] 	8805
scalar tree_5_3_u10_r1_network.node[53].content_store 	p_hit[53] 	0.28414634146341
scalar tree_5_3_u10_r1_network.node[53].content_store 	hits[53] 	3495
scalar tree_5_3_u10_r1_network.node[53].content_store 	misses[53] 	8805
scalar tree_5_3_u10_r1_network.node[53].content_store 	decision_yes[53] 	116
scalar tree_5_3_u10_r1_network.node[53].content_store 	decision_no[53] 	8689
scalar tree_5_3_u10_r1_network.node[53].content_store 	decision_ratio[53] 	0.013174332765474
scalar tree_5_3_u10_r1_network.node[54].core_layer 	interests[54] 	12747
scalar tree_5_3_u10_r1_network.node[54].core_layer 	data[54] 	8665
scalar tree_5_3_u10_r1_network.node[54].content_store 	p_hit[54] 	0.32015376166941
scalar tree_5_3_u10_r1_network.node[54].content_store 	hits[54] 	4081
scalar tree_5_3_u10_r1_network.node[54].content_store 	misses[54] 	8666
scalar tree_5_3_u10_r1_network.node[54].content_store 	decision_yes[54] 	133
scalar tree_5_3_u10_r1_network.node[54].content_store 	decision_no[54] 	8532
scalar tree_5_3_u10_r1_network.node[54].content_store 	decision_ratio[54] 	0.01534910559723
scalar tree_5_3_u10_r1_network.node[55].core_layer 	interests[55] 	12977
scalar tree_5_3_u10_r1_network.node[55].core_layer 	data[55] 	8809
scalar tree_5_3_u10_r1_network.node[55].content_store 	p_hit[55] 	0.32118363258072
scalar tree_5_3_u10_r1_network.node[55].content_store 	hits[55] 	4168
scalar tree_5_3_u10_r1_network.node[55].content_store 	misses[55] 	8809
scalar tree_5_3_u10_r1_network.node[55].content_store 	decision_yes[55] 	124
scalar tree_5_3_u10_r1_network.node[55].content_store 	decision_no[55] 	8685
scalar tree_5_3_u10_r1_network.node[55].content_store 	decision_ratio[55] 	0.014076512657509
scalar tree_5_3_u10_r1_network.node[56].core_layer 	interests[56] 	13005
scalar tree_5_3_u10_r1_network.node[56].core_layer 	data[56] 	9041
scalar tree_5_3_u10_r1_network.node[56].content_store 	p_hit[56] 	0.30472895040369
scalar tree_5_3_u10_r1_network.node[56].content_store 	hits[56] 	3963
scalar tree_5_3_u10_r1_network.node[56].content_store 	misses[56] 	9042
scalar tree_5_3_u10_r1_network.node[56].content_store 	decision_yes[56] 	145
scalar tree_5_3_u10_r1_network.node[56].content_store 	decision_no[56] 	8896
scalar tree_5_3_u10_r1_network.node[56].content_store 	decision_ratio[56] 	0.016038048888397
scalar tree_5_3_u10_r1_network.node[57].core_layer 	interests[57] 	12197
scalar tree_5_3_u10_r1_network.node[57].core_layer 	data[57] 	8684
scalar tree_5_3_u10_r1_network.node[57].content_store 	p_hit[57] 	0.28810363204067
scalar tree_5_3_u10_r1_network.node[57].content_store 	hits[57] 	3514
scalar tree_5_3_u10_r1_network.node[57].content_store 	misses[57] 	8683
scalar tree_5_3_u10_r1_network.node[57].content_store 	decision_yes[57] 	132
scalar tree_5_3_u10_r1_network.node[57].content_store 	decision_no[57] 	8552
scalar tree_5_3_u10_r1_network.node[57].content_store 	decision_ratio[57] 	0.015200368493782
scalar tree_5_3_u10_r1_network.node[58].core_layer 	interests[58] 	12625
scalar tree_5_3_u10_r1_network.node[58].core_layer 	data[58] 	8893
scalar tree_5_3_u10_r1_network.node[58].content_store 	p_hit[58] 	0.29560396039604
scalar tree_5_3_u10_r1_network.node[58].content_store 	hits[58] 	3732
scalar tree_5_3_u10_r1_network.node[58].content_store 	misses[58] 	8893
scalar tree_5_3_u10_r1_network.node[58].content_store 	decision_yes[58] 	97
scalar tree_5_3_u10_r1_network.node[58].content_store 	decision_no[58] 	8796
scalar tree_5_3_u10_r1_network.node[58].content_store 	decision_ratio[58] 	0.010907455301923
scalar tree_5_3_u10_r1_network.node[59].core_layer 	interests[59] 	13020
scalar tree_5_3_u10_r1_network.node[59].core_layer 	data[59] 	8991
scalar tree_5_3_u10_r1_network.node[59].content_store 	p_hit[59] 	0.30944700460829
scalar tree_5_3_u10_r1_network.node[59].content_store 	hits[59] 	4029
scalar tree_5_3_u10_r1_network.node[59].content_store 	misses[59] 	8991
scalar tree_5_3_u10_r1_network.node[59].content_store 	decision_yes[59] 	161
scalar tree_5_3_u10_r1_network.node[59].content_store 	decision_no[59] 	8830
scalar tree_5_3_u10_r1_network.node[59].content_store 	decision_ratio[59] 	0.017906795684573
scalar tree_5_3_u10_r1_network.node[60].core_layer 	interests[60] 	13113
scalar tree_5_3_u10_r1_network.node[60].core_layer 	data[60] 	9085
scalar tree_5_3_u10_r1_network.node[60].content_store 	p_hit[60] 	0.30725234500114
scalar tree_5_3_u10_r1_network.node[60].content_store 	hits[60] 	4029
scalar tree_5_3_u10_r1_network.node[60].content_store 	misses[60] 	9084
scalar tree_5_3_u10_r1_network.node[60].content_store 	decision_yes[60] 	139
scalar tree_5_3_u10_r1_network.node[60].content_store 	decision_no[60] 	8946
scalar tree_5_3_u10_r1_network.node[60].content_store 	decision_ratio[60] 	0.015299944964227
scalar tree_5_3_u10_r1_network.node[61].core_layer 	interests[61] 	12977
scalar tree_5_3_u10_r1_network.node[61].core_layer 	data[61] 	8876
scalar tree_5_3_u10_r1_network.node[61].content_store 	p_hit[61] 	0.31602065192263
scalar tree_5_3_u10_r1_network.node[61].content_store 	hits[61] 	4101
scalar tree_5_3_u10_r1_network.node[61].content_store 	misses[61] 	8876
scalar tree_5_3_u10_r1_network.node[61].content_store 	decision_yes[61] 	139
scalar tree_5_3_u10_r1_network.node[61].content_store 	decision_no[61] 	8737
scalar tree_5_3_u10_r1_network.node[61].content_store 	decision_ratio[61] 	0.015660207300586
scalar tree_5_3_u10_r1_network.node[62].core_layer 	interests[62] 	12488
scalar tree_5_3_u10_r1_network.node[62].core_layer 	data[62] 	8923
scalar tree_5_3_u10_r1_network.node[62].content_store 	p_hit[62] 	0.28547405509289
scalar tree_5_3_u10_r1_network.node[62].content_store 	hits[62] 	3565
scalar tree_5_3_u10_r1_network.node[62].content_store 	misses[62] 	8923
scalar tree_5_3_u10_r1_network.node[62].content_store 	decision_yes[62] 	118
scalar tree_5_3_u10_r1_network.node[62].content_store 	decision_no[62] 	8805
scalar tree_5_3_u10_r1_network.node[62].content_store 	decision_ratio[62] 	0.013224251933206
scalar tree_5_3_u10_r1_network.node[63].core_layer 	interests[63] 	12953
scalar tree_5_3_u10_r1_network.node[63].core_layer 	data[63] 	8860
scalar tree_5_3_u10_r1_network.node[63].content_store 	p_hit[63] 	0.3159885740755
scalar tree_5_3_u10_r1_network.node[63].content_store 	hits[63] 	4093
scalar tree_5_3_u10_r1_network.node[63].content_store 	misses[63] 	8860
scalar tree_5_3_u10_r1_network.node[63].content_store 	decision_yes[63] 	163
scalar tree_5_3_u10_r1_network.node[63].content_store 	decision_no[63] 	8697
scalar tree_5_3_u10_r1_network.node[63].content_store 	decision_ratio[63] 	0.018397291196388
scalar tree_5_3_u10_r1_network.node[64].core_layer 	interests[64] 	12814
scalar tree_5_3_u10_r1_network.node[64].core_layer 	data[64] 	8811
scalar tree_5_3_u10_r1_network.node[64].content_store 	p_hit[64] 	0.31239269548931
scalar tree_5_3_u10_r1_network.node[64].content_store 	hits[64] 	4003
scalar tree_5_3_u10_r1_network.node[64].content_store 	misses[64] 	8811
scalar tree_5_3_u10_r1_network.node[64].content_store 	decision_yes[64] 	123
scalar tree_5_3_u10_r1_network.node[64].content_store 	decision_no[64] 	8688
scalar tree_5_3_u10_r1_network.node[64].content_store 	decision_ratio[64] 	0.013959822948587
scalar tree_5_3_u10_r1_network.node[65].core_layer 	interests[65] 	13158
scalar tree_5_3_u10_r1_network.node[65].core_layer 	data[65] 	9072
scalar tree_5_3_u10_r1_network.node[65].content_store 	p_hit[65] 	0.31053351573187
scalar tree_5_3_u10_r1_network.node[65].content_store 	hits[65] 	4086
scalar tree_5_3_u10_r1_network.node[65].content_store 	misses[65] 	9072
scalar tree_5_3_u10_r1_network.node[65].content_store 	decision_yes[65] 	161
scalar tree_5_3_u10_r1_network.node[65].content_store 	decision_no[65] 	8911
scalar tree_5_3_u10_r1_network.node[65].content_store 	decision_ratio[65] 	0.017746913580247
scalar tree_5_3_u10_r1_network.node[66].core_layer 	interests[66] 	12296
scalar tree_5_3_u10_r1_network.node[66].core_layer 	data[66] 	8813
scalar tree_5_3_u10_r1_network.node[66].content_store 	p_hit[66] 	0.28326284970722
scalar tree_5_3_u10_r1_network.node[66].content_store 	hits[66] 	3483
scalar tree_5_3_u10_r1_network.node[66].content_store 	misses[66] 	8813
scalar tree_5_3_u10_r1_network.node[66].content_store 	decision_yes[66] 	137
scalar tree_5_3_u10_r1_network.node[66].content_store 	decision_no[66] 	8676
scalar tree_5_3_u10_r1_network.node[66].content_store 	decision_ratio[66] 	0.015545217292636
scalar tree_5_3_u10_r1_network.node[67].core_layer 	interests[67] 	12485
scalar tree_5_3_u10_r1_network.node[67].core_layer 	data[67] 	8829
scalar tree_5_3_u10_r1_network.node[67].content_store 	p_hit[67] 	0.29275130156187
scalar tree_5_3_u10_r1_network.node[67].content_store 	hits[67] 	3655
scalar tree_5_3_u10_r1_network.node[67].content_store 	misses[67] 	8830
scalar tree_5_3_u10_r1_network.node[67].content_store 	decision_yes[67] 	102
scalar tree_5_3_u10_r1_network.node[67].content_store 	decision_no[67] 	8727
scalar tree_5_3_u10_r1_network.node[67].content_store 	decision_ratio[67] 	0.011552837240911
scalar tree_5_3_u10_r1_network.node[68].core_layer 	interests[68] 	13032
scalar tree_5_3_u10_r1_network.node[68].core_layer 	data[68] 	8863
scalar tree_5_3_u10_r1_network.node[68].content_store 	p_hit[68] 	0.31982811540823
scalar tree_5_3_u10_r1_network.node[68].content_store 	hits[68] 	4168
scalar tree_5_3_u10_r1_network.node[68].content_store 	misses[68] 	8864
scalar tree_5_3_u10_r1_network.node[68].content_store 	decision_yes[68] 	140
scalar tree_5_3_u10_r1_network.node[68].content_store 	decision_no[68] 	8723
scalar tree_5_3_u10_r1_network.node[68].content_store 	decision_ratio[68] 	0.015796005867088
scalar tree_5_3_u10_r1_network.node[69].core_layer 	interests[69] 	13066
scalar tree_5_3_u10_r1_network.node[69].core_layer 	data[69] 	8958
scalar tree_5_3_u10_r1_network.node[69].content_store 	p_hit[69] 	0.31440379611205
scalar tree_5_3_u10_r1_network.node[69].content_store 	hits[69] 	4108
scalar tree_5_3_u10_r1_network.node[69].content_store 	misses[69] 	8958
scalar tree_5_3_u10_r1_network.node[69].content_store 	decision_yes[69] 	150
scalar tree_5_3_u10_r1_network.node[69].content_store 	decision_no[69] 	8808
scalar tree_5_3_u10_r1_network.node[69].content_store 	decision_ratio[69] 	0.016744809109176
scalar tree_5_3_u10_r1_network.node[70].core_layer 	interests[70] 	13194
scalar tree_5_3_u10_r1_network.node[70].core_layer 	data[70] 	9074
scalar tree_5_3_u10_r1_network.node[70].content_store 	p_hit[70] 	0.31226314991663
scalar tree_5_3_u10_r1_network.node[70].content_store 	hits[70] 	4120
scalar tree_5_3_u10_r1_network.node[70].content_store 	misses[70] 	9074
scalar tree_5_3_u10_r1_network.node[70].content_store 	decision_yes[70] 	145
scalar tree_5_3_u10_r1_network.node[70].content_store 	decision_no[70] 	8929
scalar tree_5_3_u10_r1_network.node[70].content_store 	decision_ratio[70] 	0.015979722283447
scalar tree_5_3_u10_r1_network.node[71].core_layer 	interests[71] 	12571
scalar tree_5_3_u10_r1_network.node[71].core_layer 	data[71] 	9035
scalar tree_5_3_u10_r1_network.node[71].content_store 	p_hit[71] 	0.28128231644261
scalar tree_5_3_u10_r1_network.node[71].content_store 	hits[71] 	3536
scalar tree_5_3_u10_r1_network.node[71].content_store 	misses[71] 	9035
scalar tree_5_3_u10_r1_network.node[71].content_store 	decision_yes[71] 	116
scalar tree_5_3_u10_r1_network.node[71].content_store 	decision_no[71] 	8919
scalar tree_5_3_u10_r1_network.node[71].content_store 	decision_ratio[71] 	0.01283895960155
scalar tree_5_3_u10_r1_network.node[72].core_layer 	interests[72] 	13038
scalar tree_5_3_u10_r1_network.node[72].core_layer 	data[72] 	8948
scalar tree_5_3_u10_r1_network.node[72].content_store 	p_hit[72] 	0.31362172112287
scalar tree_5_3_u10_r1_network.node[72].content_store 	hits[72] 	4089
scalar tree_5_3_u10_r1_network.node[72].content_store 	misses[72] 	8949
scalar tree_5_3_u10_r1_network.node[72].content_store 	decision_yes[72] 	138
scalar tree_5_3_u10_r1_network.node[72].content_store 	decision_no[72] 	8810
scalar tree_5_3_u10_r1_network.node[72].content_store 	decision_ratio[72] 	0.015422440768887
scalar tree_5_3_u10_r1_network.node[73].core_layer 	interests[73] 	13034
scalar tree_5_3_u10_r1_network.node[73].core_layer 	data[73] 	9001
scalar tree_5_3_u10_r1_network.node[73].content_store 	p_hit[73] 	0.30942151296609
scalar tree_5_3_u10_r1_network.node[73].content_store 	hits[73] 	4033
scalar tree_5_3_u10_r1_network.node[73].content_store 	misses[73] 	9001
scalar tree_5_3_u10_r1_network.node[73].content_store 	decision_yes[73] 	167
scalar tree_5_3_u10_r1_network.node[73].content_store 	decision_no[73] 	8834
scalar tree_5_3_u10_r1_network.node[73].content_store 	decision_ratio[73] 	0.018553494056216
scalar tree_5_3_u10_r1_network.node[74].core_layer 	interests[74] 	13072
scalar tree_5_3_u10_r1_network.node[74].core_layer 	data[74] 	9026
scalar tree_5_3_u10_r1_network.node[74].content_store 	p_hit[74] 	0.30951652386781
scalar tree_5_3_u10_r1_network.node[74].content_store 	hits[74] 	4046
scalar tree_5_3_u10_r1_network.node[74].content_store 	misses[74] 	9026
scalar tree_5_3_u10_r1_network.node[74].content_store 	decision_yes[74] 	143
scalar tree_5_3_u10_r1_network.node[74].content_store 	decision_no[74] 	8883
scalar tree_5_3_u10_r1_network.node[74].content_store 	decision_ratio[74] 	0.015843119875914
scalar tree_5_3_u10_r1_network.node[75].core_layer 	interests[75] 	12505
scalar tree_5_3_u10_r1_network.node[75].core_layer 	data[75] 	9056
scalar tree_5_3_u10_r1_network.node[75].content_store 	p_hit[75] 	0.27580967612955
scalar tree_5_3_u10_r1_network.node[75].content_store 	hits[75] 	3449
scalar tree_5_3_u10_r1_network.node[75].content_store 	misses[75] 	9056
scalar tree_5_3_u10_r1_network.node[75].content_store 	decision_yes[75] 	142
scalar tree_5_3_u10_r1_network.node[75].content_store 	decision_no[75] 	8914
scalar tree_5_3_u10_r1_network.node[75].content_store 	decision_ratio[75] 	0.015680212014134
scalar tree_5_3_u10_r1_network.node[76].core_layer 	interests[76] 	12792
scalar tree_5_3_u10_r1_network.node[76].core_layer 	data[76] 	9054
scalar tree_5_3_u10_r1_network.node[76].content_store 	p_hit[76] 	0.2922138836773
scalar tree_5_3_u10_r1_network.node[76].content_store 	hits[76] 	3738
scalar tree_5_3_u10_r1_network.node[76].content_store 	misses[76] 	9054
scalar tree_5_3_u10_r1_network.node[76].content_store 	decision_yes[76] 	111
scalar tree_5_3_u10_r1_network.node[76].content_store 	decision_no[76] 	8943
scalar tree_5_3_u10_r1_network.node[76].content_store 	decision_ratio[76] 	0.012259774685222
scalar tree_5_3_u10_r1_network.node[77].core_layer 	interests[77] 	13067
scalar tree_5_3_u10_r1_network.node[77].core_layer 	data[77] 	8833
scalar tree_5_3_u10_r1_network.node[77].content_store 	p_hit[77] 	0.32402234636872
scalar tree_5_3_u10_r1_network.node[77].content_store 	hits[77] 	4234
scalar tree_5_3_u10_r1_network.node[77].content_store 	misses[77] 	8833
scalar tree_5_3_u10_r1_network.node[77].content_store 	decision_yes[77] 	134
scalar tree_5_3_u10_r1_network.node[77].content_store 	decision_no[77] 	8699
scalar tree_5_3_u10_r1_network.node[77].content_store 	decision_ratio[77] 	0.015170383788067
scalar tree_5_3_u10_r1_network.node[78].core_layer 	interests[78] 	13005
scalar tree_5_3_u10_r1_network.node[78].core_layer 	data[78] 	8872
scalar tree_5_3_u10_r1_network.node[78].content_store 	p_hit[78] 	0.31780084582853
scalar tree_5_3_u10_r1_network.node[78].content_store 	hits[78] 	4133
scalar tree_5_3_u10_r1_network.node[78].content_store 	misses[78] 	8872
scalar tree_5_3_u10_r1_network.node[78].content_store 	decision_yes[78] 	150
scalar tree_5_3_u10_r1_network.node[78].content_store 	decision_no[78] 	8722
scalar tree_5_3_u10_r1_network.node[78].content_store 	decision_ratio[78] 	0.016907123534716
scalar tree_5_3_u10_r1_network.node[79].core_layer 	interests[79] 	12933
scalar tree_5_3_u10_r1_network.node[79].core_layer 	data[79] 	8807
scalar tree_5_3_u10_r1_network.node[79].content_store 	p_hit[79] 	0.31902884094951
scalar tree_5_3_u10_r1_network.node[79].content_store 	hits[79] 	4126
scalar tree_5_3_u10_r1_network.node[79].content_store 	misses[79] 	8807
scalar tree_5_3_u10_r1_network.node[79].content_store 	decision_yes[79] 	136
scalar tree_5_3_u10_r1_network.node[79].content_store 	decision_no[79] 	8671
scalar tree_5_3_u10_r1_network.node[79].content_store 	decision_ratio[79] 	0.015442261837175
scalar tree_5_3_u10_r1_network.node[80].core_layer 	interests[80] 	12508
scalar tree_5_3_u10_r1_network.node[80].core_layer 	data[80] 	8957
scalar tree_5_3_u10_r1_network.node[80].content_store 	p_hit[80] 	0.28389830508475
scalar tree_5_3_u10_r1_network.node[80].content_store 	hits[80] 	3551
scalar tree_5_3_u10_r1_network.node[80].content_store 	misses[80] 	8957
scalar tree_5_3_u10_r1_network.node[80].content_store 	decision_yes[80] 	128
scalar tree_5_3_u10_r1_network.node[80].content_store 	decision_no[80] 	8829
scalar tree_5_3_u10_r1_network.node[80].content_store 	decision_ratio[80] 	0.014290499051022
scalar tree_5_3_u10_r1_network.node[81].core_layer 	interests[81] 	13036
scalar tree_5_3_u10_r1_network.node[81].core_layer 	data[81] 	9061
scalar tree_5_3_u10_r1_network.node[81].content_store 	p_hit[81] 	0.30500153421295
scalar tree_5_3_u10_r1_network.node[81].content_store 	hits[81] 	3976
scalar tree_5_3_u10_r1_network.node[81].content_store 	misses[81] 	9060
scalar tree_5_3_u10_r1_network.node[81].content_store 	decision_yes[81] 	175
scalar tree_5_3_u10_r1_network.node[81].content_store 	decision_no[81] 	8886
scalar tree_5_3_u10_r1_network.node[81].content_store 	decision_ratio[81] 	0.019313541551705
scalar tree_5_3_u10_r1_network.node[82].core_layer 	interests[82] 	13151
scalar tree_5_3_u10_r1_network.node[82].core_layer 	data[82] 	9031
scalar tree_5_3_u10_r1_network.node[82].content_store 	p_hit[82] 	0.31320812105543
scalar tree_5_3_u10_r1_network.node[82].content_store 	hits[82] 	4119
scalar tree_5_3_u10_r1_network.node[82].content_store 	misses[82] 	9032
scalar tree_5_3_u10_r1_network.node[82].content_store 	decision_yes[82] 	153
scalar tree_5_3_u10_r1_network.node[82].content_store 	decision_no[82] 	8878
scalar tree_5_3_u10_r1_network.node[82].content_store 	decision_ratio[82] 	0.016941645443472
scalar tree_5_3_u10_r1_network.node[83].core_layer 	interests[83] 	12968
scalar tree_5_3_u10_r1_network.node[83].core_layer 	data[83] 	9057
scalar tree_5_3_u10_r1_network.node[83].content_store 	p_hit[83] 	0.3015114127082
scalar tree_5_3_u10_r1_network.node[83].content_store 	hits[83] 	3910
scalar tree_5_3_u10_r1_network.node[83].content_store 	misses[83] 	9058
scalar tree_5_3_u10_r1_network.node[83].content_store 	decision_yes[83] 	137
scalar tree_5_3_u10_r1_network.node[83].content_store 	decision_no[83] 	8920
scalar tree_5_3_u10_r1_network.node[83].content_store 	decision_ratio[83] 	0.01512642155239
scalar tree_5_3_u10_r1_network.node[84].core_layer 	interests[84] 	12536
scalar tree_5_3_u10_r1_network.node[84].core_layer 	data[84] 	8879
scalar tree_5_3_u10_r1_network.node[84].content_store 	p_hit[84] 	0.2917198468411
scalar tree_5_3_u10_r1_network.node[84].content_store 	hits[84] 	3657
scalar tree_5_3_u10_r1_network.node[84].content_store 	misses[84] 	8879
scalar tree_5_3_u10_r1_network.node[84].content_store 	decision_yes[84] 	124
scalar tree_5_3_u10_r1_network.node[84].content_store 	decision_no[84] 	8755
scalar tree_5_3_u10_r1_network.node[84].content_store 	decision_ratio[84] 	0.013965536659534
scalar tree_5_3_u10_r1_network.node[85].core_layer 	interests[85] 	12625
scalar tree_5_3_u10_r1_network.node[85].core_layer 	data[85] 	8953
scalar tree_5_3_u10_r1_network.node[85].content_store 	p_hit[85] 	0.29085148514851
scalar tree_5_3_u10_r1_network.node[85].content_store 	hits[85] 	3672
scalar tree_5_3_u10_r1_network.node[85].content_store 	misses[85] 	8953
scalar tree_5_3_u10_r1_network.node[85].content_store 	decision_yes[85] 	99
scalar tree_5_3_u10_r1_network.node[85].content_store 	decision_no[85] 	8854
scalar tree_5_3_u10_r1_network.node[85].content_store 	decision_ratio[85] 	0.011057746006925
scalar tree_5_3_u10_r1_network.node[86].core_layer 	interests[86] 	13130
scalar tree_5_3_u10_r1_network.node[86].core_layer 	data[86] 	8993
scalar tree_5_3_u10_r1_network.node[86].content_store 	p_hit[86] 	0.31507996953542
scalar tree_5_3_u10_r1_network.node[86].content_store 	hits[86] 	4137
scalar tree_5_3_u10_r1_network.node[86].content_store 	misses[86] 	8993
scalar tree_5_3_u10_r1_network.node[86].content_store 	decision_yes[86] 	133
scalar tree_5_3_u10_r1_network.node[86].content_store 	decision_no[86] 	8860
scalar tree_5_3_u10_r1_network.node[86].content_store 	decision_ratio[86] 	0.01478928055154
scalar tree_5_3_u10_r1_network.node[87].core_layer 	interests[87] 	12927
scalar tree_5_3_u10_r1_network.node[87].core_layer 	data[87] 	8929
scalar tree_5_3_u10_r1_network.node[87].content_store 	p_hit[87] 	0.30927516051675
scalar tree_5_3_u10_r1_network.node[87].content_store 	hits[87] 	3998
scalar tree_5_3_u10_r1_network.node[87].content_store 	misses[87] 	8929
scalar tree_5_3_u10_r1_network.node[87].content_store 	decision_yes[87] 	152
scalar tree_5_3_u10_r1_network.node[87].content_store 	decision_no[87] 	8777
scalar tree_5_3_u10_r1_network.node[87].content_store 	decision_ratio[87] 	0.017023182887221
scalar tree_5_3_u10_r1_network.node[88].core_layer 	interests[88] 	13381
scalar tree_5_3_u10_r1_network.node[88].core_layer 	data[88] 	9272
scalar tree_5_3_u10_r1_network.node[88].content_store 	p_hit[88] 	0.30715193184366
scalar tree_5_3_u10_r1_network.node[88].content_store 	hits[88] 	4110
scalar tree_5_3_u10_r1_network.node[88].content_store 	misses[88] 	9271
scalar tree_5_3_u10_r1_network.node[88].content_store 	decision_yes[88] 	162
scalar tree_5_3_u10_r1_network.node[88].content_store 	decision_no[88] 	9110
scalar tree_5_3_u10_r1_network.node[88].content_store 	decision_ratio[88] 	0.017471958584987
scalar tree_5_3_u10_r1_network.node[89].core_layer 	interests[89] 	12643
scalar tree_5_3_u10_r1_network.node[89].core_layer 	data[89] 	9045
scalar tree_5_3_u10_r1_network.node[89].content_store 	p_hit[89] 	0.28466345013051
scalar tree_5_3_u10_r1_network.node[89].content_store 	hits[89] 	3599
scalar tree_5_3_u10_r1_network.node[89].content_store 	misses[89] 	9044
scalar tree_5_3_u10_r1_network.node[89].content_store 	decision_yes[89] 	119
scalar tree_5_3_u10_r1_network.node[89].content_store 	decision_no[89] 	8926
scalar tree_5_3_u10_r1_network.node[89].content_store 	decision_ratio[89] 	0.013156440022112
scalar tree_5_3_u10_r1_network.node[90].core_layer 	interests[90] 	12961
scalar tree_5_3_u10_r1_network.node[90].core_layer 	data[90] 	8814
scalar tree_5_3_u10_r1_network.node[90].content_store 	p_hit[90] 	0.31995987963892
scalar tree_5_3_u10_r1_network.node[90].content_store 	hits[90] 	4147
scalar tree_5_3_u10_r1_network.node[90].content_store 	misses[90] 	8814
scalar tree_5_3_u10_r1_network.node[90].content_store 	decision_yes[90] 	151
scalar tree_5_3_u10_r1_network.node[90].content_store 	decision_no[90] 	8663
scalar tree_5_3_u10_r1_network.node[90].content_store 	decision_ratio[90] 	0.017131835715907
scalar tree_5_3_u10_r1_network.node[91].core_layer 	interests[91] 	13056
scalar tree_5_3_u10_r1_network.node[91].core_layer 	data[91] 	9131
scalar tree_5_3_u10_r1_network.node[91].content_store 	p_hit[91] 	0.30062806372549
scalar tree_5_3_u10_r1_network.node[91].content_store 	hits[91] 	3925
scalar tree_5_3_u10_r1_network.node[91].content_store 	misses[91] 	9131
scalar tree_5_3_u10_r1_network.node[91].content_store 	decision_yes[91] 	173
scalar tree_5_3_u10_r1_network.node[91].content_store 	decision_no[91] 	8958
scalar tree_5_3_u10_r1_network.node[91].content_store 	decision_ratio[91] 	0.01894644617238
scalar tree_5_3_u10_r1_network.node[92].core_layer 	interests[92] 	12751
scalar tree_5_3_u10_r1_network.node[92].core_layer 	data[92] 	8815
scalar tree_5_3_u10_r1_network.node[92].content_store 	p_hit[92] 	0.30868167202572
scalar tree_5_3_u10_r1_network.node[92].content_store 	hits[92] 	3936
scalar tree_5_3_u10_r1_network.node[92].content_store 	misses[92] 	8815
scalar tree_5_3_u10_r1_network.node[92].content_store 	decision_yes[92] 	147
scalar tree_5_3_u10_r1_network.node[92].content_store 	decision_no[92] 	8668
scalar tree_5_3_u10_r1_network.node[92].content_store 	decision_ratio[92] 	0.016676120249575
scalar tree_5_3_u10_r1_network.node[93].core_layer 	interests[93] 	12211
scalar tree_5_3_u10_r1_network.node[93].core_layer 	data[93] 	8717
scalar tree_5_3_u10_r1_network.node[93].content_store 	p_hit[93] 	0.28613545164196
scalar tree_5_3_u10_r1_network.node[93].content_store 	hits[93] 	3494
scalar tree_5_3_u10_r1_network.node[93].content_store 	misses[93] 	8717
scalar tree_5_3_u10_r1_network.node[93].content_store 	decision_yes[93] 	104
scalar tree_5_3_u10_r1_network.node[93].content_store 	decision_no[93] 	8613
scalar tree_5_3_u10_r1_network.node[93].content_store 	decision_ratio[93] 	0.011930710106688
scalar tree_5_3_u10_r1_network.node[94].core_layer 	interests[94] 	12560
scalar tree_5_3_u10_r1_network.node[94].core_layer 	data[94] 	9054
scalar tree_5_3_u10_r1_network.node[94].content_store 	p_hit[94] 	0.27914012738854
scalar tree_5_3_u10_r1_network.node[94].content_store 	hits[94] 	3506
scalar tree_5_3_u10_r1_network.node[94].content_store 	misses[94] 	9054
scalar tree_5_3_u10_r1_network.node[94].content_store 	decision_yes[94] 	117
scalar tree_5_3_u10_r1_network.node[94].content_store 	decision_no[94] 	8937
scalar tree_5_3_u10_r1_network.node[94].content_store 	decision_ratio[94] 	0.012922465208748
scalar tree_5_3_u10_r1_network.node[95].core_layer 	interests[95] 	13001
scalar tree_5_3_u10_r1_network.node[95].core_layer 	data[95] 	8906
scalar tree_5_3_u10_r1_network.node[95].content_store 	p_hit[95] 	0.31497577109453
scalar tree_5_3_u10_r1_network.node[95].content_store 	hits[95] 	4095
scalar tree_5_3_u10_r1_network.node[95].content_store 	misses[95] 	8906
scalar tree_5_3_u10_r1_network.node[95].content_store 	decision_yes[95] 	106
scalar tree_5_3_u10_r1_network.node[95].content_store 	decision_no[95] 	8800
scalar tree_5_3_u10_r1_network.node[95].content_store 	decision_ratio[95] 	0.011902088479677
scalar tree_5_3_u10_r1_network.node[96].core_layer 	interests[96] 	12946
scalar tree_5_3_u10_r1_network.node[96].core_layer 	data[96] 	8829
scalar tree_5_3_u10_r1_network.node[96].content_store 	p_hit[96] 	0.31801328595705
scalar tree_5_3_u10_r1_network.node[96].content_store 	hits[96] 	4117
scalar tree_5_3_u10_r1_network.node[96].content_store 	misses[96] 	8829
scalar tree_5_3_u10_r1_network.node[96].content_store 	decision_yes[96] 	140
scalar tree_5_3_u10_r1_network.node[96].content_store 	decision_no[96] 	8689
scalar tree_5_3_u10_r1_network.node[96].content_store 	decision_ratio[96] 	0.015856835428701
scalar tree_5_3_u10_r1_network.node[97].core_layer 	interests[97] 	13134
scalar tree_5_3_u10_r1_network.node[97].core_layer 	data[97] 	8952
scalar tree_5_3_u10_r1_network.node[97].content_store 	p_hit[97] 	0.3184102329831
scalar tree_5_3_u10_r1_network.node[97].content_store 	hits[97] 	4182
scalar tree_5_3_u10_r1_network.node[97].content_store 	misses[97] 	8952
scalar tree_5_3_u10_r1_network.node[97].content_store 	decision_yes[97] 	124
scalar tree_5_3_u10_r1_network.node[97].content_store 	decision_no[97] 	8828
scalar tree_5_3_u10_r1_network.node[97].content_store 	decision_ratio[97] 	0.013851653261841
scalar tree_5_3_u10_r1_network.node[98].core_layer 	interests[98] 	12510
scalar tree_5_3_u10_r1_network.node[98].core_layer 	data[98] 	8928
scalar tree_5_3_u10_r1_network.node[98].content_store 	p_hit[98] 	0.28641087130296
scalar tree_5_3_u10_r1_network.node[98].content_store 	hits[98] 	3583
scalar tree_5_3_u10_r1_network.node[98].content_store 	misses[98] 	8927
scalar tree_5_3_u10_r1_network.node[98].content_store 	decision_yes[98] 	108
scalar tree_5_3_u10_r1_network.node[98].content_store 	decision_no[98] 	8820
scalar tree_5_3_u10_r1_network.node[98].content_store 	decision_ratio[98] 	0.012096774193548
scalar tree_5_3_u10_r1_network.node[99].core_layer 	interests[99] 	12906
scalar tree_5_3_u10_r1_network.node[99].core_layer 	data[99] 	8882
scalar tree_5_3_u10_r1_network.node[99].content_store 	p_hit[99] 	0.31179296451263
scalar tree_5_3_u10_r1_network.node[99].content_store 	hits[99] 	4024
scalar tree_5_3_u10_r1_network.node[99].content_store 	misses[99] 	8882
scalar tree_5_3_u10_r1_network.node[99].content_store 	decision_yes[99] 	139
scalar tree_5_3_u10_r1_network.node[99].content_store 	decision_no[99] 	8743
scalar tree_5_3_u10_r1_network.node[99].content_store 	decision_ratio[99] 	0.015649628462058
scalar tree_5_3_u10_r1_network.node[100].core_layer 	interests[100] 	13065
scalar tree_5_3_u10_r1_network.node[100].core_layer 	data[100] 	9033
scalar tree_5_3_u10_r1_network.node[100].content_store 	p_hit[100] 	0.30861079219288
scalar tree_5_3_u10_r1_network.node[100].content_store 	hits[100] 	4032
scalar tree_5_3_u10_r1_network.node[100].content_store 	misses[100] 	9033
scalar tree_5_3_u10_r1_network.node[100].content_store 	decision_yes[100] 	148
scalar tree_5_3_u10_r1_network.node[100].content_store 	decision_no[100] 	8885
scalar tree_5_3_u10_r1_network.node[100].content_store 	decision_ratio[100] 	0.016384368426879
scalar tree_5_3_u10_r1_network.node[101].core_layer 	interests[101] 	13110
scalar tree_5_3_u10_r1_network.node[101].core_layer 	data[101] 	8903
scalar tree_5_3_u10_r1_network.node[101].content_store 	p_hit[101] 	0.32090007627765
scalar tree_5_3_u10_r1_network.node[101].content_store 	hits[101] 	4207
scalar tree_5_3_u10_r1_network.node[101].content_store 	misses[101] 	8903
scalar tree_5_3_u10_r1_network.node[101].content_store 	decision_yes[101] 	161
scalar tree_5_3_u10_r1_network.node[101].content_store 	decision_no[101] 	8742
scalar tree_5_3_u10_r1_network.node[101].content_store 	decision_ratio[101] 	0.018083791980231
scalar tree_5_3_u10_r1_network.node[102].core_layer 	interests[102] 	12598
scalar tree_5_3_u10_r1_network.node[102].core_layer 	data[102] 	8938
scalar tree_5_3_u10_r1_network.node[102].content_store 	p_hit[102] 	0.2904429274488
scalar tree_5_3_u10_r1_network.node[102].content_store 	hits[102] 	3659
scalar tree_5_3_u10_r1_network.node[102].content_store 	misses[102] 	8939
scalar tree_5_3_u10_r1_network.node[102].content_store 	decision_yes[102] 	130
scalar tree_5_3_u10_r1_network.node[102].content_store 	decision_no[102] 	8808
scalar tree_5_3_u10_r1_network.node[102].content_store 	decision_ratio[102] 	0.014544640859253
scalar tree_5_3_u10_r1_network.node[103].core_layer 	interests[103] 	12730
scalar tree_5_3_u10_r1_network.node[103].core_layer 	data[103] 	9033
scalar tree_5_3_u10_r1_network.node[103].content_store 	p_hit[103] 	0.29033778476041
scalar tree_5_3_u10_r1_network.node[103].content_store 	hits[103] 	3696
scalar tree_5_3_u10_r1_network.node[103].content_store 	misses[103] 	9034
scalar tree_5_3_u10_r1_network.node[103].content_store 	decision_yes[103] 	112
scalar tree_5_3_u10_r1_network.node[103].content_store 	decision_no[103] 	8921
scalar tree_5_3_u10_r1_network.node[103].content_store 	decision_ratio[103] 	0.012398981512233
scalar tree_5_3_u10_r1_network.node[104].core_layer 	interests[104] 	13041
scalar tree_5_3_u10_r1_network.node[104].core_layer 	data[104] 	8879
scalar tree_5_3_u10_r1_network.node[104].content_store 	p_hit[104] 	0.31914730465455
scalar tree_5_3_u10_r1_network.node[104].content_store 	hits[104] 	4162
scalar tree_5_3_u10_r1_network.node[104].content_store 	misses[104] 	8879
scalar tree_5_3_u10_r1_network.node[104].content_store 	decision_yes[104] 	135
scalar tree_5_3_u10_r1_network.node[104].content_store 	decision_no[104] 	8744
scalar tree_5_3_u10_r1_network.node[104].content_store 	decision_ratio[104] 	0.015204414911589
scalar tree_5_3_u10_r1_network.node[105].core_layer 	interests[105] 	12991
scalar tree_5_3_u10_r1_network.node[105].core_layer 	data[105] 	8893
scalar tree_5_3_u10_r1_network.node[105].content_store 	p_hit[105] 	0.31544915710877
scalar tree_5_3_u10_r1_network.node[105].content_store 	hits[105] 	4098
scalar tree_5_3_u10_r1_network.node[105].content_store 	misses[105] 	8893
scalar tree_5_3_u10_r1_network.node[105].content_store 	decision_yes[105] 	149
scalar tree_5_3_u10_r1_network.node[105].content_store 	decision_no[105] 	8744
scalar tree_5_3_u10_r1_network.node[105].content_store 	decision_ratio[105] 	0.016754750927696
scalar tree_5_3_u10_r1_network.node[106].core_layer 	interests[106] 	12902
scalar tree_5_3_u10_r1_network.node[106].core_layer 	data[106] 	8897
scalar tree_5_3_u10_r1_network.node[106].content_store 	p_hit[106] 	0.31041698961401
scalar tree_5_3_u10_r1_network.node[106].content_store 	hits[106] 	4005
scalar tree_5_3_u10_r1_network.node[106].content_store 	misses[106] 	8897
scalar tree_5_3_u10_r1_network.node[106].content_store 	decision_yes[106] 	131
scalar tree_5_3_u10_r1_network.node[106].content_store 	decision_no[106] 	8766
scalar tree_5_3_u10_r1_network.node[106].content_store 	decision_ratio[106] 	0.014724064291334
scalar tree_5_3_u10_r1_network.node[107].core_layer 	interests[107] 	12322
scalar tree_5_3_u10_r1_network.node[107].core_layer 	data[107] 	8823
scalar tree_5_3_u10_r1_network.node[107].content_store 	p_hit[107] 	0.28396364226587
scalar tree_5_3_u10_r1_network.node[107].content_store 	hits[107] 	3499
scalar tree_5_3_u10_r1_network.node[107].content_store 	misses[107] 	8823
scalar tree_5_3_u10_r1_network.node[107].content_store 	decision_yes[107] 	105
scalar tree_5_3_u10_r1_network.node[107].content_store 	decision_no[107] 	8718
scalar tree_5_3_u10_r1_network.node[107].content_store 	decision_ratio[107] 	0.011900714042843
scalar tree_5_3_u10_r1_network.node[108].core_layer 	interests[108] 	12866
scalar tree_5_3_u10_r1_network.node[108].core_layer 	data[108] 	8881
scalar tree_5_3_u10_r1_network.node[108].content_store 	p_hit[108] 	0.30973107414892
scalar tree_5_3_u10_r1_network.node[108].content_store 	hits[108] 	3985
scalar tree_5_3_u10_r1_network.node[108].content_store 	misses[108] 	8881
scalar tree_5_3_u10_r1_network.node[108].content_store 	decision_yes[108] 	155
scalar tree_5_3_u10_r1_network.node[108].content_store 	decision_no[108] 	8726
scalar tree_5_3_u10_r1_network.node[108].content_store 	decision_ratio[108] 	0.017452989528206
scalar tree_5_3_u10_r1_network.node[109].core_layer 	interests[109] 	13131
scalar tree_5_3_u10_r1_network.node[109].core_layer 	data[109] 	8978
scalar tree_5_3_u10_r1_network.node[109].content_store 	p_hit[109] 	0.31627446500647
scalar tree_5_3_u10_r1_network.node[109].content_store 	hits[109] 	4153
scalar tree_5_3_u10_r1_network.node[109].content_store 	misses[109] 	8978
scalar tree_5_3_u10_r1_network.node[109].content_store 	decision_yes[109] 	160
scalar tree_5_3_u10_r1_network.node[109].content_store 	decision_no[109] 	8818
scalar tree_5_3_u10_r1_network.node[109].content_store 	decision_ratio[109] 	0.017821341055914
scalar tree_5_3_u10_r1_network.node[110].core_layer 	interests[110] 	12826
scalar tree_5_3_u10_r1_network.node[110].core_layer 	data[110] 	8938
scalar tree_5_3_u10_r1_network.node[110].content_store 	p_hit[110] 	0.30313425853735
scalar tree_5_3_u10_r1_network.node[110].content_store 	hits[110] 	3888
scalar tree_5_3_u10_r1_network.node[110].content_store 	misses[110] 	8938
scalar tree_5_3_u10_r1_network.node[110].content_store 	decision_yes[110] 	165
scalar tree_5_3_u10_r1_network.node[110].content_store 	decision_no[110] 	8773
scalar tree_5_3_u10_r1_network.node[110].content_store 	decision_ratio[110] 	0.018460505705974
scalar tree_5_3_u10_r1_network.node[111].core_layer 	interests[111] 	12640
scalar tree_5_3_u10_r1_network.node[111].core_layer 	data[111] 	8884
scalar tree_5_3_u10_r1_network.node[111].content_store 	p_hit[111] 	0.29707278481013
scalar tree_5_3_u10_r1_network.node[111].content_store 	hits[111] 	3755
scalar tree_5_3_u10_r1_network.node[111].content_store 	misses[111] 	8885
scalar tree_5_3_u10_r1_network.node[111].content_store 	decision_yes[111] 	124
scalar tree_5_3_u10_r1_network.node[111].content_store 	decision_no[111] 	8760
scalar tree_5_3_u10_r1_network.node[111].content_store 	decision_ratio[111] 	0.013957676722197
scalar tree_5_3_u10_r1_network.node[112].core_layer 	interests[112] 	12412
scalar tree_5_3_u10_r1_network.node[112].core_layer 	data[112] 	8872
scalar tree_5_3_u10_r1_network.node[112].content_store 	p_hit[112] 	0.28520786335804
scalar tree_5_3_u10_r1_network.node[112].content_store 	hits[112] 	3540
scalar tree_5_3_u10_r1_network.node[112].content_store 	misses[112] 	8872
scalar tree_5_3_u10_r1_network.node[112].content_store 	decision_yes[112] 	110
scalar tree_5_3_u10_r1_network.node[112].content_store 	decision_no[112] 	8762
scalar tree_5_3_u10_r1_network.node[112].content_store 	decision_ratio[112] 	0.012398557258792
scalar tree_5_3_u10_r1_network.node[113].core_layer 	interests[113] 	12902
scalar tree_5_3_u10_r1_network.node[113].core_layer 	data[113] 	8867
scalar tree_5_3_u10_r1_network.node[113].content_store 	p_hit[113] 	0.3125096884204
scalar tree_5_3_u10_r1_network.node[113].content_store 	hits[113] 	4032
scalar tree_5_3_u10_r1_network.node[113].content_store 	misses[113] 	8870
scalar tree_5_3_u10_r1_network.node[113].content_store 	decision_yes[113] 	116
scalar tree_5_3_u10_r1_network.node[113].content_store 	decision_no[113] 	8751
scalar tree_5_3_u10_r1_network.node[113].content_store 	decision_ratio[113] 	0.013082214954325
scalar tree_5_3_u10_r1_network.node[114].core_layer 	interests[114] 	12930
scalar tree_5_3_u10_r1_network.node[114].core_layer 	data[114] 	9005
scalar tree_5_3_u10_r1_network.node[114].content_store 	p_hit[114] 	0.30355761794277
scalar tree_5_3_u10_r1_network.node[114].content_store 	hits[114] 	3925
scalar tree_5_3_u10_r1_network.node[114].content_store 	misses[114] 	9005
scalar tree_5_3_u10_r1_network.node[114].content_store 	decision_yes[114] 	143
scalar tree_5_3_u10_r1_network.node[114].content_store 	decision_no[114] 	8862
scalar tree_5_3_u10_r1_network.node[114].content_store 	decision_ratio[114] 	0.01588006662965
scalar tree_5_3_u10_r1_network.node[115].core_layer 	interests[115] 	12963
scalar tree_5_3_u10_r1_network.node[115].core_layer 	data[115] 	8888
scalar tree_5_3_u10_r1_network.node[115].content_store 	p_hit[115] 	0.31435624469644
scalar tree_5_3_u10_r1_network.node[115].content_store 	hits[115] 	4075
scalar tree_5_3_u10_r1_network.node[115].content_store 	misses[115] 	8888
scalar tree_5_3_u10_r1_network.node[115].content_store 	decision_yes[115] 	116
scalar tree_5_3_u10_r1_network.node[115].content_store 	decision_no[115] 	8772
scalar tree_5_3_u10_r1_network.node[115].content_store 	decision_ratio[115] 	0.013051305130513
scalar tree_5_3_u10_r1_network.node[116].core_layer 	interests[116] 	12517
scalar tree_5_3_u10_r1_network.node[116].core_layer 	data[116] 	8927
scalar tree_5_3_u10_r1_network.node[116].content_store 	p_hit[116] 	0.28680993848366
scalar tree_5_3_u10_r1_network.node[116].content_store 	hits[116] 	3590
scalar tree_5_3_u10_r1_network.node[116].content_store 	misses[116] 	8927
scalar tree_5_3_u10_r1_network.node[116].content_store 	decision_yes[116] 	116
scalar tree_5_3_u10_r1_network.node[116].content_store 	decision_no[116] 	8811
scalar tree_5_3_u10_r1_network.node[116].content_store 	decision_ratio[116] 	0.012994286994511
scalar tree_5_3_u10_r1_network.node[117].core_layer 	interests[117] 	12914
scalar tree_5_3_u10_r1_network.node[117].core_layer 	data[117] 	9063
scalar tree_5_3_u10_r1_network.node[117].content_store 	p_hit[117] 	0.29820350007744
scalar tree_5_3_u10_r1_network.node[117].content_store 	hits[117] 	3851
scalar tree_5_3_u10_r1_network.node[117].content_store 	misses[117] 	9063
scalar tree_5_3_u10_r1_network.node[117].content_store 	decision_yes[117] 	153
scalar tree_5_3_u10_r1_network.node[117].content_store 	decision_no[117] 	8910
scalar tree_5_3_u10_r1_network.node[117].content_store 	decision_ratio[117] 	0.016881827209533
scalar tree_5_3_u10_r1_network.node[118].core_layer 	interests[118] 	12965
scalar tree_5_3_u10_r1_network.node[118].core_layer 	data[118] 	9051
scalar tree_5_3_u10_r1_network.node[118].content_store 	p_hit[118] 	0.30188970304666
scalar tree_5_3_u10_r1_network.node[118].content_store 	hits[118] 	3914
scalar tree_5_3_u10_r1_network.node[118].content_store 	misses[118] 	9051
scalar tree_5_3_u10_r1_network.node[118].content_store 	decision_yes[118] 	174
scalar tree_5_3_u10_r1_network.node[118].content_store 	decision_no[118] 	8877
scalar tree_5_3_u10_r1_network.node[118].content_store 	decision_ratio[118] 	0.019224395094465
scalar tree_5_3_u10_r1_network.node[119].core_layer 	interests[119] 	12604
scalar tree_5_3_u10_r1_network.node[119].core_layer 	data[119] 	8738
scalar tree_5_3_u10_r1_network.node[119].content_store 	p_hit[119] 	0.30672802284989
scalar tree_5_3_u10_r1_network.node[119].content_store 	hits[119] 	3866
scalar tree_5_3_u10_r1_network.node[119].content_store 	misses[119] 	8738
scalar tree_5_3_u10_r1_network.node[119].content_store 	decision_yes[119] 	161
scalar tree_5_3_u10_r1_network.node[119].content_store 	decision_no[119] 	8577
scalar tree_5_3_u10_r1_network.node[119].content_store 	decision_ratio[119] 	0.018425268940261
scalar tree_5_3_u10_r1_network.node[120].core_layer 	interests[120] 	12358
scalar tree_5_3_u10_r1_network.node[120].core_layer 	data[120] 	8806
scalar tree_5_3_u10_r1_network.node[120].content_store 	p_hit[120] 	0.287344230458
scalar tree_5_3_u10_r1_network.node[120].content_store 	hits[120] 	3551
scalar tree_5_3_u10_r1_network.node[120].content_store 	misses[120] 	8807
scalar tree_5_3_u10_r1_network.node[120].content_store 	decision_yes[120] 	128
scalar tree_5_3_u10_r1_network.node[120].content_store 	decision_no[120] 	8678
scalar tree_5_3_u10_r1_network.node[120].content_store 	decision_ratio[120] 	0.014535543947309
scalar tree_5_3_u10_r1_network.client[40] 	hdistance[40] 	3.2558178191489
scalar tree_5_3_u10_r1_network.client[40] 	downloads[40] 	12032
scalar tree_5_3_u10_r1_network.client[40] 	avg_time[40] 	0.005481712402
scalar tree_5_3_u10_r1_network.client[41] 	hdistance[41] 	3.1379281396911
scalar tree_5_3_u10_r1_network.client[41] 	downloads[41] 	11912
scalar tree_5_3_u10_r1_network.client[41] 	avg_time[41] 	0.005287553029
scalar tree_5_3_u10_r1_network.client[42] 	hdistance[42] 	3.1668465178053
scalar tree_5_3_u10_r1_network.client[42] 	downloads[42] 	12047
scalar tree_5_3_u10_r1_network.client[42] 	avg_time[42] 	0.005324077884
scalar tree_5_3_u10_r1_network.client[43] 	hdistance[43] 	3.1419861354715
scalar tree_5_3_u10_r1_network.client[43] 	downloads[43] 	11973
scalar tree_5_3_u10_r1_network.client[43] 	avg_time[43] 	0.005287820108
scalar tree_5_3_u10_r1_network.client[44] 	hdistance[44] 	3.1749627914668
scalar tree_5_3_u10_r1_network.client[44] 	downloads[44] 	12094
scalar tree_5_3_u10_r1_network.client[44] 	avg_time[44] 	0.005353064624
scalar tree_5_3_u10_r1_network.client[45] 	hdistance[45] 	3.0889844804318
scalar tree_5_3_u10_r1_network.client[45] 	downloads[45] 	11856
scalar tree_5_3_u10_r1_network.client[45] 	avg_time[45] 	0.005192618689
scalar tree_5_3_u10_r1_network.client[46] 	hdistance[46] 	3.1454590611806
scalar tree_5_3_u10_r1_network.client[46] 	downloads[46] 	12079
scalar tree_5_3_u10_r1_network.client[46] 	avg_time[46] 	0.005281725606
scalar tree_5_3_u10_r1_network.client[47] 	hdistance[47] 	3.1424
scalar tree_5_3_u10_r1_network.client[47] 	downloads[47] 	11875
scalar tree_5_3_u10_r1_network.client[47] 	avg_time[47] 	0.005275868925
scalar tree_5_3_u10_r1_network.client[48] 	hdistance[48] 	3.2093784078517
scalar tree_5_3_u10_r1_network.client[48] 	downloads[48] 	11921
scalar tree_5_3_u10_r1_network.client[48] 	avg_time[48] 	0.005411143107
scalar tree_5_3_u10_r1_network.client[49] 	hdistance[49] 	3.231508086364
scalar tree_5_3_u10_r1_network.client[49] 	downloads[49] 	12181
scalar tree_5_3_u10_r1_network.client[49] 	avg_time[49] 	0.005450269375
scalar tree_5_3_u10_r1_network.client[50] 	hdistance[50] 	3.1342615614122
scalar tree_5_3_u10_r1_network.client[50] 	downloads[50] 	12066
scalar tree_5_3_u10_r1_network.client[50] 	avg_time[50] 	0.005280951729
scalar tree_5_3_u10_r1_network.client[51] 	hdistance[51] 	3.0939558149229
scalar tree_5_3_u10_r1_network.client[51] 	downloads[51] 	11995
scalar tree_5_3_u10_r1_network.client[51] 	avg_time[51] 	0.005192493888
scalar tree_5_3_u10_r1_network.client[52] 	hdistance[52] 	3.142133244725
scalar tree_5_3_u10_r1_network.client[52] 	downloads[52] 	12038
scalar tree_5_3_u10_r1_network.client[52] 	avg_time[52] 	0.005284429604
scalar tree_5_3_u10_r1_network.client[53] 	hdistance[53] 	3.2481874894621
scalar tree_5_3_u10_r1_network.client[53] 	downloads[53] 	11862
scalar tree_5_3_u10_r1_network.client[53] 	avg_time[53] 	0.005472935817
scalar tree_5_3_u10_r1_network.client[54] 	hdistance[54] 	3.101982043029
scalar tree_5_3_u10_r1_network.client[54] 	downloads[54] 	11806
scalar tree_5_3_u10_r1_network.client[54] 	avg_time[54] 	0.005216497123
scalar tree_5_3_u10_r1_network.client[55] 	hdistance[55] 	3.1089619055663
scalar tree_5_3_u10_r1_network.client[55] 	downloads[55] 	11839
scalar tree_5_3_u10_r1_network.client[55] 	avg_time[55] 	0.00522831024
scalar tree_5_3_u10_r1_network.client[56] 	hdistance[56] 	3.1333167413307
scalar tree_5_3_u10_r1_network.client[56] 	downloads[56] 	12054
scalar tree_5_3_u10_r1_network.client[56] 	avg_time[56] 	0.005272492874
scalar tree_5_3_u10_r1_network.client[57] 	hdistance[57] 	3.1495041952708
scalar tree_5_3_u10_r1_network.client[57] 	downloads[57] 	11799
scalar tree_5_3_u10_r1_network.client[57] 	avg_time[57] 	0.005301587056
scalar tree_5_3_u10_r1_network.client[58] 	hdistance[58] 	3.205496616824
scalar tree_5_3_u10_r1_network.client[58] 	downloads[58] 	11971
scalar tree_5_3_u10_r1_network.client[58] 	avg_time[58] 	0.005394964342
scalar tree_5_3_u10_r1_network.client[59] 	hdistance[59] 	3.1420963651733
scalar tree_5_3_u10_r1_network.client[59] 	downloads[59] 	11830
scalar tree_5_3_u10_r1_network.client[59] 	avg_time[59] 	0.005294758567
scalar tree_5_3_u10_r1_network.client[60] 	hdistance[60] 	3.1667216087028
scalar tree_5_3_u10_r1_network.client[60] 	downloads[60] 	12134
scalar tree_5_3_u10_r1_network.client[60] 	avg_time[60] 	0.005318441003
scalar tree_5_3_u10_r1_network.client[61] 	hdistance[61] 	3.1311088641726
scalar tree_5_3_u10_r1_network.client[61] 	downloads[61] 	11868
scalar tree_5_3_u10_r1_network.client[61] 	avg_time[61] 	0.005266405375
scalar tree_5_3_u10_r1_network.client[62] 	hdistance[62] 	3.2004530961571
scalar tree_5_3_u10_r1_network.client[62] 	downloads[62] 	11918
scalar tree_5_3_u10_r1_network.client[62] 	avg_time[62] 	0.00539855381
scalar tree_5_3_u10_r1_network.client[63] 	hdistance[63] 	3.0985365042408
scalar tree_5_3_u10_r1_network.client[63] 	downloads[63] 	12026
scalar tree_5_3_u10_r1_network.client[63] 	avg_time[63] 	0.005209210377
scalar tree_5_3_u10_r1_network.client[64] 	hdistance[64] 	3.1556060223736
scalar tree_5_3_u10_r1_network.client[64] 	downloads[64] 	11889
scalar tree_5_3_u10_r1_network.client[64] 	avg_time[64] 	0.005287089582
scalar tree_5_3_u10_r1_network.client[65] 	hdistance[65] 	3.12902695595
scalar tree_5_3_u10_r1_network.client[65] 	downloads[65] 	12168
scalar tree_5_3_u10_r1_network.client[65] 	avg_time[65] 	0.005258872712
scalar tree_5_3_u10_r1_network.client[66] 	hdistance[66] 	3.2164827816784
scalar tree_5_3_u10_r1_network.client[66] 	downloads[66] 	11964
scalar tree_5_3_u10_r1_network.client[66] 	avg_time[66] 	0.005419024342
scalar tree_5_3_u10_r1_network.client[67] 	hdistance[67] 	3.2455140030186
scalar tree_5_3_u10_r1_network.client[67] 	downloads[67] 	11926
scalar tree_5_3_u10_r1_network.client[67] 	avg_time[67] 	0.005484484711
scalar tree_5_3_u10_r1_network.client[68] 	hdistance[68] 	3.1422611597831
scalar tree_5_3_u10_r1_network.client[68] 	downloads[68] 	11985
scalar tree_5_3_u10_r1_network.client[68] 	avg_time[68] 	0.005281680521
scalar tree_5_3_u10_r1_network.client[69] 	hdistance[69] 	3.1243305594463
scalar tree_5_3_u10_r1_network.client[69] 	downloads[69] 	12137
scalar tree_5_3_u10_r1_network.client[69] 	avg_time[69] 	0.005246363548
scalar tree_5_3_u10_r1_network.client[70] 	hdistance[70] 	3.1787704849846
scalar tree_5_3_u10_r1_network.client[70] 	downloads[70] 	12021
scalar tree_5_3_u10_r1_network.client[70] 	avg_time[70] 	0.00535645652
scalar tree_5_3_u10_r1_network.client[71] 	hdistance[71] 	3.2230191826522
scalar tree_5_3_u10_r1_network.client[71] 	downloads[71] 	11990
scalar tree_5_3_u10_r1_network.client[71] 	avg_time[71] 	0.005439363157
scalar tree_5_3_u10_r1_network.client[72] 	hdistance[72] 	3.0975508163945
scalar tree_5_3_u10_r1_network.client[72] 	downloads[72] 	12004
scalar tree_5_3_u10_r1_network.client[72] 	avg_time[72] 	0.005213592481
scalar tree_5_3_u10_r1_network.client[73] 	hdistance[73] 	3.1432018638709
scalar tree_5_3_u10_r1_network.client[73] 	downloads[73] 	12018
scalar tree_5_3_u10_r1_network.client[73] 	avg_time[73] 	0.005296052914
scalar tree_5_3_u10_r1_network.client[74] 	hdistance[74] 	3.1264749875353
scalar tree_5_3_u10_r1_network.client[74] 	downloads[74] 	12034
scalar tree_5_3_u10_r1_network.client[74] 	avg_time[74] 	0.005255526243
scalar tree_5_3_u10_r1_network.client[75] 	hdistance[75] 	3.215399933621
scalar tree_5_3_u10_r1_network.client[75] 	downloads[75] 	12052
scalar tree_5_3_u10_r1_network.client[75] 	avg_time[75] 	0.005423281523
scalar tree_5_3_u10_r1_network.client[76] 	hdistance[76] 	3.1817360597848
scalar tree_5_3_u10_r1_network.client[76] 	downloads[76] 	12177
scalar tree_5_3_u10_r1_network.client[76] 	avg_time[76] 	0.005367328814
scalar tree_5_3_u10_r1_network.client[77] 	hdistance[77] 	3.1378328588176
scalar tree_5_3_u10_r1_network.client[77] 	downloads[77] 	11942
scalar tree_5_3_u10_r1_network.client[77] 	avg_time[77] 	0.005278491177
scalar tree_5_3_u10_r1_network.client[78] 	hdistance[78] 	3.1176619007569
scalar tree_5_3_u10_r1_network.client[78] 	downloads[78] 	11890
scalar tree_5_3_u10_r1_network.client[78] 	avg_time[78] 	0.00523689424
scalar tree_5_3_u10_r1_network.client[79] 	hdistance[79] 	3.1322279269422
scalar tree_5_3_u10_r1_network.client[79] 	downloads[79] 	11881
scalar tree_5_3_u10_r1_network.client[79] 	avg_time[79] 	0.005274903345
scalar tree_5_3_u10_r1_network.client[80] 	hdistance[80] 	3.2660375796705
scalar tree_5_3_u10_r1_network.client[80] 	downloads[80] 	12081
scalar tree_5_3_u10_r1_network.client[80] 	avg_time[80] 	0.005482403009
scalar tree_5_3_u10_r1_network.client[81] 	hdistance[81] 	3.1216438807445
scalar tree_5_3_u10_r1_network.client[81] 	downloads[81] 	12142
scalar tree_5_3_u10_r1_network.client[81] 	avg_time[81] 	0.005247402662
scalar tree_5_3_u10_r1_network.client[82] 	hdistance[82] 	3.1303589232303
scalar tree_5_3_u10_r1_network.client[82] 	downloads[82] 	12036
scalar tree_5_3_u10_r1_network.client[82] 	avg_time[82] 	0.005265300744
scalar tree_5_3_u10_r1_network.client[83] 	hdistance[83] 	3.1799517912061
scalar tree_5_3_u10_r1_network.client[83] 	downloads[83] 	12031
scalar tree_5_3_u10_r1_network.client[83] 	avg_time[83] 	0.005337874161
scalar tree_5_3_u10_r1_network.client[84] 	hdistance[84] 	3.1833068760966
scalar tree_5_3_u10_r1_network.client[84] 	downloads[84] 	11969
scalar tree_5_3_u10_r1_network.client[84] 	avg_time[84] 	0.005355331598
scalar tree_5_3_u10_r1_network.client[85] 	hdistance[85] 	3.2009521423202
scalar tree_5_3_u10_r1_network.client[85] 	downloads[85] 	11973
scalar tree_5_3_u10_r1_network.client[85] 	avg_time[85] 	0.005404323446
scalar tree_5_3_u10_r1_network.client[86] 	hdistance[86] 	3.1514465408805
scalar tree_5_3_u10_r1_network.client[86] 	downloads[86] 	11925
scalar tree_5_3_u10_r1_network.client[86] 	avg_time[86] 	0.005304315694
scalar tree_5_3_u10_r1_network.client[87] 	hdistance[87] 	3.1155291955559
scalar tree_5_3_u10_r1_network.client[87] 	downloads[87] 	11971
scalar tree_5_3_u10_r1_network.client[87] 	avg_time[87] 	0.005246008182
scalar tree_5_3_u10_r1_network.client[88] 	hdistance[88] 	3.1402907071697
scalar tree_5_3_u10_r1_network.client[88] 	downloads[88] 	12246
scalar tree_5_3_u10_r1_network.client[88] 	avg_time[88] 	0.005288744298
scalar tree_5_3_u10_r1_network.client[89] 	hdistance[89] 	3.2181303116147
scalar tree_5_3_u10_r1_network.client[89] 	downloads[89] 	12002
scalar tree_5_3_u10_r1_network.client[89] 	avg_time[89] 	0.00542559273
scalar tree_5_3_u10_r1_network.client[90] 	hdistance[90] 	3.0844307384564
scalar tree_5_3_u10_r1_network.client[90] 	downloads[90] 	11998
scalar tree_5_3_u10_r1_network.client[90] 	avg_time[90] 	0.005186362919
scalar tree_5_3_u10_r1_network.client[91] 	hdistance[91] 	3.1679716475727
scalar tree_5_3_u10_r1_network.client[91] 	downloads[91] 	12133
scalar tree_5_3_u10_r1_network.client[91] 	avg_time[91] 	0.005320675319
scalar tree_5_3_u10_r1_network.client[92] 	hdistance[92] 	3.1548021643558
scalar tree_5_3_u10_r1_network.client[92] 	downloads[92] 	11828
scalar tree_5_3_u10_r1_network.client[92] 	avg_time[92] 	0.005292861413
scalar tree_5_3_u10_r1_network.client[93] 	hdistance[93] 	3.2040215379438
scalar tree_5_3_u10_r1_network.client[93] 	downloads[93] 	11886
scalar tree_5_3_u10_r1_network.client[93] 	avg_time[93] 	0.005397603262
scalar tree_5_3_u10_r1_network.client[94] 	hdistance[94] 	3.2578673494673
scalar tree_5_3_u10_r1_network.client[94] 	downloads[94] 	12107
scalar tree_5_3_u10_r1_network.client[94] 	avg_time[94] 	0.005505241898
scalar tree_5_3_u10_r1_network.client[95] 	hdistance[95] 	3.155980219596
scalar tree_5_3_u10_r1_network.client[95] 	downloads[95] 	11931
scalar tree_5_3_u10_r1_network.client[95] 	avg_time[95] 	0.005314052833
scalar tree_5_3_u10_r1_network.client[96] 	hdistance[96] 	3.1240882032364
scalar tree_5_3_u10_r1_network.client[96] 	downloads[96] 	11927
scalar tree_5_3_u10_r1_network.client[96] 	avg_time[96] 	0.005251778663
scalar tree_5_3_u10_r1_network.client[97] 	hdistance[97] 	3.1362699001897
scalar tree_5_3_u10_r1_network.client[97] 	downloads[97] 	12123
scalar tree_5_3_u10_r1_network.client[97] 	avg_time[97] 	0.005272784241
scalar tree_5_3_u10_r1_network.client[98] 	hdistance[98] 	3.181491689635
scalar tree_5_3_u10_r1_network.client[98] 	downloads[98] 	11973
scalar tree_5_3_u10_r1_network.client[98] 	avg_time[98] 	0.005369077431
scalar tree_5_3_u10_r1_network.client[99] 	hdistance[99] 	3.1270667226185
scalar tree_5_3_u10_r1_network.client[99] 	downloads[99] 	11915
scalar tree_5_3_u10_r1_network.client[99] 	avg_time[99] 	0.005249084067
scalar tree_5_3_u10_r1_network.client[100] 	hdistance[100] 	3.1726086595197
scalar tree_5_3_u10_r1_network.client[100] 	downloads[100] 	12033
scalar tree_5_3_u10_r1_network.client[100] 	avg_time[100] 	0.005329693178
scalar tree_5_3_u10_r1_network.client[101] 	hdistance[101] 	3.0843233363795
scalar tree_5_3_u10_r1_network.client[101] 	downloads[101] 	12037
scalar tree_5_3_u10_r1_network.client[101] 	avg_time[101] 	0.005175952808
scalar tree_5_3_u10_r1_network.client[102] 	hdistance[102] 	3.1578773895847
scalar tree_5_3_u10_r1_network.client[102] 	downloads[102] 	12136
scalar tree_5_3_u10_r1_network.client[102] 	avg_time[102] 	0.00532259472
scalar tree_5_3_u10_r1_network.client[103] 	hdistance[103] 	3.1983738488343
scalar tree_5_3_u10_r1_network.client[103] 	downloads[103] 	12053
scalar tree_5_3_u10_r1_network.client[103] 	avg_time[103] 	0.005404128777
scalar tree_5_3_u10_r1_network.client[104] 	hdistance[104] 	3.1223880597015
scalar tree_5_3_u10_r1_network.client[104] 	downloads[104] 	12060
scalar tree_5_3_u10_r1_network.client[104] 	avg_time[104] 	0.005253894166
scalar tree_5_3_u10_r1_network.client[105] 	hdistance[105] 	3.0973889681807
scalar tree_5_3_u10_r1_network.client[105] 	downloads[105] 	11911
scalar tree_5_3_u10_r1_network.client[105] 	avg_time[105] 	0.005209223658
scalar tree_5_3_u10_r1_network.client[106] 	hdistance[106] 	3.1227762465547
scalar tree_5_3_u10_r1_network.client[106] 	downloads[106] 	11973
scalar tree_5_3_u10_r1_network.client[106] 	avg_time[106] 	0.005264007672
scalar tree_5_3_u10_r1_network.client[107] 	hdistance[107] 	3.2472666105971
scalar tree_5_3_u10_r1_network.client[107] 	downloads[107] 	11890
scalar tree_5_3_u10_r1_network.client[107] 	avg_time[107] 	0.005469130725
scalar tree_5_3_u10_r1_network.client[108] 	hdistance[108] 	3.1397218964651
scalar tree_5_3_u10_r1_network.client[108] 	downloads[108] 	11938
scalar tree_5_3_u10_r1_network.client[108] 	avg_time[108] 	0.005278435588
scalar tree_5_3_u10_r1_network.client[109] 	hdistance[109] 	3.0923217550274
scalar tree_5_3_u10_r1_network.client[109] 	downloads[109] 	12034
scalar tree_5_3_u10_r1_network.client[109] 	avg_time[109] 	0.005201924875
scalar tree_5_3_u10_r1_network.client[110] 	hdistance[110] 	3.1603970306114
scalar tree_5_3_u10_r1_network.client[110] 	downloads[110] 	11989
scalar tree_5_3_u10_r1_network.client[110] 	avg_time[110] 	0.005300188863
scalar tree_5_3_u10_r1_network.client[111] 	hdistance[111] 	3.1282281059063
scalar tree_5_3_u10_r1_network.client[111] 	downloads[111] 	12275
scalar tree_5_3_u10_r1_network.client[111] 	avg_time[111] 	0.005256693041
scalar tree_5_3_u10_r1_network.client[112] 	hdistance[112] 	3.2236664415935
scalar tree_5_3_u10_r1_network.client[112] 	downloads[112] 	11848
scalar tree_5_3_u10_r1_network.client[112] 	avg_time[112] 	0.005424485013
scalar tree_5_3_u10_r1_network.client[113] 	hdistance[113] 	3.1189252926809
scalar tree_5_3_u10_r1_network.client[113] 	downloads[113] 	11873
scalar tree_5_3_u10_r1_network.client[113] 	avg_time[113] 	0.005248986274
scalar tree_5_3_u10_r1_network.client[114] 	hdistance[114] 	3.157947184853
scalar tree_5_3_u10_r1_network.client[114] 	downloads[114] 	12042
scalar tree_5_3_u10_r1_network.client[114] 	avg_time[114] 	0.005303825803
scalar tree_5_3_u10_r1_network.client[115] 	hdistance[115] 	3.1210362519976
scalar tree_5_3_u10_r1_network.client[115] 	downloads[115] 	11889
scalar tree_5_3_u10_r1_network.client[115] 	avg_time[115] 	0.005253363704
scalar tree_5_3_u10_r1_network.client[116] 	hdistance[116] 	3.1942667220607
scalar tree_5_3_u10_r1_network.client[116] 	downloads[116] 	12035
scalar tree_5_3_u10_r1_network.client[116] 	avg_time[116] 	0.005379805892
scalar tree_5_3_u10_r1_network.client[117] 	hdistance[117] 	3.1635204504057
scalar tree_5_3_u10_r1_network.client[117] 	downloads[117] 	12078
scalar tree_5_3_u10_r1_network.client[117] 	avg_time[117] 	0.005311141223
scalar tree_5_3_u10_r1_network.client[118] 	hdistance[118] 	3.1662806088683
scalar tree_5_3_u10_r1_network.client[118] 	downloads[118] 	12088
scalar tree_5_3_u10_r1_network.client[118] 	avg_time[118] 	0.005315100564
scalar tree_5_3_u10_r1_network.client[119] 	hdistance[119] 	3.1279129103589
scalar tree_5_3_u10_r1_network.client[119] 	downloads[119] 	11758
scalar tree_5_3_u10_r1_network.client[119] 	avg_time[119] 	0.00525208073
scalar tree_5_3_u10_r1_network.client[120] 	hdistance[120] 	3.2310121322918
scalar tree_5_3_u10_r1_network.client[120] 	downloads[120] 	12034
scalar tree_5_3_u10_r1_network.client[120] 	avg_time[120] 	0.005406844277
