version 2
run General-119-20160831-21:51:26-8710
attr a 0.9
attr cd tfc
attr configname General
attr cr lru
attr datetime 20160831-21:51:26
attr experiment General
attr fsize 1
attr inifile hw5115/scenario_Y/omnetp.ini
attr iterationvars "$name=tree_4_3, $un=01, $rep=20, $cd=tfc, $cr=lru, $fsize=1, $a=0.9, $sl=nrr, $ttl=1000, $variance=0.05"
attr iterationvars2 "$name=tree_4_3, $un=01, $rep=20, $cd=tfc, $cr=lru, $fsize=1, $a=0.9, $sl=nrr, $ttl=1000, $variance=0.05, $repetition=0"
attr measurement "$name=tree_4_3, $un=01, $rep=20, $cd=tfc, $cr=lru, $fsize=1, $a=0.9, $sl=nrr, $ttl=1000, $variance=0.05"
attr name tree_4_3
attr network networks.${name}_u${un}_r${rep}_network
attr processid 8710
attr rep 20
attr repetition 0
attr replication #0
attr resultdir results
attr runnumber 119
attr seedset 20
attr sl nrr
attr ttl 1000
attr un 01
attr variance 0.05

scalar . 	a 	0.9
scalar . 	fsize 	1
scalar . 	rep 	20
scalar . 	ttl 	1000
scalar . 	un 	01
scalar . 	variance 	0.05
scalar tree_4_3_u01_r20_network.content_distribution 	repo-0 	0
scalar tree_4_3_u01_r20_network.content_distribution 	client-0 	13
scalar tree_4_3_u01_r20_network.content_distribution 	client-1 	14
scalar tree_4_3_u01_r20_network.content_distribution 	client-2 	15
scalar tree_4_3_u01_r20_network.content_distribution 	client-3 	16
scalar tree_4_3_u01_r20_network.content_distribution 	client-4 	17
scalar tree_4_3_u01_r20_network.content_distribution 	client-5 	18
scalar tree_4_3_u01_r20_network.content_distribution 	client-6 	19
scalar tree_4_3_u01_r20_network.content_distribution 	client-7 	20
scalar tree_4_3_u01_r20_network.content_distribution 	client-8 	21
scalar tree_4_3_u01_r20_network.content_distribution 	client-9 	22
scalar tree_4_3_u01_r20_network.content_distribution 	client-10 	23
scalar tree_4_3_u01_r20_network.content_distribution 	client-11 	24
scalar tree_4_3_u01_r20_network.content_distribution 	client-12 	25
scalar tree_4_3_u01_r20_network.content_distribution 	client-13 	26
scalar tree_4_3_u01_r20_network.content_distribution 	client-14 	27
scalar tree_4_3_u01_r20_network.content_distribution 	client-15 	28
scalar tree_4_3_u01_r20_network.content_distribution 	client-16 	29
scalar tree_4_3_u01_r20_network.content_distribution 	client-17 	30
scalar tree_4_3_u01_r20_network.content_distribution 	client-18 	31
scalar tree_4_3_u01_r20_network.content_distribution 	client-19 	32
scalar tree_4_3_u01_r20_network.content_distribution 	client-20 	33
scalar tree_4_3_u01_r20_network.content_distribution 	client-21 	34
scalar tree_4_3_u01_r20_network.content_distribution 	client-22 	35
scalar tree_4_3_u01_r20_network.content_distribution 	client-23 	36
scalar tree_4_3_u01_r20_network.content_distribution 	client-24 	37
scalar tree_4_3_u01_r20_network.content_distribution 	client-25 	38
scalar tree_4_3_u01_r20_network.content_distribution 	client-26 	39
scalar tree_4_3_u01_r20_network.content_distribution 	repo-0_card 	100000
scalar tree_4_3_u01_r20_network.content_distribution 	repo-0_price 	0
scalar tree_4_3_u01_r20_network.statistics 	stabilization_time 	1755.2
scalar tree_4_3_u01_r20_network.statistics 	p_hit 	0.21629104021995
scalar tree_4_3_u01_r20_network.statistics 	interests 	24704.825
scalar tree_4_3_u01_r20_network.statistics 	data 	16591.925
scalar tree_4_3_u01_r20_network.statistics 	hdistance 	2.6603238806162
scalar tree_4_3_u01_r20_network.statistics 	avg_time 	0.00409019148
scalar tree_4_3_u01_r20_network.statistics 	downloads 	324513
scalar tree_4_3_u01_r20_network.statistics 	total_cost 	0
scalar tree_4_3_u01_r20_network.statistics 	total_replicas 	100000
scalar tree_4_3_u01_r20_network.statistics 	inner_hit 	0.3847580836515
scalar tree_4_3_u01_r20_network.node[0].core_layer 	interests[0] 	203610
scalar tree_4_3_u01_r20_network.node[0].core_layer 	repo_load[0] 	199654
scalar tree_4_3_u01_r20_network.node[0].core_layer 	data[0] 	0
scalar tree_4_3_u01_r20_network.node[0].core_layer 	repo_int[0] 	199654
scalar tree_4_3_u01_r20_network.node[0].content_store 	p_hit[0] 	0.019429301114876
scalar tree_4_3_u01_r20_network.node[0].content_store 	hits[0] 	3956
scalar tree_4_3_u01_r20_network.node[0].content_store 	misses[0] 	199654
scalar tree_4_3_u01_r20_network.node[0].content_store 	decision_yes[0] 	1055
scalar tree_4_3_u01_r20_network.node[0].content_store 	decision_no[0] 	198599
scalar tree_4_3_u01_r20_network.node[0].content_store 	decision_ratio[0] 	0.0052841415649073
scalar tree_4_3_u01_r20_network.node[1].core_layer 	interests[1] 	70059
scalar tree_4_3_u01_r20_network.node[1].core_layer 	data[1] 	68116
scalar tree_4_3_u01_r20_network.node[1].content_store 	p_hit[1] 	0.027719493569706
scalar tree_4_3_u01_r20_network.node[1].content_store 	hits[1] 	1942
scalar tree_4_3_u01_r20_network.node[1].content_store 	misses[1] 	68117
scalar tree_4_3_u01_r20_network.node[1].content_store 	decision_yes[1] 	84
scalar tree_4_3_u01_r20_network.node[1].content_store 	decision_no[1] 	68032
scalar tree_4_3_u01_r20_network.node[1].content_store 	decision_ratio[1] 	0.0012331904398379
scalar tree_4_3_u01_r20_network.node[2].core_layer 	interests[2] 	73178
scalar tree_4_3_u01_r20_network.node[2].core_layer 	data[2] 	70259
scalar tree_4_3_u01_r20_network.node[2].content_store 	p_hit[2] 	0.039875372379677
scalar tree_4_3_u01_r20_network.node[2].content_store 	hits[2] 	2918
scalar tree_4_3_u01_r20_network.node[2].content_store 	misses[2] 	70260
scalar tree_4_3_u01_r20_network.node[2].content_store 	decision_yes[2] 	115
scalar tree_4_3_u01_r20_network.node[2].content_store 	decision_no[2] 	70144
scalar tree_4_3_u01_r20_network.node[2].content_store 	decision_ratio[2] 	0.001636800979234
scalar tree_4_3_u01_r20_network.node[3].core_layer 	interests[3] 	72501
scalar tree_4_3_u01_r20_network.node[3].core_layer 	data[3] 	70265
scalar tree_4_3_u01_r20_network.node[3].content_store 	p_hit[3] 	0.030840953917877
scalar tree_4_3_u01_r20_network.node[3].content_store 	hits[3] 	2236
scalar tree_4_3_u01_r20_network.node[3].content_store 	misses[3] 	70265
scalar tree_4_3_u01_r20_network.node[3].content_store 	decision_yes[3] 	95
scalar tree_4_3_u01_r20_network.node[3].content_store 	decision_no[3] 	70170
scalar tree_4_3_u01_r20_network.node[3].content_store 	decision_ratio[3] 	0.001352024478759
scalar tree_4_3_u01_r20_network.node[4].core_layer 	interests[4] 	25658
scalar tree_4_3_u01_r20_network.node[4].core_layer 	data[4] 	24081
scalar tree_4_3_u01_r20_network.node[4].content_store 	p_hit[4] 	0.061462311949489
scalar tree_4_3_u01_r20_network.node[4].content_store 	hits[4] 	1577
scalar tree_4_3_u01_r20_network.node[4].content_store 	misses[4] 	24081
scalar tree_4_3_u01_r20_network.node[4].content_store 	decision_yes[4] 	43
scalar tree_4_3_u01_r20_network.node[4].content_store 	decision_no[4] 	24038
scalar tree_4_3_u01_r20_network.node[4].content_store 	decision_ratio[4] 	0.0017856401312238
scalar tree_4_3_u01_r20_network.node[5].core_layer 	interests[5] 	27102
scalar tree_4_3_u01_r20_network.node[5].core_layer 	data[5] 	24451
scalar tree_4_3_u01_r20_network.node[5].content_store 	p_hit[5] 	0.097778761715003
scalar tree_4_3_u01_r20_network.node[5].content_store 	hits[5] 	2650
scalar tree_4_3_u01_r20_network.node[5].content_store 	misses[5] 	24452
scalar tree_4_3_u01_r20_network.node[5].content_store 	decision_yes[5] 	89
scalar tree_4_3_u01_r20_network.node[5].content_store 	decision_no[5] 	24362
scalar tree_4_3_u01_r20_network.node[5].content_store 	decision_ratio[5] 	0.0036399329270786
scalar tree_4_3_u01_r20_network.node[6].core_layer 	interests[6] 	26824
scalar tree_4_3_u01_r20_network.node[6].core_layer 	data[6] 	24709
scalar tree_4_3_u01_r20_network.node[6].content_store 	p_hit[6] 	0.078847300924545
scalar tree_4_3_u01_r20_network.node[6].content_store 	hits[6] 	2115
scalar tree_4_3_u01_r20_network.node[6].content_store 	misses[6] 	24709
scalar tree_4_3_u01_r20_network.node[6].content_store 	decision_yes[6] 	68
scalar tree_4_3_u01_r20_network.node[6].content_store 	decision_no[6] 	24641
scalar tree_4_3_u01_r20_network.node[6].content_store 	decision_ratio[6] 	0.0027520336719414
scalar tree_4_3_u01_r20_network.node[7].core_layer 	interests[7] 	26355
scalar tree_4_3_u01_r20_network.node[7].core_layer 	data[7] 	24538
scalar tree_4_3_u01_r20_network.node[7].content_store 	p_hit[7] 	0.068943274520964
scalar tree_4_3_u01_r20_network.node[7].content_store 	hits[7] 	1817
scalar tree_4_3_u01_r20_network.node[7].content_store 	misses[7] 	24538
scalar tree_4_3_u01_r20_network.node[7].content_store 	decision_yes[7] 	59
scalar tree_4_3_u01_r20_network.node[7].content_store 	decision_no[7] 	24479
scalar tree_4_3_u01_r20_network.node[7].content_store 	decision_ratio[7] 	0.0024044339391963
scalar tree_4_3_u01_r20_network.node[8].core_layer 	interests[8] 	26367
scalar tree_4_3_u01_r20_network.node[8].core_layer 	data[8] 	24566
scalar tree_4_3_u01_r20_network.node[8].content_store 	p_hit[8] 	0.068305078317594
scalar tree_4_3_u01_r20_network.node[8].content_store 	hits[8] 	1801
scalar tree_4_3_u01_r20_network.node[8].content_store 	misses[8] 	24566
scalar tree_4_3_u01_r20_network.node[8].content_store 	decision_yes[8] 	33
scalar tree_4_3_u01_r20_network.node[8].content_store 	decision_no[8] 	24533
scalar tree_4_3_u01_r20_network.node[8].content_store 	decision_ratio[8] 	0.0013433200358219
scalar tree_4_3_u01_r20_network.node[9].core_layer 	interests[9] 	27056
scalar tree_4_3_u01_r20_network.node[9].core_layer 	data[9] 	24851
scalar tree_4_3_u01_r20_network.node[9].content_store 	p_hit[9] 	0.081497634535778
scalar tree_4_3_u01_r20_network.node[9].content_store 	hits[9] 	2205
scalar tree_4_3_u01_r20_network.node[9].content_store 	misses[9] 	24851
scalar tree_4_3_u01_r20_network.node[9].content_store 	decision_yes[9] 	67
scalar tree_4_3_u01_r20_network.node[9].content_store 	decision_no[9] 	24784
scalar tree_4_3_u01_r20_network.node[9].content_store 	decision_ratio[9] 	0.0026960685686693
scalar tree_4_3_u01_r20_network.node[10].core_layer 	interests[10] 	26514
scalar tree_4_3_u01_r20_network.node[10].core_layer 	data[10] 	24689
scalar tree_4_3_u01_r20_network.node[10].content_store 	p_hit[10] 	0.068831560684921
scalar tree_4_3_u01_r20_network.node[10].content_store 	hits[10] 	1825
scalar tree_4_3_u01_r20_network.node[10].content_store 	misses[10] 	24689
scalar tree_4_3_u01_r20_network.node[10].content_store 	decision_yes[10] 	57
scalar tree_4_3_u01_r20_network.node[10].content_store 	decision_no[10] 	24632
scalar tree_4_3_u01_r20_network.node[10].content_store 	decision_ratio[10] 	0.0023087204828061
scalar tree_4_3_u01_r20_network.node[11].core_layer 	interests[11] 	26542
scalar tree_4_3_u01_r20_network.node[11].core_layer 	data[11] 	24775
scalar tree_4_3_u01_r20_network.node[11].content_store 	p_hit[11] 	0.066573732198026
scalar tree_4_3_u01_r20_network.node[11].content_store 	hits[11] 	1767
scalar tree_4_3_u01_r20_network.node[11].content_store 	misses[11] 	24775
scalar tree_4_3_u01_r20_network.node[11].content_store 	decision_yes[11] 	58
scalar tree_4_3_u01_r20_network.node[11].content_store 	decision_no[11] 	24717
scalar tree_4_3_u01_r20_network.node[11].content_store 	decision_ratio[11] 	0.0023410696266398
scalar tree_4_3_u01_r20_network.node[12].core_layer 	interests[12] 	26405
scalar tree_4_3_u01_r20_network.node[12].core_layer 	data[12] 	24585
scalar tree_4_3_u01_r20_network.node[12].content_store 	p_hit[12] 	0.068964211323613
scalar tree_4_3_u01_r20_network.node[12].content_store 	hits[12] 	1821
scalar tree_4_3_u01_r20_network.node[12].content_store 	misses[12] 	24584
scalar tree_4_3_u01_r20_network.node[12].content_store 	decision_yes[12] 	82
scalar tree_4_3_u01_r20_network.node[12].content_store 	decision_no[12] 	24503
scalar tree_4_3_u01_r20_network.node[12].content_store 	decision_ratio[12] 	0.0033353670937564
scalar tree_4_3_u01_r20_network.node[13].core_layer 	interests[13] 	12168
scalar tree_4_3_u01_r20_network.node[13].core_layer 	data[13] 	8687
scalar tree_4_3_u01_r20_network.node[13].content_store 	p_hit[13] 	0.28607823800131
scalar tree_4_3_u01_r20_network.node[13].content_store 	hits[13] 	3481
scalar tree_4_3_u01_r20_network.node[13].content_store 	misses[13] 	8687
scalar tree_4_3_u01_r20_network.node[13].content_store 	decision_yes[13] 	28
scalar tree_4_3_u01_r20_network.node[13].content_store 	decision_no[13] 	8659
scalar tree_4_3_u01_r20_network.node[13].content_store 	decision_ratio[13] 	0.0032232070910556
scalar tree_4_3_u01_r20_network.node[14].core_layer 	interests[14] 	11986
scalar tree_4_3_u01_r20_network.node[14].core_layer 	data[14] 	8469
scalar tree_4_3_u01_r20_network.node[14].content_store 	p_hit[14] 	0.29342566327382
scalar tree_4_3_u01_r20_network.node[14].content_store 	hits[14] 	3517
scalar tree_4_3_u01_r20_network.node[14].content_store 	misses[14] 	8469
scalar tree_4_3_u01_r20_network.node[14].content_store 	decision_yes[14] 	19
scalar tree_4_3_u01_r20_network.node[14].content_store 	decision_no[14] 	8450
scalar tree_4_3_u01_r20_network.node[14].content_store 	decision_ratio[14] 	0.0022434762073444
scalar tree_4_3_u01_r20_network.node[15].core_layer 	interests[15] 	12426
scalar tree_4_3_u01_r20_network.node[15].core_layer 	data[15] 	8672
scalar tree_4_3_u01_r20_network.node[15].content_store 	p_hit[15] 	0.30210848221471
scalar tree_4_3_u01_r20_network.node[15].content_store 	hits[15] 	3754
scalar tree_4_3_u01_r20_network.node[15].content_store 	misses[15] 	8672
scalar tree_4_3_u01_r20_network.node[15].content_store 	decision_yes[15] 	54
scalar tree_4_3_u01_r20_network.node[15].content_store 	decision_no[15] 	8618
scalar tree_4_3_u01_r20_network.node[15].content_store 	decision_ratio[15] 	0.0062269372693727
scalar tree_4_3_u01_r20_network.node[16].core_layer 	interests[16] 	12257
scalar tree_4_3_u01_r20_network.node[16].core_layer 	data[16] 	8711
scalar tree_4_3_u01_r20_network.node[16].content_store 	p_hit[16] 	0.28930407114302
scalar tree_4_3_u01_r20_network.node[16].content_store 	hits[16] 	3546
scalar tree_4_3_u01_r20_network.node[16].content_store 	misses[16] 	8711
scalar tree_4_3_u01_r20_network.node[16].content_store 	decision_yes[16] 	27
scalar tree_4_3_u01_r20_network.node[16].content_store 	decision_no[16] 	8684
scalar tree_4_3_u01_r20_network.node[16].content_store 	decision_ratio[16] 	0.0030995293307313
scalar tree_4_3_u01_r20_network.node[17].core_layer 	interests[17] 	12133
scalar tree_4_3_u01_r20_network.node[17].core_layer 	data[17] 	8506
scalar tree_4_3_u01_r20_network.node[17].content_store 	p_hit[17] 	0.29893678397758
scalar tree_4_3_u01_r20_network.node[17].content_store 	hits[17] 	3627
scalar tree_4_3_u01_r20_network.node[17].content_store 	misses[17] 	8506
scalar tree_4_3_u01_r20_network.node[17].content_store 	decision_yes[17] 	26
scalar tree_4_3_u01_r20_network.node[17].content_store 	decision_no[17] 	8480
scalar tree_4_3_u01_r20_network.node[17].content_store 	decision_ratio[17] 	0.0030566658829062
scalar tree_4_3_u01_r20_network.node[18].core_layer 	interests[18] 	12261
scalar tree_4_3_u01_r20_network.node[18].core_layer 	data[18] 	8548
scalar tree_4_3_u01_r20_network.node[18].content_store 	p_hit[18] 	0.30274855232037
scalar tree_4_3_u01_r20_network.node[18].content_store 	hits[18] 	3712
scalar tree_4_3_u01_r20_network.node[18].content_store 	misses[18] 	8549
scalar tree_4_3_u01_r20_network.node[18].content_store 	decision_yes[18] 	17
scalar tree_4_3_u01_r20_network.node[18].content_store 	decision_no[18] 	8531
scalar tree_4_3_u01_r20_network.node[18].content_store 	decision_ratio[18] 	0.0019887693027609
scalar tree_4_3_u01_r20_network.node[19].core_layer 	interests[19] 	12230
scalar tree_4_3_u01_r20_network.node[19].core_layer 	data[19] 	8714
scalar tree_4_3_u01_r20_network.node[19].content_store 	p_hit[19] 	0.2874897792314
scalar tree_4_3_u01_r20_network.node[19].content_store 	hits[19] 	3516
scalar tree_4_3_u01_r20_network.node[19].content_store 	misses[19] 	8714
scalar tree_4_3_u01_r20_network.node[19].content_store 	decision_yes[19] 	26
scalar tree_4_3_u01_r20_network.node[19].content_store 	decision_no[19] 	8688
scalar tree_4_3_u01_r20_network.node[19].content_store 	decision_ratio[19] 	0.0029837043837503
scalar tree_4_3_u01_r20_network.node[20].core_layer 	interests[20] 	12138
scalar tree_4_3_u01_r20_network.node[20].core_layer 	data[20] 	8570
scalar tree_4_3_u01_r20_network.node[20].content_store 	p_hit[20] 	0.29395287526775
scalar tree_4_3_u01_r20_network.node[20].content_store 	hits[20] 	3568
scalar tree_4_3_u01_r20_network.node[20].content_store 	misses[20] 	8570
scalar tree_4_3_u01_r20_network.node[20].content_store 	decision_yes[20] 	39
scalar tree_4_3_u01_r20_network.node[20].content_store 	decision_no[20] 	8531
scalar tree_4_3_u01_r20_network.node[20].content_store 	decision_ratio[20] 	0.0045507584597433
scalar tree_4_3_u01_r20_network.node[21].core_layer 	interests[21] 	12206
scalar tree_4_3_u01_r20_network.node[21].core_layer 	data[21] 	8657
scalar tree_4_3_u01_r20_network.node[21].content_store 	p_hit[21] 	0.29075864329019
scalar tree_4_3_u01_r20_network.node[21].content_store 	hits[21] 	3549
scalar tree_4_3_u01_r20_network.node[21].content_store 	misses[21] 	8657
scalar tree_4_3_u01_r20_network.node[21].content_store 	decision_yes[21] 	20
scalar tree_4_3_u01_r20_network.node[21].content_store 	decision_no[21] 	8637
scalar tree_4_3_u01_r20_network.node[21].content_store 	decision_ratio[21] 	0.0023102691463556
scalar tree_4_3_u01_r20_network.node[22].core_layer 	interests[22] 	12303
scalar tree_4_3_u01_r20_network.node[22].core_layer 	data[22] 	8645
scalar tree_4_3_u01_r20_network.node[22].content_store 	p_hit[22] 	0.2973258554824
scalar tree_4_3_u01_r20_network.node[22].content_store 	hits[22] 	3658
scalar tree_4_3_u01_r20_network.node[22].content_store 	misses[22] 	8645
scalar tree_4_3_u01_r20_network.node[22].content_store 	decision_yes[22] 	28
scalar tree_4_3_u01_r20_network.node[22].content_store 	decision_no[22] 	8617
scalar tree_4_3_u01_r20_network.node[22].content_store 	decision_ratio[22] 	0.0032388663967611
scalar tree_4_3_u01_r20_network.node[23].core_layer 	interests[23] 	12200
scalar tree_4_3_u01_r20_network.node[23].core_layer 	data[23] 	8746
scalar tree_4_3_u01_r20_network.node[23].content_store 	p_hit[23] 	0.28311475409836
scalar tree_4_3_u01_r20_network.node[23].content_store 	hits[23] 	3454
scalar tree_4_3_u01_r20_network.node[23].content_store 	misses[23] 	8746
scalar tree_4_3_u01_r20_network.node[23].content_store 	decision_yes[23] 	25
scalar tree_4_3_u01_r20_network.node[23].content_store 	decision_no[23] 	8721
scalar tree_4_3_u01_r20_network.node[23].content_store 	decision_ratio[23] 	0.0028584495769495
scalar tree_4_3_u01_r20_network.node[24].core_layer 	interests[24] 	12037
scalar tree_4_3_u01_r20_network.node[24].core_layer 	data[24] 	8476
scalar tree_4_3_u01_r20_network.node[24].content_store 	p_hit[24] 	0.29583783334718
scalar tree_4_3_u01_r20_network.node[24].content_store 	hits[24] 	3561
scalar tree_4_3_u01_r20_network.node[24].content_store 	misses[24] 	8476
scalar tree_4_3_u01_r20_network.node[24].content_store 	decision_yes[24] 	30
scalar tree_4_3_u01_r20_network.node[24].content_store 	decision_no[24] 	8446
scalar tree_4_3_u01_r20_network.node[24].content_store 	decision_ratio[24] 	0.0035394053798962
scalar tree_4_3_u01_r20_network.node[25].core_layer 	interests[25] 	12230
scalar tree_4_3_u01_r20_network.node[25].core_layer 	data[25] 	8712
scalar tree_4_3_u01_r20_network.node[25].content_store 	p_hit[25] 	0.28765331152903
scalar tree_4_3_u01_r20_network.node[25].content_store 	hits[25] 	3518
scalar tree_4_3_u01_r20_network.node[25].content_store 	misses[25] 	8712
scalar tree_4_3_u01_r20_network.node[25].content_store 	decision_yes[25] 	20
scalar tree_4_3_u01_r20_network.node[25].content_store 	decision_no[25] 	8692
scalar tree_4_3_u01_r20_network.node[25].content_store 	decision_ratio[25] 	0.0022956841138659
scalar tree_4_3_u01_r20_network.node[26].core_layer 	interests[26] 	12303
scalar tree_4_3_u01_r20_network.node[26].core_layer 	data[26] 	8844
scalar tree_4_3_u01_r20_network.node[26].content_store 	p_hit[26] 	0.28115093879542
scalar tree_4_3_u01_r20_network.node[26].content_store 	hits[26] 	3459
scalar tree_4_3_u01_r20_network.node[26].content_store 	misses[26] 	8844
scalar tree_4_3_u01_r20_network.node[26].content_store 	decision_yes[26] 	23
scalar tree_4_3_u01_r20_network.node[26].content_store 	decision_no[26] 	8821
scalar tree_4_3_u01_r20_network.node[26].content_store 	decision_ratio[26] 	0.0026006331976481
scalar tree_4_3_u01_r20_network.node[27].core_layer 	interests[27] 	12374
scalar tree_4_3_u01_r20_network.node[27].core_layer 	data[27] 	8699
scalar tree_4_3_u01_r20_network.node[27].content_store 	p_hit[27] 	0.29699369646032
scalar tree_4_3_u01_r20_network.node[27].content_store 	hits[27] 	3675
scalar tree_4_3_u01_r20_network.node[27].content_store 	misses[27] 	8699
scalar tree_4_3_u01_r20_network.node[27].content_store 	decision_yes[27] 	38
scalar tree_4_3_u01_r20_network.node[27].content_store 	decision_no[27] 	8661
scalar tree_4_3_u01_r20_network.node[27].content_store 	decision_ratio[27] 	0.004368318197494
scalar tree_4_3_u01_r20_network.node[28].core_layer 	interests[28] 	12341
scalar tree_4_3_u01_r20_network.node[28].core_layer 	data[28] 	8780
scalar tree_4_3_u01_r20_network.node[28].content_store 	p_hit[28] 	0.28855036058666
scalar tree_4_3_u01_r20_network.node[28].content_store 	hits[28] 	3561
scalar tree_4_3_u01_r20_network.node[28].content_store 	misses[28] 	8780
scalar tree_4_3_u01_r20_network.node[28].content_store 	decision_yes[28] 	26
scalar tree_4_3_u01_r20_network.node[28].content_store 	decision_no[28] 	8754
scalar tree_4_3_u01_r20_network.node[28].content_store 	decision_ratio[28] 	0.0029612756264237
scalar tree_4_3_u01_r20_network.node[29].core_layer 	interests[29] 	12419
scalar tree_4_3_u01_r20_network.node[29].core_layer 	data[29] 	8802
scalar tree_4_3_u01_r20_network.node[29].content_store 	p_hit[29] 	0.29124728238989
scalar tree_4_3_u01_r20_network.node[29].content_store 	hits[29] 	3617
scalar tree_4_3_u01_r20_network.node[29].content_store 	misses[29] 	8802
scalar tree_4_3_u01_r20_network.node[29].content_store 	decision_yes[29] 	33
scalar tree_4_3_u01_r20_network.node[29].content_store 	decision_no[29] 	8769
scalar tree_4_3_u01_r20_network.node[29].content_store 	decision_ratio[29] 	0.0037491479209271
scalar tree_4_3_u01_r20_network.node[30].core_layer 	interests[30] 	12024
scalar tree_4_3_u01_r20_network.node[30].core_layer 	data[30] 	8492
scalar tree_4_3_u01_r20_network.node[30].content_store 	p_hit[30] 	0.29374584165003
scalar tree_4_3_u01_r20_network.node[30].content_store 	hits[30] 	3532
scalar tree_4_3_u01_r20_network.node[30].content_store 	misses[30] 	8492
scalar tree_4_3_u01_r20_network.node[30].content_store 	decision_yes[30] 	25
scalar tree_4_3_u01_r20_network.node[30].content_store 	decision_no[30] 	8467
scalar tree_4_3_u01_r20_network.node[30].content_store 	decision_ratio[30] 	0.0029439472444654
scalar tree_4_3_u01_r20_network.node[31].core_layer 	interests[31] 	12214
scalar tree_4_3_u01_r20_network.node[31].core_layer 	data[31] 	8634
scalar tree_4_3_u01_r20_network.node[31].content_store 	p_hit[31] 	0.29310627149173
scalar tree_4_3_u01_r20_network.node[31].content_store 	hits[31] 	3580
scalar tree_4_3_u01_r20_network.node[31].content_store 	misses[31] 	8634
scalar tree_4_3_u01_r20_network.node[31].content_store 	decision_yes[31] 	18
scalar tree_4_3_u01_r20_network.node[31].content_store 	decision_no[31] 	8616
scalar tree_4_3_u01_r20_network.node[31].content_store 	decision_ratio[31] 	0.0020847810979847
scalar tree_4_3_u01_r20_network.node[32].core_layer 	interests[32] 	12228
scalar tree_4_3_u01_r20_network.node[32].core_layer 	data[32] 	8691
scalar tree_4_3_u01_r20_network.node[32].content_store 	p_hit[32] 	0.28925417075564
scalar tree_4_3_u01_r20_network.node[32].content_store 	hits[32] 	3537
scalar tree_4_3_u01_r20_network.node[32].content_store 	misses[32] 	8691
scalar tree_4_3_u01_r20_network.node[32].content_store 	decision_yes[32] 	23
scalar tree_4_3_u01_r20_network.node[32].content_store 	decision_no[32] 	8668
scalar tree_4_3_u01_r20_network.node[32].content_store 	decision_ratio[32] 	0.0026464158324704
scalar tree_4_3_u01_r20_network.node[33].core_layer 	interests[33] 	12336
scalar tree_4_3_u01_r20_network.node[33].core_layer 	data[33] 	8719
scalar tree_4_3_u01_r20_network.node[33].content_store 	p_hit[33] 	0.29320687418936
scalar tree_4_3_u01_r20_network.node[33].content_store 	hits[33] 	3617
scalar tree_4_3_u01_r20_network.node[33].content_store 	misses[33] 	8719
scalar tree_4_3_u01_r20_network.node[33].content_store 	decision_yes[33] 	22
scalar tree_4_3_u01_r20_network.node[33].content_store 	decision_no[33] 	8697
scalar tree_4_3_u01_r20_network.node[33].content_store 	decision_ratio[33] 	0.0025232251404978
scalar tree_4_3_u01_r20_network.node[34].core_layer 	interests[34] 	12070
scalar tree_4_3_u01_r20_network.node[34].core_layer 	data[34] 	8611
scalar tree_4_3_u01_r20_network.node[34].content_store 	p_hit[34] 	0.28649544324772
scalar tree_4_3_u01_r20_network.node[34].content_store 	hits[34] 	3458
scalar tree_4_3_u01_r20_network.node[34].content_store 	misses[34] 	8612
scalar tree_4_3_u01_r20_network.node[34].content_store 	decision_yes[34] 	27
scalar tree_4_3_u01_r20_network.node[34].content_store 	decision_no[34] 	8584
scalar tree_4_3_u01_r20_network.node[34].content_store 	decision_ratio[34] 	0.0031355243293462
scalar tree_4_3_u01_r20_network.node[35].core_layer 	interests[35] 	12310
scalar tree_4_3_u01_r20_network.node[35].core_layer 	data[35] 	8733
scalar tree_4_3_u01_r20_network.node[35].content_store 	p_hit[35] 	0.2906580016247
scalar tree_4_3_u01_r20_network.node[35].content_store 	hits[35] 	3578
scalar tree_4_3_u01_r20_network.node[35].content_store 	misses[35] 	8732
scalar tree_4_3_u01_r20_network.node[35].content_store 	decision_yes[35] 	22
scalar tree_4_3_u01_r20_network.node[35].content_store 	decision_no[35] 	8711
scalar tree_4_3_u01_r20_network.node[35].content_store 	decision_ratio[35] 	0.0025191801213787
scalar tree_4_3_u01_r20_network.node[36].core_layer 	interests[36] 	12278
scalar tree_4_3_u01_r20_network.node[36].core_layer 	data[36] 	8758
scalar tree_4_3_u01_r20_network.node[36].content_store 	p_hit[36] 	0.2866101971005
scalar tree_4_3_u01_r20_network.node[36].content_store 	hits[36] 	3519
scalar tree_4_3_u01_r20_network.node[36].content_store 	misses[36] 	8759
scalar tree_4_3_u01_r20_network.node[36].content_store 	decision_yes[36] 	29
scalar tree_4_3_u01_r20_network.node[36].content_store 	decision_no[36] 	8729
scalar tree_4_3_u01_r20_network.node[36].content_store 	decision_ratio[36] 	0.0033112582781457
scalar tree_4_3_u01_r20_network.node[37].core_layer 	interests[37] 	12199
scalar tree_4_3_u01_r20_network.node[37].core_layer 	data[37] 	8606
scalar tree_4_3_u01_r20_network.node[37].content_store 	p_hit[37] 	0.29461431264858
scalar tree_4_3_u01_r20_network.node[37].content_store 	hits[37] 	3594
scalar tree_4_3_u01_r20_network.node[37].content_store 	misses[37] 	8605
scalar tree_4_3_u01_r20_network.node[37].content_store 	decision_yes[37] 	21
scalar tree_4_3_u01_r20_network.node[37].content_store 	decision_no[37] 	8585
scalar tree_4_3_u01_r20_network.node[37].content_store 	decision_ratio[37] 	0.0024401580292819
scalar tree_4_3_u01_r20_network.node[38].core_layer 	interests[38] 	12183
scalar tree_4_3_u01_r20_network.node[38].core_layer 	data[38] 	8602
scalar tree_4_3_u01_r20_network.node[38].content_store 	p_hit[38] 	0.29393417056554
scalar tree_4_3_u01_r20_network.node[38].content_store 	hits[38] 	3581
scalar tree_4_3_u01_r20_network.node[38].content_store 	misses[38] 	8602
scalar tree_4_3_u01_r20_network.node[38].content_store 	decision_yes[38] 	24
scalar tree_4_3_u01_r20_network.node[38].content_store 	decision_no[38] 	8578
scalar tree_4_3_u01_r20_network.node[38].content_store 	decision_ratio[38] 	0.0027900488258545
scalar tree_4_3_u01_r20_network.node[39].core_layer 	interests[39] 	12168
scalar tree_4_3_u01_r20_network.node[39].core_layer 	data[39] 	8708
scalar tree_4_3_u01_r20_network.node[39].content_store 	p_hit[39] 	0.28427021696252
scalar tree_4_3_u01_r20_network.node[39].content_store 	hits[39] 	3459
scalar tree_4_3_u01_r20_network.node[39].content_store 	misses[39] 	8709
scalar tree_4_3_u01_r20_network.node[39].content_store 	decision_yes[39] 	45
scalar tree_4_3_u01_r20_network.node[39].content_store 	decision_no[39] 	8663
scalar tree_4_3_u01_r20_network.node[39].content_store 	decision_ratio[39] 	0.0051676619200735
scalar tree_4_3_u01_r20_network.client[13] 	hdistance[13] 	2.6707337317397
scalar tree_4_3_u01_r20_network.client[13] 	downloads[13] 	12048
scalar tree_4_3_u01_r20_network.client[13] 	avg_time[13] 	0.004106404715
scalar tree_4_3_u01_r20_network.client[14] 	hdistance[14] 	2.6524312896406
scalar tree_4_3_u01_r20_network.client[14] 	downloads[14] 	11825
scalar tree_4_3_u01_r20_network.client[14] 	avg_time[14] 	0.004083379724
scalar tree_4_3_u01_r20_network.client[15] 	hdistance[15] 	2.6363101739058
scalar tree_4_3_u01_r20_network.client[15] 	downloads[15] 	11903
scalar tree_4_3_u01_r20_network.client[15] 	avg_time[15] 	0.004049732416
scalar tree_4_3_u01_r20_network.client[16] 	hdistance[16] 	2.6418682235196
scalar tree_4_3_u01_r20_network.client[16] 	downloads[16] 	11990
scalar tree_4_3_u01_r20_network.client[16] 	avg_time[16] 	0.004086402394
scalar tree_4_3_u01_r20_network.client[17] 	hdistance[17] 	2.6185107278082
scalar tree_4_3_u01_r20_network.client[17] 	downloads[17] 	11885
scalar tree_4_3_u01_r20_network.client[17] 	avg_time[17] 	0.004039542682
scalar tree_4_3_u01_r20_network.client[18] 	hdistance[18] 	2.6225121257735
scalar tree_4_3_u01_r20_network.client[18] 	downloads[18] 	11958
scalar tree_4_3_u01_r20_network.client[18] 	avg_time[18] 	0.004043649785
scalar tree_4_3_u01_r20_network.client[19] 	hdistance[19] 	2.6739780658026
scalar tree_4_3_u01_r20_network.client[19] 	downloads[19] 	12036
scalar tree_4_3_u01_r20_network.client[19] 	avg_time[19] 	0.004109670309
scalar tree_4_3_u01_r20_network.client[20] 	hdistance[20] 	2.638452540107
scalar tree_4_3_u01_r20_network.client[20] 	downloads[20] 	11968
scalar tree_4_3_u01_r20_network.client[20] 	avg_time[20] 	0.004058987638
scalar tree_4_3_u01_r20_network.client[21] 	hdistance[21] 	2.6696189839572
scalar tree_4_3_u01_r20_network.client[21] 	downloads[21] 	11968
scalar tree_4_3_u01_r20_network.client[21] 	avg_time[21] 	0.004107283096
scalar tree_4_3_u01_r20_network.client[22] 	hdistance[22] 	2.6293302540416
scalar tree_4_3_u01_r20_network.client[22] 	downloads[22] 	12124
scalar tree_4_3_u01_r20_network.client[22] 	avg_time[22] 	0.004048000941
scalar tree_4_3_u01_r20_network.client[23] 	hdistance[23] 	2.688739523691
scalar tree_4_3_u01_r20_network.client[23] 	downloads[23] 	12051
scalar tree_4_3_u01_r20_network.client[23] 	avg_time[23] 	0.004135753352
scalar tree_4_3_u01_r20_network.client[24] 	hdistance[24] 	2.6523789473684
scalar tree_4_3_u01_r20_network.client[24] 	downloads[24] 	11875
scalar tree_4_3_u01_r20_network.client[24] 	avg_time[24] 	0.004077807566
scalar tree_4_3_u01_r20_network.client[25] 	hdistance[25] 	2.6717563552328
scalar tree_4_3_u01_r20_network.client[25] 	downloads[25] 	12116
scalar tree_4_3_u01_r20_network.client[25] 	avg_time[25] 	0.00411009931
scalar tree_4_3_u01_r20_network.client[26] 	hdistance[26] 	2.6894343649947
scalar tree_4_3_u01_r20_network.client[26] 	downloads[26] 	12181
scalar tree_4_3_u01_r20_network.client[26] 	avg_time[26] 	0.004139558577
scalar tree_4_3_u01_r20_network.client[27] 	hdistance[27] 	2.6498782842273
scalar tree_4_3_u01_r20_network.client[27] 	downloads[27] 	11913
scalar tree_4_3_u01_r20_network.client[27] 	avg_time[27] 	0.004065976964
scalar tree_4_3_u01_r20_network.client[28] 	hdistance[28] 	2.6672697368421
scalar tree_4_3_u01_r20_network.client[28] 	downloads[28] 	12160
scalar tree_4_3_u01_r20_network.client[28] 	avg_time[28] 	0.00410476669
scalar tree_4_3_u01_r20_network.client[29] 	hdistance[29] 	2.6486773350751
scalar tree_4_3_u01_r20_network.client[29] 	downloads[29] 	12248
scalar tree_4_3_u01_r20_network.client[29] 	avg_time[29] 	0.004075111234
scalar tree_4_3_u01_r20_network.client[30] 	hdistance[30] 	2.6499534962374
scalar tree_4_3_u01_r20_network.client[30] 	downloads[30] 	11827
scalar tree_4_3_u01_r20_network.client[30] 	avg_time[30] 	0.004079814435
scalar tree_4_3_u01_r20_network.client[31] 	hdistance[31] 	2.6555564790957
scalar tree_4_3_u01_r20_network.client[31] 	downloads[31] 	12031
scalar tree_4_3_u01_r20_network.client[31] 	avg_time[31] 	0.004077463559
scalar tree_4_3_u01_r20_network.client[32] 	hdistance[32] 	2.685243719847
scalar tree_4_3_u01_r20_network.client[32] 	downloads[32] 	12022
scalar tree_4_3_u01_r20_network.client[32] 	avg_time[32] 	0.004121607347
scalar tree_4_3_u01_r20_network.client[33] 	hdistance[33] 	2.6659244598384
scalar tree_4_3_u01_r20_network.client[33] 	downloads[33] 	12126
scalar tree_4_3_u01_r20_network.client[33] 	avg_time[33] 	0.004086917649
scalar tree_4_3_u01_r20_network.client[34] 	hdistance[34] 	2.6799899657162
scalar tree_4_3_u01_r20_network.client[34] 	downloads[34] 	11959
scalar tree_4_3_u01_r20_network.client[34] 	avg_time[34] 	0.004112715452
scalar tree_4_3_u01_r20_network.client[35] 	hdistance[35] 	2.6775758572486
scalar tree_4_3_u01_r20_network.client[35] 	downloads[35] 	12161
scalar tree_4_3_u01_r20_network.client[35] 	avg_time[35] 	0.004105909301
scalar tree_4_3_u01_r20_network.client[36] 	hdistance[36] 	2.6935230374721
scalar tree_4_3_u01_r20_network.client[36] 	downloads[36] 	12089
scalar tree_4_3_u01_r20_network.client[36] 	avg_time[36] 	0.004128709021
scalar tree_4_3_u01_r20_network.client[37] 	hdistance[37] 	2.6610819371509
scalar tree_4_3_u01_r20_network.client[37] 	downloads[37] 	11997
scalar tree_4_3_u01_r20_network.client[37] 	avg_time[37] 	0.004080183721
scalar tree_4_3_u01_r20_network.client[38] 	hdistance[38] 	2.6640605506113
scalar tree_4_3_u01_r20_network.client[38] 	downloads[38] 	12023
scalar tree_4_3_u01_r20_network.client[38] 	avg_time[38] 	0.00408816136
scalar tree_4_3_u01_r20_network.client[39] 	hdistance[39] 	2.6739546096932
scalar tree_4_3_u01_r20_network.client[39] 	downloads[39] 	12029
scalar tree_4_3_u01_r20_network.client[39] 	avg_time[39] 	0.004111560738
