version 2
run General-206-20160820-06:17:05-14346
attr a 0.9
attr cd fix0.1
attr configname General
attr cr lru
attr datetime 20160820-06:17:05
attr experiment General
attr fsize 1
attr inifile hw5115/scenario_A/SPR-FIX0.1.ini
attr iterationvars "$name=tree_4_3, $un=10, $rep=7, $cd=fix0.1, $cr=lru, $fsize=1, $a=0.9, $sl=spr, $ttl=1000, $variance=0.05"
attr iterationvars2 "$name=tree_4_3, $un=10, $rep=7, $cd=fix0.1, $cr=lru, $fsize=1, $a=0.9, $sl=spr, $ttl=1000, $variance=0.05, $repetition=0"
attr measurement "$name=tree_4_3, $un=10, $rep=7, $cd=fix0.1, $cr=lru, $fsize=1, $a=0.9, $sl=spr, $ttl=1000, $variance=0.05"
attr name tree_4_3
attr network networks.${name}_u${un}_r${rep}_network
attr processid 14346
attr rep 7
attr repetition 0
attr replication #0
attr resultdir results
attr runnumber 206
attr seedset 7
attr sl spr
attr ttl 1000
attr un 10
attr variance 0.05

scalar . 	a 	0.9
scalar . 	fsize 	1
scalar . 	rep 	7
scalar . 	ttl 	1000
scalar . 	un 	10
scalar . 	variance 	0.05
scalar tree_4_3_u10_r7_network.content_distribution 	repo-0 	0
scalar tree_4_3_u10_r7_network.content_distribution 	client-0 	13
scalar tree_4_3_u10_r7_network.content_distribution 	client-1 	14
scalar tree_4_3_u10_r7_network.content_distribution 	client-2 	15
scalar tree_4_3_u10_r7_network.content_distribution 	client-3 	16
scalar tree_4_3_u10_r7_network.content_distribution 	client-4 	17
scalar tree_4_3_u10_r7_network.content_distribution 	client-5 	18
scalar tree_4_3_u10_r7_network.content_distribution 	client-6 	19
scalar tree_4_3_u10_r7_network.content_distribution 	client-7 	20
scalar tree_4_3_u10_r7_network.content_distribution 	client-8 	21
scalar tree_4_3_u10_r7_network.content_distribution 	client-9 	22
scalar tree_4_3_u10_r7_network.content_distribution 	client-10 	23
scalar tree_4_3_u10_r7_network.content_distribution 	client-11 	24
scalar tree_4_3_u10_r7_network.content_distribution 	client-12 	25
scalar tree_4_3_u10_r7_network.content_distribution 	client-13 	26
scalar tree_4_3_u10_r7_network.content_distribution 	client-14 	27
scalar tree_4_3_u10_r7_network.content_distribution 	client-15 	28
scalar tree_4_3_u10_r7_network.content_distribution 	client-16 	29
scalar tree_4_3_u10_r7_network.content_distribution 	client-17 	30
scalar tree_4_3_u10_r7_network.content_distribution 	client-18 	31
scalar tree_4_3_u10_r7_network.content_distribution 	client-19 	32
scalar tree_4_3_u10_r7_network.content_distribution 	client-20 	33
scalar tree_4_3_u10_r7_network.content_distribution 	client-21 	34
scalar tree_4_3_u10_r7_network.content_distribution 	client-22 	35
scalar tree_4_3_u10_r7_network.content_distribution 	client-23 	36
scalar tree_4_3_u10_r7_network.content_distribution 	client-24 	37
scalar tree_4_3_u10_r7_network.content_distribution 	client-25 	38
scalar tree_4_3_u10_r7_network.content_distribution 	client-26 	39
scalar tree_4_3_u10_r7_network.content_distribution 	repo-0_card 	100000
scalar tree_4_3_u10_r7_network.content_distribution 	repo-0_price 	0
scalar tree_4_3_u10_r7_network.statistics 	stabilization_time 	933.1
scalar tree_4_3_u10_r7_network.statistics 	p_hit 	0.15022603665692
scalar tree_4_3_u10_r7_network.statistics 	interests 	26805.95
scalar tree_4_3_u10_r7_network.statistics 	data 	18697.325
scalar tree_4_3_u10_r7_network.statistics 	hdistance 	3.0404922206143
scalar tree_4_3_u10_r7_network.statistics 	avg_time 	0.004611817246
scalar tree_4_3_u10_r7_network.statistics 	downloads 	324337
scalar tree_4_3_u10_r7_network.statistics 	total_cost 	0
scalar tree_4_3_u10_r7_network.statistics 	total_replicas 	100000
scalar tree_4_3_u10_r7_network.statistics 	inner_hit 	0.26554478829119
scalar tree_4_3_u10_r7_network.node[0].core_layer 	interests[0] 	242554
scalar tree_4_3_u10_r7_network.node[0].core_layer 	repo_load[0] 	238211
scalar tree_4_3_u10_r7_network.node[0].core_layer 	data[0] 	0
scalar tree_4_3_u10_r7_network.node[0].core_layer 	repo_int[0] 	238211
scalar tree_4_3_u10_r7_network.node[0].content_store 	p_hit[0] 	0.017905291192889
scalar tree_4_3_u10_r7_network.node[0].content_store 	hits[0] 	4343
scalar tree_4_3_u10_r7_network.node[0].content_store 	misses[0] 	238211
scalar tree_4_3_u10_r7_network.node[0].content_store 	decision_yes[0] 	23932
scalar tree_4_3_u10_r7_network.node[0].content_store 	decision_no[0] 	214279
scalar tree_4_3_u10_r7_network.node[0].content_store 	decision_ratio[0] 	0.10046555364782
scalar tree_4_3_u10_r7_network.node[1].core_layer 	interests[1] 	174401
scalar tree_4_3_u10_r7_network.node[1].core_layer 	data[1] 	170353
scalar tree_4_3_u10_r7_network.node[1].content_store 	p_hit[1] 	0.023136335227436
scalar tree_4_3_u10_r7_network.node[1].content_store 	hits[1] 	4035
scalar tree_4_3_u10_r7_network.node[1].content_store 	misses[1] 	170366
scalar tree_4_3_u10_r7_network.node[1].content_store 	decision_yes[1] 	16949
scalar tree_4_3_u10_r7_network.node[1].content_store 	decision_no[1] 	153404
scalar tree_4_3_u10_r7_network.node[1].content_store 	decision_ratio[1] 	0.099493404871062
scalar tree_4_3_u10_r7_network.node[2].core_layer 	interests[2] 	64740
scalar tree_4_3_u10_r7_network.node[2].core_layer 	data[2] 	63298
scalar tree_4_3_u10_r7_network.node[2].content_store 	p_hit[2] 	0.022258263824529
scalar tree_4_3_u10_r7_network.node[2].content_store 	hits[2] 	1441
scalar tree_4_3_u10_r7_network.node[2].content_store 	misses[2] 	63299
scalar tree_4_3_u10_r7_network.node[2].content_store 	decision_yes[2] 	6220
scalar tree_4_3_u10_r7_network.node[2].content_store 	decision_no[2] 	57078
scalar tree_4_3_u10_r7_network.node[2].content_store 	decision_ratio[2] 	0.098265348036273
scalar tree_4_3_u10_r7_network.node[3].core_layer 	interests[3] 	9153
scalar tree_4_3_u10_r7_network.node[3].core_layer 	data[3] 	8903
scalar tree_4_3_u10_r7_network.node[3].content_store 	p_hit[3] 	0.027313449142358
scalar tree_4_3_u10_r7_network.node[3].content_store 	hits[3] 	250
scalar tree_4_3_u10_r7_network.node[3].content_store 	misses[3] 	8903
scalar tree_4_3_u10_r7_network.node[3].content_store 	decision_yes[3] 	866
scalar tree_4_3_u10_r7_network.node[3].content_store 	decision_no[3] 	8037
scalar tree_4_3_u10_r7_network.node[3].content_store 	decision_ratio[3] 	0.097270582949568
scalar tree_4_3_u10_r7_network.node[4].core_layer 	interests[4] 	47472
scalar tree_4_3_u10_r7_network.node[4].core_layer 	data[4] 	45924
scalar tree_4_3_u10_r7_network.node[4].content_store 	p_hit[4] 	0.032545500505561
scalar tree_4_3_u10_r7_network.node[4].content_store 	hits[4] 	1545
scalar tree_4_3_u10_r7_network.node[4].content_store 	misses[4] 	45927
scalar tree_4_3_u10_r7_network.node[4].content_store 	decision_yes[4] 	4557
scalar tree_4_3_u10_r7_network.node[4].content_store 	decision_no[4] 	41367
scalar tree_4_3_u10_r7_network.node[4].content_store 	decision_ratio[4] 	0.09922916122289
scalar tree_4_3_u10_r7_network.node[5].core_layer 	interests[5] 	28246
scalar tree_4_3_u10_r7_network.node[5].core_layer 	data[5] 	27274
scalar tree_4_3_u10_r7_network.node[5].content_store 	p_hit[5] 	0.034411952134816
scalar tree_4_3_u10_r7_network.node[5].content_store 	hits[5] 	972
scalar tree_4_3_u10_r7_network.node[5].content_store 	misses[5] 	27274
scalar tree_4_3_u10_r7_network.node[5].content_store 	decision_yes[5] 	2713
scalar tree_4_3_u10_r7_network.node[5].content_store 	decision_no[5] 	24561
scalar tree_4_3_u10_r7_network.node[5].content_store 	decision_ratio[5] 	0.09947202463885
scalar tree_4_3_u10_r7_network.node[6].core_layer 	interests[6] 	9564
scalar tree_4_3_u10_r7_network.node[6].core_layer 	data[6] 	9231
scalar tree_4_3_u10_r7_network.node[6].content_store 	p_hit[6] 	0.034818067754078
scalar tree_4_3_u10_r7_network.node[6].content_store 	hits[6] 	333
scalar tree_4_3_u10_r7_network.node[6].content_store 	misses[6] 	9231
scalar tree_4_3_u10_r7_network.node[6].content_store 	decision_yes[6] 	915
scalar tree_4_3_u10_r7_network.node[6].content_store 	decision_no[6] 	8316
scalar tree_4_3_u10_r7_network.node[6].content_store 	decision_ratio[6] 	0.099122521936952
scalar tree_4_3_u10_r7_network.node[7].core_layer 	interests[7] 	47567
scalar tree_4_3_u10_r7_network.node[7].core_layer 	data[7] 	45932
scalar tree_4_3_u10_r7_network.node[7].content_store 	p_hit[7] 	0.034330523261925
scalar tree_4_3_u10_r7_network.node[7].content_store 	hits[7] 	1633
scalar tree_4_3_u10_r7_network.node[7].content_store 	misses[7] 	45934
scalar tree_4_3_u10_r7_network.node[7].content_store 	decision_yes[7] 	4509
scalar tree_4_3_u10_r7_network.node[7].content_store 	decision_no[7] 	41423
scalar tree_4_3_u10_r7_network.node[7].content_store 	decision_ratio[7] 	0.098166855351389
scalar tree_4_3_u10_r7_network.node[8].core_layer 	interests[8] 	28736
scalar tree_4_3_u10_r7_network.node[8].core_layer 	data[8] 	27810
scalar tree_4_3_u10_r7_network.node[8].content_store 	p_hit[8] 	0.032189587973274
scalar tree_4_3_u10_r7_network.node[8].content_store 	hits[8] 	925
scalar tree_4_3_u10_r7_network.node[8].content_store 	misses[8] 	27811
scalar tree_4_3_u10_r7_network.node[8].content_store 	decision_yes[8] 	2788
scalar tree_4_3_u10_r7_network.node[8].content_store 	decision_no[8] 	25022
scalar tree_4_3_u10_r7_network.node[8].content_store 	decision_ratio[8] 	0.1002517080187
scalar tree_4_3_u10_r7_network.node[9].core_layer 	interests[9] 	9544
scalar tree_4_3_u10_r7_network.node[9].core_layer 	data[9] 	9121
scalar tree_4_3_u10_r7_network.node[9].content_store 	p_hit[9] 	0.044321039396479
scalar tree_4_3_u10_r7_network.node[9].content_store 	hits[9] 	423
scalar tree_4_3_u10_r7_network.node[9].content_store 	misses[9] 	9121
scalar tree_4_3_u10_r7_network.node[9].content_store 	decision_yes[9] 	914
scalar tree_4_3_u10_r7_network.node[9].content_store 	decision_no[9] 	8207
scalar tree_4_3_u10_r7_network.node[9].content_store 	decision_ratio[9] 	0.10020831049227
scalar tree_4_3_u10_r7_network.node[10].core_layer 	interests[10] 	47553
scalar tree_4_3_u10_r7_network.node[10].core_layer 	data[10] 	46040
scalar tree_4_3_u10_r7_network.node[10].content_store 	p_hit[10] 	0.031775072024899
scalar tree_4_3_u10_r7_network.node[10].content_store 	hits[10] 	1511
scalar tree_4_3_u10_r7_network.node[10].content_store 	misses[10] 	46042
scalar tree_4_3_u10_r7_network.node[10].content_store 	decision_yes[10] 	4592
scalar tree_4_3_u10_r7_network.node[10].content_store 	decision_no[10] 	41448
scalar tree_4_3_u10_r7_network.node[10].content_store 	decision_ratio[10] 	0.099739357080799
scalar tree_4_3_u10_r7_network.node[11].core_layer 	interests[11] 	28878
scalar tree_4_3_u10_r7_network.node[11].core_layer 	data[11] 	27809
scalar tree_4_3_u10_r7_network.node[11].content_store 	p_hit[11] 	0.03698317057968
scalar tree_4_3_u10_r7_network.node[11].content_store 	hits[11] 	1068
scalar tree_4_3_u10_r7_network.node[11].content_store 	misses[11] 	27810
scalar tree_4_3_u10_r7_network.node[11].content_store 	decision_yes[11] 	2767
scalar tree_4_3_u10_r7_network.node[11].content_store 	decision_no[11] 	25042
scalar tree_4_3_u10_r7_network.node[11].content_store 	decision_ratio[11] 	0.099500161818116
scalar tree_4_3_u10_r7_network.node[12].core_layer 	interests[12] 	9486
scalar tree_4_3_u10_r7_network.node[12].core_layer 	data[12] 	9153
scalar tree_4_3_u10_r7_network.node[12].content_store 	p_hit[12] 	0.035104364326376
scalar tree_4_3_u10_r7_network.node[12].content_store 	hits[12] 	333
scalar tree_4_3_u10_r7_network.node[12].content_store 	misses[12] 	9153
scalar tree_4_3_u10_r7_network.node[12].content_store 	decision_yes[12] 	925
scalar tree_4_3_u10_r7_network.node[12].content_store 	decision_no[12] 	8228
scalar tree_4_3_u10_r7_network.node[12].content_store 	decision_ratio[12] 	0.10105976182672
scalar tree_4_3_u10_r7_network.node[13].core_layer 	interests[13] 	12008
scalar tree_4_3_u10_r7_network.node[13].core_layer 	data[13] 	9549
scalar tree_4_3_u10_r7_network.node[13].content_store 	p_hit[13] 	0.20478014656895
scalar tree_4_3_u10_r7_network.node[13].content_store 	hits[13] 	2459
scalar tree_4_3_u10_r7_network.node[13].content_store 	misses[13] 	9549
scalar tree_4_3_u10_r7_network.node[13].content_store 	decision_yes[13] 	945
scalar tree_4_3_u10_r7_network.node[13].content_store 	decision_no[13] 	8604
scalar tree_4_3_u10_r7_network.node[13].content_store 	decision_ratio[13] 	0.098963242224317
scalar tree_4_3_u10_r7_network.node[14].core_layer 	interests[14] 	11892
scalar tree_4_3_u10_r7_network.node[14].core_layer 	data[14] 	9407
scalar tree_4_3_u10_r7_network.node[14].content_store 	p_hit[14] 	0.2089640094181
scalar tree_4_3_u10_r7_network.node[14].content_store 	hits[14] 	2485
scalar tree_4_3_u10_r7_network.node[14].content_store 	misses[14] 	9407
scalar tree_4_3_u10_r7_network.node[14].content_store 	decision_yes[14] 	955
scalar tree_4_3_u10_r7_network.node[14].content_store 	decision_no[14] 	8452
scalar tree_4_3_u10_r7_network.node[14].content_store 	decision_ratio[14] 	0.10152014457319
scalar tree_4_3_u10_r7_network.node[15].core_layer 	interests[15] 	11910
scalar tree_4_3_u10_r7_network.node[15].core_layer 	data[15] 	9429
scalar tree_4_3_u10_r7_network.node[15].content_store 	p_hit[15] 	0.20831234256927
scalar tree_4_3_u10_r7_network.node[15].content_store 	hits[15] 	2481
scalar tree_4_3_u10_r7_network.node[15].content_store 	misses[15] 	9429
scalar tree_4_3_u10_r7_network.node[15].content_store 	decision_yes[15] 	917
scalar tree_4_3_u10_r7_network.node[15].content_store 	decision_no[15] 	8512
scalar tree_4_3_u10_r7_network.node[15].content_store 	decision_ratio[15] 	0.097253155159614
scalar tree_4_3_u10_r7_network.node[16].core_layer 	interests[16] 	11991
scalar tree_4_3_u10_r7_network.node[16].core_layer 	data[16] 	9474
scalar tree_4_3_u10_r7_network.node[16].content_store 	p_hit[16] 	0.20990743057293
scalar tree_4_3_u10_r7_network.node[16].content_store 	hits[16] 	2517
scalar tree_4_3_u10_r7_network.node[16].content_store 	misses[16] 	9474
scalar tree_4_3_u10_r7_network.node[16].content_store 	decision_yes[16] 	930
scalar tree_4_3_u10_r7_network.node[16].content_store 	decision_no[16] 	8544
scalar tree_4_3_u10_r7_network.node[16].content_store 	decision_ratio[16] 	0.098163394553515
scalar tree_4_3_u10_r7_network.node[17].core_layer 	interests[17] 	12115
scalar tree_4_3_u10_r7_network.node[17].core_layer 	data[17] 	9568
scalar tree_4_3_u10_r7_network.node[17].content_store 	p_hit[17] 	0.21023524556335
scalar tree_4_3_u10_r7_network.node[17].content_store 	hits[17] 	2547
scalar tree_4_3_u10_r7_network.node[17].content_store 	misses[17] 	9568
scalar tree_4_3_u10_r7_network.node[17].content_store 	decision_yes[17] 	963
scalar tree_4_3_u10_r7_network.node[17].content_store 	decision_no[17] 	8605
scalar tree_4_3_u10_r7_network.node[17].content_store 	decision_ratio[17] 	0.10064799331104
scalar tree_4_3_u10_r7_network.node[18].core_layer 	interests[18] 	11831
scalar tree_4_3_u10_r7_network.node[18].core_layer 	data[18] 	9360
scalar tree_4_3_u10_r7_network.node[18].content_store 	p_hit[18] 	0.20885808469276
scalar tree_4_3_u10_r7_network.node[18].content_store 	hits[18] 	2471
scalar tree_4_3_u10_r7_network.node[18].content_store 	misses[18] 	9360
scalar tree_4_3_u10_r7_network.node[18].content_store 	decision_yes[18] 	930
scalar tree_4_3_u10_r7_network.node[18].content_store 	decision_no[18] 	8430
scalar tree_4_3_u10_r7_network.node[18].content_store 	decision_ratio[18] 	0.099358974358974
scalar tree_4_3_u10_r7_network.node[19].core_layer 	interests[19] 	12025
scalar tree_4_3_u10_r7_network.node[19].core_layer 	data[19] 	9613
scalar tree_4_3_u10_r7_network.node[19].content_store 	p_hit[19] 	0.20058212058212
scalar tree_4_3_u10_r7_network.node[19].content_store 	hits[19] 	2412
scalar tree_4_3_u10_r7_network.node[19].content_store 	misses[19] 	9613
scalar tree_4_3_u10_r7_network.node[19].content_store 	decision_yes[19] 	933
scalar tree_4_3_u10_r7_network.node[19].content_store 	decision_no[19] 	8680
scalar tree_4_3_u10_r7_network.node[19].content_store 	decision_ratio[19] 	0.097056069905337
scalar tree_4_3_u10_r7_network.node[20].core_layer 	interests[20] 	11834
scalar tree_4_3_u10_r7_network.node[20].core_layer 	data[20] 	9318
scalar tree_4_3_u10_r7_network.node[20].content_store 	p_hit[20] 	0.21260774040899
scalar tree_4_3_u10_r7_network.node[20].content_store 	hits[20] 	2516
scalar tree_4_3_u10_r7_network.node[20].content_store 	misses[20] 	9318
scalar tree_4_3_u10_r7_network.node[20].content_store 	decision_yes[20] 	922
scalar tree_4_3_u10_r7_network.node[20].content_store 	decision_no[20] 	8396
scalar tree_4_3_u10_r7_network.node[20].content_store 	decision_ratio[20] 	0.098948272161408
scalar tree_4_3_u10_r7_network.node[21].core_layer 	interests[21] 	12089
scalar tree_4_3_u10_r7_network.node[21].core_layer 	data[21] 	9564
scalar tree_4_3_u10_r7_network.node[21].content_store 	p_hit[21] 	0.20878484572752
scalar tree_4_3_u10_r7_network.node[21].content_store 	hits[21] 	2524
scalar tree_4_3_u10_r7_network.node[21].content_store 	misses[21] 	9565
scalar tree_4_3_u10_r7_network.node[21].content_store 	decision_yes[21] 	940
scalar tree_4_3_u10_r7_network.node[21].content_store 	decision_no[21] 	8624
scalar tree_4_3_u10_r7_network.node[21].content_store 	decision_ratio[21] 	0.098285236302802
scalar tree_4_3_u10_r7_network.node[22].core_layer 	interests[22] 	12026
scalar tree_4_3_u10_r7_network.node[22].core_layer 	data[22] 	9513
scalar tree_4_3_u10_r7_network.node[22].content_store 	p_hit[22] 	0.20896391152503
scalar tree_4_3_u10_r7_network.node[22].content_store 	hits[22] 	2513
scalar tree_4_3_u10_r7_network.node[22].content_store 	misses[22] 	9513
scalar tree_4_3_u10_r7_network.node[22].content_store 	decision_yes[22] 	933
scalar tree_4_3_u10_r7_network.node[22].content_store 	decision_no[22] 	8580
scalar tree_4_3_u10_r7_network.node[22].content_store 	decision_ratio[22] 	0.098076316619363
scalar tree_4_3_u10_r7_network.node[23].core_layer 	interests[23] 	12076
scalar tree_4_3_u10_r7_network.node[23].core_layer 	data[23] 	9563
scalar tree_4_3_u10_r7_network.node[23].content_store 	p_hit[23] 	0.20809870818152
scalar tree_4_3_u10_r7_network.node[23].content_store 	hits[23] 	2513
scalar tree_4_3_u10_r7_network.node[23].content_store 	misses[23] 	9563
scalar tree_4_3_u10_r7_network.node[23].content_store 	decision_yes[23] 	917
scalar tree_4_3_u10_r7_network.node[23].content_store 	decision_no[23] 	8646
scalar tree_4_3_u10_r7_network.node[23].content_store 	decision_ratio[23] 	0.095890410958904
scalar tree_4_3_u10_r7_network.node[24].core_layer 	interests[24] 	12081
scalar tree_4_3_u10_r7_network.node[24].core_layer 	data[24] 	9517
scalar tree_4_3_u10_r7_network.node[24].content_store 	p_hit[24] 	0.21223408658224
scalar tree_4_3_u10_r7_network.node[24].content_store 	hits[24] 	2564
scalar tree_4_3_u10_r7_network.node[24].content_store 	misses[24] 	9517
scalar tree_4_3_u10_r7_network.node[24].content_store 	decision_yes[24] 	951
scalar tree_4_3_u10_r7_network.node[24].content_store 	decision_no[24] 	8566
scalar tree_4_3_u10_r7_network.node[24].content_store 	decision_ratio[24] 	0.099926447409898
scalar tree_4_3_u10_r7_network.node[25].core_layer 	interests[25] 	11917
scalar tree_4_3_u10_r7_network.node[25].core_layer 	data[25] 	9433
scalar tree_4_3_u10_r7_network.node[25].content_store 	p_hit[25] 	0.2083578081732
scalar tree_4_3_u10_r7_network.node[25].content_store 	hits[25] 	2483
scalar tree_4_3_u10_r7_network.node[25].content_store 	misses[25] 	9434
scalar tree_4_3_u10_r7_network.node[25].content_store 	decision_yes[25] 	978
scalar tree_4_3_u10_r7_network.node[25].content_store 	decision_no[25] 	8455
scalar tree_4_3_u10_r7_network.node[25].content_store 	decision_ratio[25] 	0.10367857521467
scalar tree_4_3_u10_r7_network.node[26].core_layer 	interests[26] 	12107
scalar tree_4_3_u10_r7_network.node[26].core_layer 	data[26] 	9567
scalar tree_4_3_u10_r7_network.node[26].content_store 	p_hit[26] 	0.20979598579334
scalar tree_4_3_u10_r7_network.node[26].content_store 	hits[26] 	2540
scalar tree_4_3_u10_r7_network.node[26].content_store 	misses[26] 	9567
scalar tree_4_3_u10_r7_network.node[26].content_store 	decision_yes[26] 	985
scalar tree_4_3_u10_r7_network.node[26].content_store 	decision_no[26] 	8582
scalar tree_4_3_u10_r7_network.node[26].content_store 	decision_ratio[26] 	0.10295808508414
scalar tree_4_3_u10_r7_network.node[27].core_layer 	interests[27] 	12038
scalar tree_4_3_u10_r7_network.node[27].core_layer 	data[27] 	9538
scalar tree_4_3_u10_r7_network.node[27].content_store 	p_hit[27] 	0.20759262335936
scalar tree_4_3_u10_r7_network.node[27].content_store 	hits[27] 	2499
scalar tree_4_3_u10_r7_network.node[27].content_store 	misses[27] 	9539
scalar tree_4_3_u10_r7_network.node[27].content_store 	decision_yes[27] 	971
scalar tree_4_3_u10_r7_network.node[27].content_store 	decision_no[27] 	8567
scalar tree_4_3_u10_r7_network.node[27].content_store 	decision_ratio[27] 	0.10180331306354
scalar tree_4_3_u10_r7_network.node[28].core_layer 	interests[28] 	12020
scalar tree_4_3_u10_r7_network.node[28].core_layer 	data[28] 	9540
scalar tree_4_3_u10_r7_network.node[28].content_store 	p_hit[28] 	0.2063227953411
scalar tree_4_3_u10_r7_network.node[28].content_store 	hits[28] 	2480
scalar tree_4_3_u10_r7_network.node[28].content_store 	misses[28] 	9540
scalar tree_4_3_u10_r7_network.node[28].content_store 	decision_yes[28] 	979
scalar tree_4_3_u10_r7_network.node[28].content_store 	decision_no[28] 	8561
scalar tree_4_3_u10_r7_network.node[28].content_store 	decision_ratio[28] 	0.10262054507338
scalar tree_4_3_u10_r7_network.node[29].core_layer 	interests[29] 	12098
scalar tree_4_3_u10_r7_network.node[29].core_layer 	data[29] 	9631
scalar tree_4_3_u10_r7_network.node[29].content_store 	p_hit[29] 	0.2039180029757
scalar tree_4_3_u10_r7_network.node[29].content_store 	hits[29] 	2467
scalar tree_4_3_u10_r7_network.node[29].content_store 	misses[29] 	9631
scalar tree_4_3_u10_r7_network.node[29].content_store 	decision_yes[29] 	968
scalar tree_4_3_u10_r7_network.node[29].content_store 	decision_no[29] 	8663
scalar tree_4_3_u10_r7_network.node[29].content_store 	decision_ratio[29] 	0.10050877375143
scalar tree_4_3_u10_r7_network.node[30].core_layer 	interests[30] 	12147
scalar tree_4_3_u10_r7_network.node[30].core_layer 	data[30] 	9544
scalar tree_4_3_u10_r7_network.node[30].content_store 	p_hit[30] 	0.21437391948629
scalar tree_4_3_u10_r7_network.node[30].content_store 	hits[30] 	2604
scalar tree_4_3_u10_r7_network.node[30].content_store 	misses[30] 	9543
scalar tree_4_3_u10_r7_network.node[30].content_store 	decision_yes[30] 	941
scalar tree_4_3_u10_r7_network.node[30].content_store 	decision_no[30] 	8603
scalar tree_4_3_u10_r7_network.node[30].content_store 	decision_ratio[30] 	0.098595976529757
scalar tree_4_3_u10_r7_network.node[31].core_layer 	interests[31] 	12009
scalar tree_4_3_u10_r7_network.node[31].core_layer 	data[31] 	9507
scalar tree_4_3_u10_r7_network.node[31].content_store 	p_hit[31] 	0.20834374219335
scalar tree_4_3_u10_r7_network.node[31].content_store 	hits[31] 	2502
scalar tree_4_3_u10_r7_network.node[31].content_store 	misses[31] 	9507
scalar tree_4_3_u10_r7_network.node[31].content_store 	decision_yes[31] 	964
scalar tree_4_3_u10_r7_network.node[31].content_store 	decision_no[31] 	8543
scalar tree_4_3_u10_r7_network.node[31].content_store 	decision_ratio[31] 	0.1013989691806
scalar tree_4_3_u10_r7_network.node[32].core_layer 	interests[32] 	11717
scalar tree_4_3_u10_r7_network.node[32].core_layer 	data[32] 	9249
scalar tree_4_3_u10_r7_network.node[32].content_store 	p_hit[32] 	0.21063412136212
scalar tree_4_3_u10_r7_network.node[32].content_store 	hits[32] 	2468
scalar tree_4_3_u10_r7_network.node[32].content_store 	misses[32] 	9249
scalar tree_4_3_u10_r7_network.node[32].content_store 	decision_yes[32] 	883
scalar tree_4_3_u10_r7_network.node[32].content_store 	decision_no[32] 	8366
scalar tree_4_3_u10_r7_network.node[32].content_store 	decision_ratio[32] 	0.095469780516813
scalar tree_4_3_u10_r7_network.node[33].core_layer 	interests[33] 	12176
scalar tree_4_3_u10_r7_network.node[33].core_layer 	data[33] 	9678
scalar tree_4_3_u10_r7_network.node[33].content_store 	p_hit[33] 	0.20499342969777
scalar tree_4_3_u10_r7_network.node[33].content_store 	hits[33] 	2496
scalar tree_4_3_u10_r7_network.node[33].content_store 	misses[33] 	9680
scalar tree_4_3_u10_r7_network.node[33].content_store 	decision_yes[33] 	988
scalar tree_4_3_u10_r7_network.node[33].content_store 	decision_no[33] 	8690
scalar tree_4_3_u10_r7_network.node[33].content_store 	decision_ratio[33] 	0.10208720810085
scalar tree_4_3_u10_r7_network.node[34].core_layer 	interests[34] 	11965
scalar tree_4_3_u10_r7_network.node[34].core_layer 	data[34] 	9556
scalar tree_4_3_u10_r7_network.node[34].content_store 	p_hit[34] 	0.20133723359799
scalar tree_4_3_u10_r7_network.node[34].content_store 	hits[34] 	2409
scalar tree_4_3_u10_r7_network.node[34].content_store 	misses[34] 	9556
scalar tree_4_3_u10_r7_network.node[34].content_store 	decision_yes[34] 	937
scalar tree_4_3_u10_r7_network.node[34].content_store 	decision_no[34] 	8619
scalar tree_4_3_u10_r7_network.node[34].content_store 	decision_ratio[34] 	0.098053578903307
scalar tree_4_3_u10_r7_network.node[35].core_layer 	interests[35] 	12139
scalar tree_4_3_u10_r7_network.node[35].core_layer 	data[35] 	9753
scalar tree_4_3_u10_r7_network.node[35].content_store 	p_hit[35] 	0.19655655325809
scalar tree_4_3_u10_r7_network.node[35].content_store 	hits[35] 	2386
scalar tree_4_3_u10_r7_network.node[35].content_store 	misses[35] 	9753
scalar tree_4_3_u10_r7_network.node[35].content_store 	decision_yes[35] 	1007
scalar tree_4_3_u10_r7_network.node[35].content_store 	decision_no[35] 	8746
scalar tree_4_3_u10_r7_network.node[35].content_store 	decision_ratio[35] 	0.10325028196452
scalar tree_4_3_u10_r7_network.node[36].core_layer 	interests[36] 	12084
scalar tree_4_3_u10_r7_network.node[36].core_layer 	data[36] 	9613
scalar tree_4_3_u10_r7_network.node[36].content_store 	p_hit[36] 	0.20440251572327
scalar tree_4_3_u10_r7_network.node[36].content_store 	hits[36] 	2470
scalar tree_4_3_u10_r7_network.node[36].content_store 	misses[36] 	9614
scalar tree_4_3_u10_r7_network.node[36].content_store 	decision_yes[36] 	945
scalar tree_4_3_u10_r7_network.node[36].content_store 	decision_no[36] 	8668
scalar tree_4_3_u10_r7_network.node[36].content_store 	decision_ratio[36] 	0.098304379486113
scalar tree_4_3_u10_r7_network.node[37].core_layer 	interests[37] 	12043
scalar tree_4_3_u10_r7_network.node[37].core_layer 	data[37] 	9563
scalar tree_4_3_u10_r7_network.node[37].content_store 	p_hit[37] 	0.20592875529353
scalar tree_4_3_u10_r7_network.node[37].content_store 	hits[37] 	2480
scalar tree_4_3_u10_r7_network.node[37].content_store 	misses[37] 	9563
scalar tree_4_3_u10_r7_network.node[37].content_store 	decision_yes[37] 	932
scalar tree_4_3_u10_r7_network.node[37].content_store 	decision_no[37] 	8631
scalar tree_4_3_u10_r7_network.node[37].content_store 	decision_ratio[37] 	0.097458956394437
scalar tree_4_3_u10_r7_network.node[38].core_layer 	interests[38] 	12005
scalar tree_4_3_u10_r7_network.node[38].core_layer 	data[38] 	9512
scalar tree_4_3_u10_r7_network.node[38].content_store 	p_hit[38] 	0.20766347355269
scalar tree_4_3_u10_r7_network.node[38].content_store 	hits[38] 	2493
scalar tree_4_3_u10_r7_network.node[38].content_store 	misses[38] 	9512
scalar tree_4_3_u10_r7_network.node[38].content_store 	decision_yes[38] 	935
scalar tree_4_3_u10_r7_network.node[38].content_store 	decision_no[38] 	8577
scalar tree_4_3_u10_r7_network.node[38].content_store 	decision_ratio[38] 	0.098296888141295
scalar tree_4_3_u10_r7_network.node[39].core_layer 	interests[39] 	12001
scalar tree_4_3_u10_r7_network.node[39].core_layer 	data[39] 	9486
scalar tree_4_3_u10_r7_network.node[39].content_store 	p_hit[39] 	0.20939921673194
scalar tree_4_3_u10_r7_network.node[39].content_store 	hits[39] 	2513
scalar tree_4_3_u10_r7_network.node[39].content_store 	misses[39] 	9488
scalar tree_4_3_u10_r7_network.node[39].content_store 	decision_yes[39] 	929
scalar tree_4_3_u10_r7_network.node[39].content_store 	decision_no[39] 	8557
scalar tree_4_3_u10_r7_network.node[39].content_store 	decision_ratio[39] 	0.097933797174784
scalar tree_4_3_u10_r7_network.client[13] 	hdistance[13] 	3.0531312458361
scalar tree_4_3_u10_r7_network.client[13] 	downloads[13] 	12008
scalar tree_4_3_u10_r7_network.client[13] 	avg_time[13] 	0.004630519598
scalar tree_4_3_u10_r7_network.client[14] 	hdistance[14] 	3.0423814328961
scalar tree_4_3_u10_r7_network.client[14] 	downloads[14] 	11892
scalar tree_4_3_u10_r7_network.client[14] 	avg_time[14] 	0.004612885868
scalar tree_4_3_u10_r7_network.client[15] 	hdistance[15] 	3.0350965575147
scalar tree_4_3_u10_r7_network.client[15] 	downloads[15] 	11910
scalar tree_4_3_u10_r7_network.client[15] 	avg_time[15] 	0.004605538569
scalar tree_4_3_u10_r7_network.client[16] 	hdistance[16] 	3.0366107914269
scalar tree_4_3_u10_r7_network.client[16] 	downloads[16] 	11991
scalar tree_4_3_u10_r7_network.client[16] 	avg_time[16] 	0.004605387175
scalar tree_4_3_u10_r7_network.client[17] 	hdistance[17] 	3.0250928600908
scalar tree_4_3_u10_r7_network.client[17] 	downloads[17] 	12115
scalar tree_4_3_u10_r7_network.client[17] 	avg_time[17] 	0.004590174427
scalar tree_4_3_u10_r7_network.client[18] 	hdistance[18] 	3.037359479334
scalar tree_4_3_u10_r7_network.client[18] 	downloads[18] 	11831
scalar tree_4_3_u10_r7_network.client[18] 	avg_time[18] 	0.004606668297
scalar tree_4_3_u10_r7_network.client[19] 	hdistance[19] 	3.0656964656965
scalar tree_4_3_u10_r7_network.client[19] 	downloads[19] 	12025
scalar tree_4_3_u10_r7_network.client[19] 	avg_time[19] 	0.004652019155
scalar tree_4_3_u10_r7_network.client[20] 	hdistance[20] 	3.0228156160216
scalar tree_4_3_u10_r7_network.client[20] 	downloads[20] 	11834
scalar tree_4_3_u10_r7_network.client[20] 	avg_time[20] 	0.004583569813
scalar tree_4_3_u10_r7_network.client[21] 	hdistance[21] 	3.0330079417604
scalar tree_4_3_u10_r7_network.client[21] 	downloads[21] 	12088
scalar tree_4_3_u10_r7_network.client[21] 	avg_time[21] 	0.004600607941
scalar tree_4_3_u10_r7_network.client[22] 	hdistance[22] 	3.0292699151838
scalar tree_4_3_u10_r7_network.client[22] 	downloads[22] 	12026
scalar tree_4_3_u10_r7_network.client[22] 	avg_time[22] 	0.004597138591
scalar tree_4_3_u10_r7_network.client[23] 	hdistance[23] 	3.0477807220934
scalar tree_4_3_u10_r7_network.client[23] 	downloads[23] 	12076
scalar tree_4_3_u10_r7_network.client[23] 	avg_time[23] 	0.00461949966
scalar tree_4_3_u10_r7_network.client[24] 	hdistance[24] 	3.0289711116629
scalar tree_4_3_u10_r7_network.client[24] 	downloads[24] 	12081
scalar tree_4_3_u10_r7_network.client[24] 	avg_time[24] 	0.004592166505
scalar tree_4_3_u10_r7_network.client[25] 	hdistance[25] 	3.0261832829809
scalar tree_4_3_u10_r7_network.client[25] 	downloads[25] 	11916
scalar tree_4_3_u10_r7_network.client[25] 	avg_time[25] 	0.0045936526
scalar tree_4_3_u10_r7_network.client[26] 	hdistance[26] 	3.0408854381763
scalar tree_4_3_u10_r7_network.client[26] 	downloads[26] 	12107
scalar tree_4_3_u10_r7_network.client[26] 	avg_time[26] 	0.004608900904
scalar tree_4_3_u10_r7_network.client[27] 	hdistance[27] 	3.0474370690371
scalar tree_4_3_u10_r7_network.client[27] 	downloads[27] 	12037
scalar tree_4_3_u10_r7_network.client[27] 	avg_time[27] 	0.004619059349
scalar tree_4_3_u10_r7_network.client[28] 	hdistance[28] 	3.04384359401
scalar tree_4_3_u10_r7_network.client[28] 	downloads[28] 	12020
scalar tree_4_3_u10_r7_network.client[28] 	avg_time[28] 	0.004614193785
scalar tree_4_3_u10_r7_network.client[29] 	hdistance[29] 	3.0623243511324
scalar tree_4_3_u10_r7_network.client[29] 	downloads[29] 	12098
scalar tree_4_3_u10_r7_network.client[29] 	avg_time[29] 	0.004641494485
scalar tree_4_3_u10_r7_network.client[30] 	hdistance[30] 	2.9906157392163
scalar tree_4_3_u10_r7_network.client[30] 	downloads[30] 	12148
scalar tree_4_3_u10_r7_network.client[30] 	avg_time[30] 	0.00453989367
scalar tree_4_3_u10_r7_network.client[31] 	hdistance[31] 	3.0477974852194
scalar tree_4_3_u10_r7_network.client[31] 	downloads[31] 	12009
scalar tree_4_3_u10_r7_network.client[31] 	avg_time[31] 	0.00461986545
scalar tree_4_3_u10_r7_network.client[32] 	hdistance[32] 	3.0374669283946
scalar tree_4_3_u10_r7_network.client[32] 	downloads[32] 	11717
scalar tree_4_3_u10_r7_network.client[32] 	avg_time[32] 	0.004605100762
scalar tree_4_3_u10_r7_network.client[33] 	hdistance[33] 	3.0562674552325
scalar tree_4_3_u10_r7_network.client[33] 	downloads[33] 	12174
scalar tree_4_3_u10_r7_network.client[33] 	avg_time[33] 	0.004636096617
scalar tree_4_3_u10_r7_network.client[34] 	hdistance[34] 	3.0634350188049
scalar tree_4_3_u10_r7_network.client[34] 	downloads[34] 	11965
scalar tree_4_3_u10_r7_network.client[34] 	avg_time[34] 	0.004646716594
scalar tree_4_3_u10_r7_network.client[35] 	hdistance[35] 	3.0697751050334
scalar tree_4_3_u10_r7_network.client[35] 	downloads[35] 	12139
scalar tree_4_3_u10_r7_network.client[35] 	avg_time[35] 	0.004660347918
scalar tree_4_3_u10_r7_network.client[36] 	hdistance[36] 	3.040221799222
scalar tree_4_3_u10_r7_network.client[36] 	downloads[36] 	12083
scalar tree_4_3_u10_r7_network.client[36] 	avg_time[36] 	0.004615084527
scalar tree_4_3_u10_r7_network.client[37] 	hdistance[37] 	3.0455866478452
scalar tree_4_3_u10_r7_network.client[37] 	downloads[37] 	12043
scalar tree_4_3_u10_r7_network.client[37] 	avg_time[37] 	0.004622020919
scalar tree_4_3_u10_r7_network.client[38] 	hdistance[38] 	3.0389004581425
scalar tree_4_3_u10_r7_network.client[38] 	downloads[38] 	12005
scalar tree_4_3_u10_r7_network.client[38] 	avg_time[38] 	0.004610437445
scalar tree_4_3_u10_r7_network.client[39] 	hdistance[39] 	3.0253354446204
scalar tree_4_3_u10_r7_network.client[39] 	downloads[39] 	11999
scalar tree_4_3_u10_r7_network.client[39] 	avg_time[39] 	0.004590025033
