version 2
run General-205-20160820-06:15:59-14346
attr a 0.9
attr cd fix0.1
attr configname General
attr cr lru
attr datetime 20160820-06:15:59
attr experiment General
attr fsize 1
attr inifile hw5115/scenario_A/SPR-FIX0.1.ini
attr iterationvars "$name=tree_4_3, $un=10, $rep=6, $cd=fix0.1, $cr=lru, $fsize=1, $a=0.9, $sl=spr, $ttl=1000, $variance=0.05"
attr iterationvars2 "$name=tree_4_3, $un=10, $rep=6, $cd=fix0.1, $cr=lru, $fsize=1, $a=0.9, $sl=spr, $ttl=1000, $variance=0.05, $repetition=0"
attr measurement "$name=tree_4_3, $un=10, $rep=6, $cd=fix0.1, $cr=lru, $fsize=1, $a=0.9, $sl=spr, $ttl=1000, $variance=0.05"
attr name tree_4_3
attr network networks.${name}_u${un}_r${rep}_network
attr processid 14346
attr rep 6
attr repetition 0
attr replication #0
attr resultdir results
attr runnumber 205
attr seedset 6
attr sl spr
attr ttl 1000
attr un 10
attr variance 0.05

scalar . 	a 	0.9
scalar . 	fsize 	1
scalar . 	rep 	6
scalar . 	ttl 	1000
scalar . 	un 	10
scalar . 	variance 	0.05
scalar tree_4_3_u10_r6_network.content_distribution 	repo-0 	0
scalar tree_4_3_u10_r6_network.content_distribution 	client-0 	13
scalar tree_4_3_u10_r6_network.content_distribution 	client-1 	14
scalar tree_4_3_u10_r6_network.content_distribution 	client-2 	15
scalar tree_4_3_u10_r6_network.content_distribution 	client-3 	16
scalar tree_4_3_u10_r6_network.content_distribution 	client-4 	17
scalar tree_4_3_u10_r6_network.content_distribution 	client-5 	18
scalar tree_4_3_u10_r6_network.content_distribution 	client-6 	19
scalar tree_4_3_u10_r6_network.content_distribution 	client-7 	20
scalar tree_4_3_u10_r6_network.content_distribution 	client-8 	21
scalar tree_4_3_u10_r6_network.content_distribution 	client-9 	22
scalar tree_4_3_u10_r6_network.content_distribution 	client-10 	23
scalar tree_4_3_u10_r6_network.content_distribution 	client-11 	24
scalar tree_4_3_u10_r6_network.content_distribution 	client-12 	25
scalar tree_4_3_u10_r6_network.content_distribution 	client-13 	26
scalar tree_4_3_u10_r6_network.content_distribution 	client-14 	27
scalar tree_4_3_u10_r6_network.content_distribution 	client-15 	28
scalar tree_4_3_u10_r6_network.content_distribution 	client-16 	29
scalar tree_4_3_u10_r6_network.content_distribution 	client-17 	30
scalar tree_4_3_u10_r6_network.content_distribution 	client-18 	31
scalar tree_4_3_u10_r6_network.content_distribution 	client-19 	32
scalar tree_4_3_u10_r6_network.content_distribution 	client-20 	33
scalar tree_4_3_u10_r6_network.content_distribution 	client-21 	34
scalar tree_4_3_u10_r6_network.content_distribution 	client-22 	35
scalar tree_4_3_u10_r6_network.content_distribution 	client-23 	36
scalar tree_4_3_u10_r6_network.content_distribution 	client-24 	37
scalar tree_4_3_u10_r6_network.content_distribution 	client-25 	38
scalar tree_4_3_u10_r6_network.content_distribution 	client-26 	39
scalar tree_4_3_u10_r6_network.content_distribution 	repo-0_card 	100000
scalar tree_4_3_u10_r6_network.content_distribution 	repo-0_price 	0
scalar tree_4_3_u10_r6_network.statistics 	stabilization_time 	913
scalar tree_4_3_u10_r6_network.statistics 	p_hit 	0.14973383847467
scalar tree_4_3_u10_r6_network.statistics 	interests 	26754.425
scalar tree_4_3_u10_r6_network.statistics 	data 	18665.575
scalar tree_4_3_u10_r6_network.statistics 	hdistance 	3.0428152017574
scalar tree_4_3_u10_r6_network.statistics 	avg_time 	0.004615278631
scalar tree_4_3_u10_r6_network.statistics 	downloads 	323551
scalar tree_4_3_u10_r6_network.statistics 	total_cost 	0
scalar tree_4_3_u10_r6_network.statistics 	total_replicas 	100000
scalar tree_4_3_u10_r6_network.statistics 	inner_hit 	0.26496904661089
scalar tree_4_3_u10_r6_network.node[0].core_layer 	interests[0] 	242130
scalar tree_4_3_u10_r6_network.node[0].core_layer 	repo_load[0] 	237820
scalar tree_4_3_u10_r6_network.node[0].core_layer 	data[0] 	0
scalar tree_4_3_u10_r6_network.node[0].core_layer 	repo_int[0] 	237820
scalar tree_4_3_u10_r6_network.node[0].content_store 	p_hit[0] 	0.017800355181101
scalar tree_4_3_u10_r6_network.node[0].content_store 	hits[0] 	4310
scalar tree_4_3_u10_r6_network.node[0].content_store 	misses[0] 	237820
scalar tree_4_3_u10_r6_network.node[0].content_store 	decision_yes[0] 	23689
scalar tree_4_3_u10_r6_network.node[0].content_store 	decision_no[0] 	214131
scalar tree_4_3_u10_r6_network.node[0].content_store 	decision_ratio[0] 	0.099608947943823
scalar tree_4_3_u10_r6_network.node[1].core_layer 	interests[1] 	174221
scalar tree_4_3_u10_r6_network.node[1].core_layer 	data[1] 	170117
scalar tree_4_3_u10_r6_network.node[1].content_store 	p_hit[1] 	0.023452970652218
scalar tree_4_3_u10_r6_network.node[1].content_store 	hits[1] 	4086
scalar tree_4_3_u10_r6_network.node[1].content_store 	misses[1] 	170135
scalar tree_4_3_u10_r6_network.node[1].content_store 	decision_yes[1] 	17088
scalar tree_4_3_u10_r6_network.node[1].content_store 	decision_no[1] 	153029
scalar tree_4_3_u10_r6_network.node[1].content_store 	decision_ratio[1] 	0.10044851484567
scalar tree_4_3_u10_r6_network.node[2].core_layer 	interests[2] 	64643
scalar tree_4_3_u10_r6_network.node[2].core_layer 	data[2] 	63186
scalar tree_4_3_u10_r6_network.node[2].content_store 	p_hit[2] 	0.022492767971783
scalar tree_4_3_u10_r6_network.node[2].content_store 	hits[2] 	1454
scalar tree_4_3_u10_r6_network.node[2].content_store 	misses[2] 	63189
scalar tree_4_3_u10_r6_network.node[2].content_store 	decision_yes[2] 	6390
scalar tree_4_3_u10_r6_network.node[2].content_store 	decision_no[2] 	56796
scalar tree_4_3_u10_r6_network.node[2].content_store 	decision_ratio[2] 	0.10112999715127
scalar tree_4_3_u10_r6_network.node[3].core_layer 	interests[3] 	9055
scalar tree_4_3_u10_r6_network.node[3].core_layer 	data[3] 	8827
scalar tree_4_3_u10_r6_network.node[3].content_store 	p_hit[3] 	0.025179458862507
scalar tree_4_3_u10_r6_network.node[3].content_store 	hits[3] 	228
scalar tree_4_3_u10_r6_network.node[3].content_store 	misses[3] 	8827
scalar tree_4_3_u10_r6_network.node[3].content_store 	decision_yes[3] 	884
scalar tree_4_3_u10_r6_network.node[3].content_store 	decision_no[3] 	7943
scalar tree_4_3_u10_r6_network.node[3].content_store 	decision_ratio[3] 	0.10014727540501
scalar tree_4_3_u10_r6_network.node[4].core_layer 	interests[4] 	47346
scalar tree_4_3_u10_r6_network.node[4].core_layer 	data[4] 	45923
scalar tree_4_3_u10_r6_network.node[4].content_store 	p_hit[4] 	0.03001309508723
scalar tree_4_3_u10_r6_network.node[4].content_store 	hits[4] 	1421
scalar tree_4_3_u10_r6_network.node[4].content_store 	misses[4] 	45925
scalar tree_4_3_u10_r6_network.node[4].content_store 	decision_yes[4] 	4530
scalar tree_4_3_u10_r6_network.node[4].content_store 	decision_no[4] 	41393
scalar tree_4_3_u10_r6_network.node[4].content_store 	decision_ratio[4] 	0.098643381312197
scalar tree_4_3_u10_r6_network.node[5].core_layer 	interests[5] 	28659
scalar tree_4_3_u10_r6_network.node[5].core_layer 	data[5] 	27657
scalar tree_4_3_u10_r6_network.node[5].content_store 	p_hit[5] 	0.034927945845982
scalar tree_4_3_u10_r6_network.node[5].content_store 	hits[5] 	1001
scalar tree_4_3_u10_r6_network.node[5].content_store 	misses[5] 	27658
scalar tree_4_3_u10_r6_network.node[5].content_store 	decision_yes[5] 	2807
scalar tree_4_3_u10_r6_network.node[5].content_store 	decision_no[5] 	24850
scalar tree_4_3_u10_r6_network.node[5].content_store 	decision_ratio[5] 	0.10149329283726
scalar tree_4_3_u10_r6_network.node[6].core_layer 	interests[6] 	9536
scalar tree_4_3_u10_r6_network.node[6].core_layer 	data[6] 	9211
scalar tree_4_3_u10_r6_network.node[6].content_store 	p_hit[6] 	0.034081375838926
scalar tree_4_3_u10_r6_network.node[6].content_store 	hits[6] 	325
scalar tree_4_3_u10_r6_network.node[6].content_store 	misses[6] 	9211
scalar tree_4_3_u10_r6_network.node[6].content_store 	decision_yes[6] 	929
scalar tree_4_3_u10_r6_network.node[6].content_store 	decision_no[6] 	8282
scalar tree_4_3_u10_r6_network.node[6].content_store 	decision_ratio[6] 	0.10085767017696
scalar tree_4_3_u10_r6_network.node[7].core_layer 	interests[7] 	47087
scalar tree_4_3_u10_r6_network.node[7].core_layer 	data[7] 	45493
scalar tree_4_3_u10_r6_network.node[7].content_store 	p_hit[7] 	0.033809756408351
scalar tree_4_3_u10_r6_network.node[7].content_store 	hits[7] 	1592
scalar tree_4_3_u10_r6_network.node[7].content_store 	misses[7] 	45495
scalar tree_4_3_u10_r6_network.node[7].content_store 	decision_yes[7] 	4456
scalar tree_4_3_u10_r6_network.node[7].content_store 	decision_no[7] 	41037
scalar tree_4_3_u10_r6_network.node[7].content_store 	decision_ratio[7] 	0.097949135031763
scalar tree_4_3_u10_r6_network.node[8].core_layer 	interests[8] 	28733
scalar tree_4_3_u10_r6_network.node[8].core_layer 	data[8] 	27802
scalar tree_4_3_u10_r6_network.node[8].content_store 	p_hit[8] 	0.032401768001949
scalar tree_4_3_u10_r6_network.node[8].content_store 	hits[8] 	931
scalar tree_4_3_u10_r6_network.node[8].content_store 	misses[8] 	27802
scalar tree_4_3_u10_r6_network.node[8].content_store 	decision_yes[8] 	2779
scalar tree_4_3_u10_r6_network.node[8].content_store 	decision_no[8] 	25023
scalar tree_4_3_u10_r6_network.node[8].content_store 	decision_ratio[8] 	0.09995683763758
scalar tree_4_3_u10_r6_network.node[9].core_layer 	interests[9] 	9501
scalar tree_4_3_u10_r6_network.node[9].core_layer 	data[9] 	9143
scalar tree_4_3_u10_r6_network.node[9].content_store 	p_hit[9] 	0.037680244184823
scalar tree_4_3_u10_r6_network.node[9].content_store 	hits[9] 	358
scalar tree_4_3_u10_r6_network.node[9].content_store 	misses[9] 	9143
scalar tree_4_3_u10_r6_network.node[9].content_store 	decision_yes[9] 	875
scalar tree_4_3_u10_r6_network.node[9].content_store 	decision_no[9] 	8268
scalar tree_4_3_u10_r6_network.node[9].content_store 	decision_ratio[9] 	0.095701629662037
scalar tree_4_3_u10_r6_network.node[10].core_layer 	interests[10] 	47596
scalar tree_4_3_u10_r6_network.node[10].core_layer 	data[10] 	45936
scalar tree_4_3_u10_r6_network.node[10].content_store 	p_hit[10] 	0.034792839734431
scalar tree_4_3_u10_r6_network.node[10].content_store 	hits[10] 	1656
scalar tree_4_3_u10_r6_network.node[10].content_store 	misses[10] 	45940
scalar tree_4_3_u10_r6_network.node[10].content_store 	decision_yes[10] 	4657
scalar tree_4_3_u10_r6_network.node[10].content_store 	decision_no[10] 	41279
scalar tree_4_3_u10_r6_network.node[10].content_store 	decision_ratio[10] 	0.10138018112156
scalar tree_4_3_u10_r6_network.node[11].core_layer 	interests[11] 	28695
scalar tree_4_3_u10_r6_network.node[11].core_layer 	data[11] 	27698
scalar tree_4_3_u10_r6_network.node[11].content_store 	p_hit[11] 	0.034709879769995
scalar tree_4_3_u10_r6_network.node[11].content_store 	hits[11] 	996
scalar tree_4_3_u10_r6_network.node[11].content_store 	misses[11] 	27699
scalar tree_4_3_u10_r6_network.node[11].content_store 	decision_yes[11] 	2706
scalar tree_4_3_u10_r6_network.node[11].content_store 	decision_no[11] 	24992
scalar tree_4_3_u10_r6_network.node[11].content_store 	decision_ratio[11] 	0.097696584590945
scalar tree_4_3_u10_r6_network.node[12].core_layer 	interests[12] 	9422
scalar tree_4_3_u10_r6_network.node[12].core_layer 	data[12] 	9055
scalar tree_4_3_u10_r6_network.node[12].content_store 	p_hit[12] 	0.03895139036298
scalar tree_4_3_u10_r6_network.node[12].content_store 	hits[12] 	367
scalar tree_4_3_u10_r6_network.node[12].content_store 	misses[12] 	9055
scalar tree_4_3_u10_r6_network.node[12].content_store 	decision_yes[12] 	926
scalar tree_4_3_u10_r6_network.node[12].content_store 	decision_no[12] 	8129
scalar tree_4_3_u10_r6_network.node[12].content_store 	decision_ratio[12] 	0.10226394257316
scalar tree_4_3_u10_r6_network.node[13].core_layer 	interests[13] 	12021
scalar tree_4_3_u10_r6_network.node[13].core_layer 	data[13] 	9540
scalar tree_4_3_u10_r6_network.node[13].content_store 	p_hit[13] 	0.206305631811
scalar tree_4_3_u10_r6_network.node[13].content_store 	hits[13] 	2480
scalar tree_4_3_u10_r6_network.node[13].content_store 	misses[13] 	9541
scalar tree_4_3_u10_r6_network.node[13].content_store 	decision_yes[13] 	960
scalar tree_4_3_u10_r6_network.node[13].content_store 	decision_no[13] 	8580
scalar tree_4_3_u10_r6_network.node[13].content_store 	decision_ratio[13] 	0.10062893081761
scalar tree_4_3_u10_r6_network.node[14].core_layer 	interests[14] 	11962
scalar tree_4_3_u10_r6_network.node[14].core_layer 	data[14] 	9410
scalar tree_4_3_u10_r6_network.node[14].content_store 	p_hit[14] 	0.21342584852031
scalar tree_4_3_u10_r6_network.node[14].content_store 	hits[14] 	2553
scalar tree_4_3_u10_r6_network.node[14].content_store 	misses[14] 	9409
scalar tree_4_3_u10_r6_network.node[14].content_store 	decision_yes[14] 	913
scalar tree_4_3_u10_r6_network.node[14].content_store 	decision_no[14] 	8497
scalar tree_4_3_u10_r6_network.node[14].content_store 	decision_ratio[14] 	0.097024442082891
scalar tree_4_3_u10_r6_network.node[15].core_layer 	interests[15] 	11918
scalar tree_4_3_u10_r6_network.node[15].core_layer 	data[15] 	9504
scalar tree_4_3_u10_r6_network.node[15].content_store 	p_hit[15] 	0.20255076355093
scalar tree_4_3_u10_r6_network.node[15].content_store 	hits[15] 	2414
scalar tree_4_3_u10_r6_network.node[15].content_store 	misses[15] 	9504
scalar tree_4_3_u10_r6_network.node[15].content_store 	decision_yes[15] 	948
scalar tree_4_3_u10_r6_network.node[15].content_store 	decision_no[15] 	8556
scalar tree_4_3_u10_r6_network.node[15].content_store 	decision_ratio[15] 	0.099747474747475
scalar tree_4_3_u10_r6_network.node[16].core_layer 	interests[16] 	11894
scalar tree_4_3_u10_r6_network.node[16].core_layer 	data[16] 	9430
scalar tree_4_3_u10_r6_network.node[16].content_store 	p_hit[16] 	0.20716327560114
scalar tree_4_3_u10_r6_network.node[16].content_store 	hits[16] 	2464
scalar tree_4_3_u10_r6_network.node[16].content_store 	misses[16] 	9430
scalar tree_4_3_u10_r6_network.node[16].content_store 	decision_yes[16] 	925
scalar tree_4_3_u10_r6_network.node[16].content_store 	decision_no[16] 	8505
scalar tree_4_3_u10_r6_network.node[16].content_store 	decision_ratio[16] 	0.098091198303287
scalar tree_4_3_u10_r6_network.node[17].core_layer 	interests[17] 	12040
scalar tree_4_3_u10_r6_network.node[17].core_layer 	data[17] 	9623
scalar tree_4_3_u10_r6_network.node[17].content_store 	p_hit[17] 	0.20074750830565
scalar tree_4_3_u10_r6_network.node[17].content_store 	hits[17] 	2417
scalar tree_4_3_u10_r6_network.node[17].content_store 	misses[17] 	9623
scalar tree_4_3_u10_r6_network.node[17].content_store 	decision_yes[17] 	998
scalar tree_4_3_u10_r6_network.node[17].content_store 	decision_no[17] 	8625
scalar tree_4_3_u10_r6_network.node[17].content_store 	decision_ratio[17] 	0.10370986178946
scalar tree_4_3_u10_r6_network.node[18].core_layer 	interests[18] 	11903
scalar tree_4_3_u10_r6_network.node[18].core_layer 	data[18] 	9380
scalar tree_4_3_u10_r6_network.node[18].content_store 	p_hit[18] 	0.21196337057885
scalar tree_4_3_u10_r6_network.node[18].content_store 	hits[18] 	2523
scalar tree_4_3_u10_r6_network.node[18].content_store 	misses[18] 	9380
scalar tree_4_3_u10_r6_network.node[18].content_store 	decision_yes[18] 	900
scalar tree_4_3_u10_r6_network.node[18].content_store 	decision_no[18] 	8480
scalar tree_4_3_u10_r6_network.node[18].content_store 	decision_ratio[18] 	0.095948827292111
scalar tree_4_3_u10_r6_network.node[19].core_layer 	interests[19] 	11980
scalar tree_4_3_u10_r6_network.node[19].core_layer 	data[19] 	9462
scalar tree_4_3_u10_r6_network.node[19].content_store 	p_hit[19] 	0.210183639399
scalar tree_4_3_u10_r6_network.node[19].content_store 	hits[19] 	2518
scalar tree_4_3_u10_r6_network.node[19].content_store 	misses[19] 	9462
scalar tree_4_3_u10_r6_network.node[19].content_store 	decision_yes[19] 	965
scalar tree_4_3_u10_r6_network.node[19].content_store 	decision_no[19] 	8497
scalar tree_4_3_u10_r6_network.node[19].content_store 	decision_ratio[19] 	0.10198689494821
scalar tree_4_3_u10_r6_network.node[20].core_layer 	interests[20] 	11941
scalar tree_4_3_u10_r6_network.node[20].core_layer 	data[20] 	9656
scalar tree_4_3_u10_r6_network.node[20].content_store 	p_hit[20] 	0.19135750774642
scalar tree_4_3_u10_r6_network.node[20].content_store 	hits[20] 	2285
scalar tree_4_3_u10_r6_network.node[20].content_store 	misses[20] 	9656
scalar tree_4_3_u10_r6_network.node[20].content_store 	decision_yes[20] 	1017
scalar tree_4_3_u10_r6_network.node[20].content_store 	decision_no[20] 	8639
scalar tree_4_3_u10_r6_network.node[20].content_store 	decision_ratio[20] 	0.10532311516156
scalar tree_4_3_u10_r6_network.node[21].core_layer 	interests[21] 	11997
scalar tree_4_3_u10_r6_network.node[21].core_layer 	data[21] 	9537
scalar tree_4_3_u10_r6_network.node[21].content_store 	p_hit[21] 	0.20513461698758
scalar tree_4_3_u10_r6_network.node[21].content_store 	hits[21] 	2461
scalar tree_4_3_u10_r6_network.node[21].content_store 	misses[21] 	9536
scalar tree_4_3_u10_r6_network.node[21].content_store 	decision_yes[21] 	943
scalar tree_4_3_u10_r6_network.node[21].content_store 	decision_no[21] 	8594
scalar tree_4_3_u10_r6_network.node[21].content_store 	decision_ratio[21] 	0.098878053895355
scalar tree_4_3_u10_r6_network.node[22].core_layer 	interests[22] 	12020
scalar tree_4_3_u10_r6_network.node[22].core_layer 	data[22] 	9398
scalar tree_4_3_u10_r6_network.node[22].content_store 	p_hit[22] 	0.21813643926789
scalar tree_4_3_u10_r6_network.node[22].content_store 	hits[22] 	2622
scalar tree_4_3_u10_r6_network.node[22].content_store 	misses[22] 	9398
scalar tree_4_3_u10_r6_network.node[22].content_store 	decision_yes[22] 	963
scalar tree_4_3_u10_r6_network.node[22].content_store 	decision_no[22] 	8435
scalar tree_4_3_u10_r6_network.node[22].content_store 	decision_ratio[22] 	0.10246861034263
scalar tree_4_3_u10_r6_network.node[23].core_layer 	interests[23] 	12103
scalar tree_4_3_u10_r6_network.node[23].core_layer 	data[23] 	9562
scalar tree_4_3_u10_r6_network.node[23].content_store 	p_hit[23] 	0.20986532264728
scalar tree_4_3_u10_r6_network.node[23].content_store 	hits[23] 	2540
scalar tree_4_3_u10_r6_network.node[23].content_store 	misses[23] 	9563
scalar tree_4_3_u10_r6_network.node[23].content_store 	decision_yes[23] 	937
scalar tree_4_3_u10_r6_network.node[23].content_store 	decision_no[23] 	8625
scalar tree_4_3_u10_r6_network.node[23].content_store 	decision_ratio[23] 	0.097992051871993
scalar tree_4_3_u10_r6_network.node[24].core_layer 	interests[24] 	12022
scalar tree_4_3_u10_r6_network.node[24].core_layer 	data[24] 	9452
scalar tree_4_3_u10_r6_network.node[24].content_store 	p_hit[24] 	0.21369156546332
scalar tree_4_3_u10_r6_network.node[24].content_store 	hits[24] 	2569
scalar tree_4_3_u10_r6_network.node[24].content_store 	misses[24] 	9453
scalar tree_4_3_u10_r6_network.node[24].content_store 	decision_yes[24] 	970
scalar tree_4_3_u10_r6_network.node[24].content_store 	decision_no[24] 	8482
scalar tree_4_3_u10_r6_network.node[24].content_store 	decision_ratio[24] 	0.10262378332628
scalar tree_4_3_u10_r6_network.node[25].core_layer 	interests[25] 	11802
scalar tree_4_3_u10_r6_network.node[25].core_layer 	data[25] 	9291
scalar tree_4_3_u10_r6_network.node[25].content_store 	p_hit[25] 	0.21276054905948
scalar tree_4_3_u10_r6_network.node[25].content_store 	hits[25] 	2511
scalar tree_4_3_u10_r6_network.node[25].content_store 	misses[25] 	9291
scalar tree_4_3_u10_r6_network.node[25].content_store 	decision_yes[25] 	913
scalar tree_4_3_u10_r6_network.node[25].content_store 	decision_no[25] 	8378
scalar tree_4_3_u10_r6_network.node[25].content_store 	decision_ratio[25] 	0.098267140243246
scalar tree_4_3_u10_r6_network.node[26].core_layer 	interests[26] 	12029
scalar tree_4_3_u10_r6_network.node[26].core_layer 	data[26] 	9513
scalar tree_4_3_u10_r6_network.node[26].content_store 	p_hit[26] 	0.20916119378169
scalar tree_4_3_u10_r6_network.node[26].content_store 	hits[26] 	2516
scalar tree_4_3_u10_r6_network.node[26].content_store 	misses[26] 	9513
scalar tree_4_3_u10_r6_network.node[26].content_store 	decision_yes[26] 	948
scalar tree_4_3_u10_r6_network.node[26].content_store 	decision_no[26] 	8565
scalar tree_4_3_u10_r6_network.node[26].content_store 	decision_ratio[26] 	0.099653106275623
scalar tree_4_3_u10_r6_network.node[27].core_layer 	interests[27] 	12087
scalar tree_4_3_u10_r6_network.node[27].core_layer 	data[27] 	9654
scalar tree_4_3_u10_r6_network.node[27].content_store 	p_hit[27] 	0.20129064283941
scalar tree_4_3_u10_r6_network.node[27].content_store 	hits[27] 	2433
scalar tree_4_3_u10_r6_network.node[27].content_store 	misses[27] 	9654
scalar tree_4_3_u10_r6_network.node[27].content_store 	decision_yes[27] 	952
scalar tree_4_3_u10_r6_network.node[27].content_store 	decision_no[27] 	8702
scalar tree_4_3_u10_r6_network.node[27].content_store 	decision_ratio[27] 	0.098611974311166
scalar tree_4_3_u10_r6_network.node[28].core_layer 	interests[28] 	11903
scalar tree_4_3_u10_r6_network.node[28].core_layer 	data[28] 	9384
scalar tree_4_3_u10_r6_network.node[28].content_store 	p_hit[28] 	0.21162732084348
scalar tree_4_3_u10_r6_network.node[28].content_store 	hits[28] 	2519
scalar tree_4_3_u10_r6_network.node[28].content_store 	misses[28] 	9384
scalar tree_4_3_u10_r6_network.node[28].content_store 	decision_yes[28] 	968
scalar tree_4_3_u10_r6_network.node[28].content_store 	decision_no[28] 	8416
scalar tree_4_3_u10_r6_network.node[28].content_store 	decision_ratio[28] 	0.10315430520034
scalar tree_4_3_u10_r6_network.node[29].core_layer 	interests[29] 	12071
scalar tree_4_3_u10_r6_network.node[29].core_layer 	data[29] 	9566
scalar tree_4_3_u10_r6_network.node[29].content_store 	p_hit[29] 	0.20752216055008
scalar tree_4_3_u10_r6_network.node[29].content_store 	hits[29] 	2505
scalar tree_4_3_u10_r6_network.node[29].content_store 	misses[29] 	9566
scalar tree_4_3_u10_r6_network.node[29].content_store 	decision_yes[29] 	960
scalar tree_4_3_u10_r6_network.node[29].content_store 	decision_no[29] 	8606
scalar tree_4_3_u10_r6_network.node[29].content_store 	decision_ratio[29] 	0.10035542546519
scalar tree_4_3_u10_r6_network.node[30].core_layer 	interests[30] 	11996
scalar tree_4_3_u10_r6_network.node[30].core_layer 	data[30] 	9501
scalar tree_4_3_u10_r6_network.node[30].content_store 	p_hit[30] 	0.20798599533178
scalar tree_4_3_u10_r6_network.node[30].content_store 	hits[30] 	2495
scalar tree_4_3_u10_r6_network.node[30].content_store 	misses[30] 	9501
scalar tree_4_3_u10_r6_network.node[30].content_store 	decision_yes[30] 	961
scalar tree_4_3_u10_r6_network.node[30].content_store 	decision_no[30] 	8540
scalar tree_4_3_u10_r6_network.node[30].content_store 	decision_ratio[30] 	0.10114724765814
scalar tree_4_3_u10_r6_network.node[31].core_layer 	interests[31] 	12026
scalar tree_4_3_u10_r6_network.node[31].core_layer 	data[31] 	9568
scalar tree_4_3_u10_r6_network.node[31].content_store 	p_hit[31] 	0.20439048727757
scalar tree_4_3_u10_r6_network.node[31].content_store 	hits[31] 	2458
scalar tree_4_3_u10_r6_network.node[31].content_store 	misses[31] 	9568
scalar tree_4_3_u10_r6_network.node[31].content_store 	decision_yes[31] 	951
scalar tree_4_3_u10_r6_network.node[31].content_store 	decision_no[31] 	8617
scalar tree_4_3_u10_r6_network.node[31].content_store 	decision_ratio[31] 	0.09939381270903
scalar tree_4_3_u10_r6_network.node[32].core_layer 	interests[32] 	12036
scalar tree_4_3_u10_r6_network.node[32].core_layer 	data[32] 	9663
scalar tree_4_3_u10_r6_network.node[32].content_store 	p_hit[32] 	0.19715852442672
scalar tree_4_3_u10_r6_network.node[32].content_store 	hits[32] 	2373
scalar tree_4_3_u10_r6_network.node[32].content_store 	misses[32] 	9663
scalar tree_4_3_u10_r6_network.node[32].content_store 	decision_yes[32] 	950
scalar tree_4_3_u10_r6_network.node[32].content_store 	decision_no[32] 	8713
scalar tree_4_3_u10_r6_network.node[32].content_store 	decision_ratio[32] 	0.098313153265032
scalar tree_4_3_u10_r6_network.node[33].core_layer 	interests[33] 	11765
scalar tree_4_3_u10_r6_network.node[33].core_layer 	data[33] 	9328
scalar tree_4_3_u10_r6_network.node[33].content_store 	p_hit[33] 	0.20705482362941
scalar tree_4_3_u10_r6_network.node[33].content_store 	hits[33] 	2436
scalar tree_4_3_u10_r6_network.node[33].content_store 	misses[33] 	9329
scalar tree_4_3_u10_r6_network.node[33].content_store 	decision_yes[33] 	922
scalar tree_4_3_u10_r6_network.node[33].content_store 	decision_no[33] 	8406
scalar tree_4_3_u10_r6_network.node[33].content_store 	decision_ratio[33] 	0.098842195540309
scalar tree_4_3_u10_r6_network.node[34].core_layer 	interests[34] 	12188
scalar tree_4_3_u10_r6_network.node[34].core_layer 	data[34] 	9534
scalar tree_4_3_u10_r6_network.node[34].content_store 	p_hit[34] 	0.21775516901871
scalar tree_4_3_u10_r6_network.node[34].content_store 	hits[34] 	2654
scalar tree_4_3_u10_r6_network.node[34].content_store 	misses[34] 	9534
scalar tree_4_3_u10_r6_network.node[34].content_store 	decision_yes[34] 	944
scalar tree_4_3_u10_r6_network.node[34].content_store 	decision_no[34] 	8590
scalar tree_4_3_u10_r6_network.node[34].content_store 	decision_ratio[34] 	0.099014054961192
scalar tree_4_3_u10_r6_network.node[35].core_layer 	interests[35] 	12074
scalar tree_4_3_u10_r6_network.node[35].core_layer 	data[35] 	9661
scalar tree_4_3_u10_r6_network.node[35].content_store 	p_hit[35] 	0.19985091933079
scalar tree_4_3_u10_r6_network.node[35].content_store 	hits[35] 	2413
scalar tree_4_3_u10_r6_network.node[35].content_store 	misses[35] 	9661
scalar tree_4_3_u10_r6_network.node[35].content_store 	decision_yes[35] 	935
scalar tree_4_3_u10_r6_network.node[35].content_store 	decision_no[35] 	8726
scalar tree_4_3_u10_r6_network.node[35].content_store 	decision_ratio[35] 	0.096780871545389
scalar tree_4_3_u10_r6_network.node[36].core_layer 	interests[36] 	12001
scalar tree_4_3_u10_r6_network.node[36].core_layer 	data[36] 	9596
scalar tree_4_3_u10_r6_network.node[36].content_store 	p_hit[36] 	0.20039996666944
scalar tree_4_3_u10_r6_network.node[36].content_store 	hits[36] 	2405
scalar tree_4_3_u10_r6_network.node[36].content_store 	misses[36] 	9596
scalar tree_4_3_u10_r6_network.node[36].content_store 	decision_yes[36] 	948
scalar tree_4_3_u10_r6_network.node[36].content_store 	decision_no[36] 	8648
scalar tree_4_3_u10_r6_network.node[36].content_store 	decision_ratio[36] 	0.098791162984577
scalar tree_4_3_u10_r6_network.node[37].core_layer 	interests[37] 	11960
scalar tree_4_3_u10_r6_network.node[37].core_layer 	data[37] 	9502
scalar tree_4_3_u10_r6_network.node[37].content_store 	p_hit[37] 	0.20551839464883
scalar tree_4_3_u10_r6_network.node[37].content_store 	hits[37] 	2458
scalar tree_4_3_u10_r6_network.node[37].content_store 	misses[37] 	9502
scalar tree_4_3_u10_r6_network.node[37].content_store 	decision_yes[37] 	939
scalar tree_4_3_u10_r6_network.node[37].content_store 	decision_no[37] 	8563
scalar tree_4_3_u10_r6_network.node[37].content_store 	decision_ratio[37] 	0.098821300778783
scalar tree_4_3_u10_r6_network.node[38].core_layer 	interests[38] 	11911
scalar tree_4_3_u10_r6_network.node[38].core_layer 	data[38] 	9438
scalar tree_4_3_u10_r6_network.node[38].content_store 	p_hit[38] 	0.20762320544035
scalar tree_4_3_u10_r6_network.node[38].content_store 	hits[38] 	2473
scalar tree_4_3_u10_r6_network.node[38].content_store 	misses[38] 	9438
scalar tree_4_3_u10_r6_network.node[38].content_store 	decision_yes[38] 	953
scalar tree_4_3_u10_r6_network.node[38].content_store 	decision_no[38] 	8485
scalar tree_4_3_u10_r6_network.node[38].content_store 	decision_ratio[38] 	0.10097478279296
scalar tree_4_3_u10_r6_network.node[39].core_layer 	interests[39] 	11903
scalar tree_4_3_u10_r6_network.node[39].core_layer 	data[39] 	9422
scalar tree_4_3_u10_r6_network.node[39].content_store 	p_hit[39] 	0.20843484835756
scalar tree_4_3_u10_r6_network.node[39].content_store 	hits[39] 	2481
scalar tree_4_3_u10_r6_network.node[39].content_store 	misses[39] 	9422
scalar tree_4_3_u10_r6_network.node[39].content_store 	decision_yes[39] 	929
scalar tree_4_3_u10_r6_network.node[39].content_store 	decision_no[39] 	8493
scalar tree_4_3_u10_r6_network.node[39].content_store 	decision_ratio[39] 	0.098599023561876
scalar tree_4_3_u10_r6_network.client[13] 	hdistance[13] 	3.0515806988353
scalar tree_4_3_u10_r6_network.client[13] 	downloads[13] 	12020
scalar tree_4_3_u10_r6_network.client[13] 	avg_time[13] 	0.00462784733
scalar tree_4_3_u10_r6_network.client[14] 	hdistance[14] 	3.0295076485831
scalar tree_4_3_u10_r6_network.client[14] 	downloads[14] 	11963
scalar tree_4_3_u10_r6_network.client[14] 	avg_time[14] 	0.004590718809
scalar tree_4_3_u10_r6_network.client[15] 	hdistance[15] 	3.0673770766907
scalar tree_4_3_u10_r6_network.client[15] 	downloads[15] 	11918
scalar tree_4_3_u10_r6_network.client[15] 	avg_time[15] 	0.004653425597
scalar tree_4_3_u10_r6_network.client[16] 	hdistance[16] 	3.0483437027072
scalar tree_4_3_u10_r6_network.client[16] 	downloads[16] 	11894
scalar tree_4_3_u10_r6_network.client[16] 	avg_time[16] 	0.004622909306
scalar tree_4_3_u10_r6_network.client[17] 	hdistance[17] 	3.0644518272425
scalar tree_4_3_u10_r6_network.client[17] 	downloads[17] 	12040
scalar tree_4_3_u10_r6_network.client[17] 	avg_time[17] 	0.004646766459
scalar tree_4_3_u10_r6_network.client[18] 	hdistance[18] 	3.0220952701
scalar tree_4_3_u10_r6_network.client[18] 	downloads[18] 	11903
scalar tree_4_3_u10_r6_network.client[18] 	avg_time[18] 	0.004584387547
scalar tree_4_3_u10_r6_network.client[19] 	hdistance[19] 	3.0318864774624
scalar tree_4_3_u10_r6_network.client[19] 	downloads[19] 	11980
scalar tree_4_3_u10_r6_network.client[19] 	avg_time[19] 	0.004601472141
scalar tree_4_3_u10_r6_network.client[20] 	hdistance[20] 	3.096390587053
scalar tree_4_3_u10_r6_network.client[20] 	downloads[20] 	11941
scalar tree_4_3_u10_r6_network.client[20] 	avg_time[20] 	0.004699459656
scalar tree_4_3_u10_r6_network.client[21] 	hdistance[21] 	3.0530088348058
scalar tree_4_3_u10_r6_network.client[21] 	downloads[21] 	11998
scalar tree_4_3_u10_r6_network.client[21] 	avg_time[21] 	0.004628935131
scalar tree_4_3_u10_r6_network.client[22] 	hdistance[22] 	3.0074875207987
scalar tree_4_3_u10_r6_network.client[22] 	downloads[22] 	12020
scalar tree_4_3_u10_r6_network.client[22] 	avg_time[22] 	0.004558706367
scalar tree_4_3_u10_r6_network.client[23] 	hdistance[23] 	3.0314823996034
scalar tree_4_3_u10_r6_network.client[23] 	downloads[23] 	12102
scalar tree_4_3_u10_r6_network.client[23] 	avg_time[23] 	0.004599169897
scalar tree_4_3_u10_r6_network.client[24] 	hdistance[24] 	3.0144746693287
scalar tree_4_3_u10_r6_network.client[24] 	downloads[24] 	12021
scalar tree_4_3_u10_r6_network.client[24] 	avg_time[24] 	0.00457309926
scalar tree_4_3_u10_r6_network.client[25] 	hdistance[25] 	3.0195729537367
scalar tree_4_3_u10_r6_network.client[25] 	downloads[25] 	11802
scalar tree_4_3_u10_r6_network.client[25] 	avg_time[25] 	0.004578881984
scalar tree_4_3_u10_r6_network.client[26] 	hdistance[26] 	3.0351650178735
scalar tree_4_3_u10_r6_network.client[26] 	downloads[26] 	12029
scalar tree_4_3_u10_r6_network.client[26] 	avg_time[26] 	0.004602873409
scalar tree_4_3_u10_r6_network.client[27] 	hdistance[27] 	3.0677587490692
scalar tree_4_3_u10_r6_network.client[27] 	downloads[27] 	12087
scalar tree_4_3_u10_r6_network.client[27] 	avg_time[27] 	0.004652765164
scalar tree_4_3_u10_r6_network.client[28] 	hdistance[28] 	3.0241115685121
scalar tree_4_3_u10_r6_network.client[28] 	downloads[28] 	11903
scalar tree_4_3_u10_r6_network.client[28] 	avg_time[28] 	0.004588571776
scalar tree_4_3_u10_r6_network.client[29] 	hdistance[29] 	3.0511142407423
scalar tree_4_3_u10_r6_network.client[29] 	downloads[29] 	12071
scalar tree_4_3_u10_r6_network.client[29] 	avg_time[29] 	0.004626291371
scalar tree_4_3_u10_r6_network.client[30] 	hdistance[30] 	3.0293431143715
scalar tree_4_3_u10_r6_network.client[30] 	downloads[30] 	11996
scalar tree_4_3_u10_r6_network.client[30] 	avg_time[30] 	0.004597362771
scalar tree_4_3_u10_r6_network.client[31] 	hdistance[31] 	3.042907034758
scalar tree_4_3_u10_r6_network.client[31] 	downloads[31] 	12026
scalar tree_4_3_u10_r6_network.client[31] 	avg_time[31] 	0.004615761869
scalar tree_4_3_u10_r6_network.client[32] 	hdistance[32] 	3.0756895978731
scalar tree_4_3_u10_r6_network.client[32] 	downloads[32] 	12036
scalar tree_4_3_u10_r6_network.client[32] 	avg_time[32] 	0.004667543034
scalar tree_4_3_u10_r6_network.client[33] 	hdistance[33] 	3.0474328459708
scalar tree_4_3_u10_r6_network.client[33] 	downloads[33] 	11764
scalar tree_4_3_u10_r6_network.client[33] 	avg_time[33] 	0.004619174203
scalar tree_4_3_u10_r6_network.client[34] 	hdistance[34] 	3.004676731211
scalar tree_4_3_u10_r6_network.client[34] 	downloads[34] 	12188
scalar tree_4_3_u10_r6_network.client[34] 	avg_time[34] 	0.004557266409
scalar tree_4_3_u10_r6_network.client[35] 	hdistance[35] 	3.067914527083
scalar tree_4_3_u10_r6_network.client[35] 	downloads[35] 	12074
scalar tree_4_3_u10_r6_network.client[35] 	avg_time[35] 	0.004655289351
scalar tree_4_3_u10_r6_network.client[36] 	hdistance[36] 	3.0719940005
scalar tree_4_3_u10_r6_network.client[36] 	downloads[36] 	12001
scalar tree_4_3_u10_r6_network.client[36] 	avg_time[36] 	0.004657942166
scalar tree_4_3_u10_r6_network.client[37] 	hdistance[37] 	3.044397993311
scalar tree_4_3_u10_r6_network.client[37] 	downloads[37] 	11960
scalar tree_4_3_u10_r6_network.client[37] 	avg_time[37] 	0.004616248278
scalar tree_4_3_u10_r6_network.client[38] 	hdistance[38] 	3.0340861388632
scalar tree_4_3_u10_r6_network.client[38] 	downloads[38] 	11911
scalar tree_4_3_u10_r6_network.client[38] 	avg_time[38] 	0.004601905764
scalar tree_4_3_u10_r6_network.client[39] 	hdistance[39] 	3.0217592203646
scalar tree_4_3_u10_r6_network.client[39] 	downloads[39] 	11903
scalar tree_4_3_u10_r6_network.client[39] 	avg_time[39] 	0.004587748008
