version 2
run General-491-20160901-11:03:14-8710
attr a 0.9
attr cd tfc
attr configname General
attr cr lru
attr datetime 20160901-11:03:14
attr experiment General
attr fsize 1
attr inifile hw5115/scenario_Y/omnetp.ini
attr iterationvars "$name=tree_4_3, $un=08, $rep=4, $cd=tfc, $cr=lru, $fsize=1, $a=0.9, $sl=nrr, $ttl=1000, $variance=0.05"
attr iterationvars2 "$name=tree_4_3, $un=08, $rep=4, $cd=tfc, $cr=lru, $fsize=1, $a=0.9, $sl=nrr, $ttl=1000, $variance=0.05, $repetition=0"
attr measurement "$name=tree_4_3, $un=08, $rep=4, $cd=tfc, $cr=lru, $fsize=1, $a=0.9, $sl=nrr, $ttl=1000, $variance=0.05"
attr name tree_4_3
attr network networks.${name}_u${un}_r${rep}_network
attr processid 8710
attr rep 4
attr repetition 0
attr replication #0
attr resultdir results
attr runnumber 491
attr seedset 4
attr sl nrr
attr ttl 1000
attr un 08
attr variance 0.05

scalar . 	a 	0.9
scalar . 	fsize 	1
scalar . 	rep 	4
scalar . 	ttl 	1000
scalar . 	un 	08
scalar . 	variance 	0.05
scalar tree_4_3_u08_r4_network.content_distribution 	repo-0 	0
scalar tree_4_3_u08_r4_network.content_distribution 	client-0 	13
scalar tree_4_3_u08_r4_network.content_distribution 	client-1 	14
scalar tree_4_3_u08_r4_network.content_distribution 	client-2 	15
scalar tree_4_3_u08_r4_network.content_distribution 	client-3 	16
scalar tree_4_3_u08_r4_network.content_distribution 	client-4 	17
scalar tree_4_3_u08_r4_network.content_distribution 	client-5 	18
scalar tree_4_3_u08_r4_network.content_distribution 	client-6 	19
scalar tree_4_3_u08_r4_network.content_distribution 	client-7 	20
scalar tree_4_3_u08_r4_network.content_distribution 	client-8 	21
scalar tree_4_3_u08_r4_network.content_distribution 	client-9 	22
scalar tree_4_3_u08_r4_network.content_distribution 	client-10 	23
scalar tree_4_3_u08_r4_network.content_distribution 	client-11 	24
scalar tree_4_3_u08_r4_network.content_distribution 	client-12 	25
scalar tree_4_3_u08_r4_network.content_distribution 	client-13 	26
scalar tree_4_3_u08_r4_network.content_distribution 	client-14 	27
scalar tree_4_3_u08_r4_network.content_distribution 	client-15 	28
scalar tree_4_3_u08_r4_network.content_distribution 	client-16 	29
scalar tree_4_3_u08_r4_network.content_distribution 	client-17 	30
scalar tree_4_3_u08_r4_network.content_distribution 	client-18 	31
scalar tree_4_3_u08_r4_network.content_distribution 	client-19 	32
scalar tree_4_3_u08_r4_network.content_distribution 	client-20 	33
scalar tree_4_3_u08_r4_network.content_distribution 	client-21 	34
scalar tree_4_3_u08_r4_network.content_distribution 	client-22 	35
scalar tree_4_3_u08_r4_network.content_distribution 	client-23 	36
scalar tree_4_3_u08_r4_network.content_distribution 	client-24 	37
scalar tree_4_3_u08_r4_network.content_distribution 	client-25 	38
scalar tree_4_3_u08_r4_network.content_distribution 	client-26 	39
scalar tree_4_3_u08_r4_network.content_distribution 	repo-0_card 	100000
scalar tree_4_3_u08_r4_network.content_distribution 	repo-0_price 	0
scalar tree_4_3_u08_r4_network.statistics 	stabilization_time 	1931.2
scalar tree_4_3_u08_r4_network.statistics 	p_hit 	0.23236021347817
scalar tree_4_3_u08_r4_network.statistics 	interests 	24418.875
scalar tree_4_3_u08_r4_network.statistics 	data 	16322.975
scalar tree_4_3_u08_r4_network.statistics 	hdistance 	2.6031293669399
scalar tree_4_3_u08_r4_network.statistics 	avg_time 	0.004032419795
scalar tree_4_3_u08_r4_network.statistics 	downloads 	323834
scalar tree_4_3_u08_r4_network.statistics 	total_cost 	0
scalar tree_4_3_u08_r4_network.statistics 	total_replicas 	100000
scalar tree_4_3_u08_r4_network.statistics 	inner_hit 	0.41311597917452
scalar tree_4_3_u08_r4_network.node[0].core_layer 	interests[0] 	193254
scalar tree_4_3_u08_r4_network.node[0].core_layer 	repo_load[0] 	190053
scalar tree_4_3_u08_r4_network.node[0].core_layer 	data[0] 	0
scalar tree_4_3_u08_r4_network.node[0].core_layer 	repo_int[0] 	190053
scalar tree_4_3_u08_r4_network.node[0].content_store 	p_hit[0] 	0.016563693377627
scalar tree_4_3_u08_r4_network.node[0].content_store 	hits[0] 	3201
scalar tree_4_3_u08_r4_network.node[0].content_store 	misses[0] 	190053
scalar tree_4_3_u08_r4_network.node[0].content_store 	decision_yes[0] 	924
scalar tree_4_3_u08_r4_network.node[0].content_store 	decision_no[0] 	189129
scalar tree_4_3_u08_r4_network.node[0].content_store 	decision_ratio[0] 	0.0048618017079446
scalar tree_4_3_u08_r4_network.node[1].core_layer 	interests[1] 	143021
scalar tree_4_3_u08_r4_network.node[1].core_layer 	data[1] 	139324
scalar tree_4_3_u08_r4_network.node[1].content_store 	p_hit[1] 	0.025835366834241
scalar tree_4_3_u08_r4_network.node[1].content_store 	hits[1] 	3695
scalar tree_4_3_u08_r4_network.node[1].content_store 	misses[1] 	139326
scalar tree_4_3_u08_r4_network.node[1].content_store 	decision_yes[1] 	107
scalar tree_4_3_u08_r4_network.node[1].content_store 	decision_no[1] 	139217
scalar tree_4_3_u08_r4_network.node[1].content_store 	decision_ratio[1] 	0.00076799402830812
scalar tree_4_3_u08_r4_network.node[2].core_layer 	interests[2] 	56354
scalar tree_4_3_u08_r4_network.node[2].core_layer 	data[2] 	52884
scalar tree_4_3_u08_r4_network.node[2].content_store 	p_hit[2] 	0.061575043475175
scalar tree_4_3_u08_r4_network.node[2].content_store 	hits[2] 	3470
scalar tree_4_3_u08_r4_network.node[2].content_store 	misses[2] 	52884
scalar tree_4_3_u08_r4_network.node[2].content_store 	decision_yes[2] 	107
scalar tree_4_3_u08_r4_network.node[2].content_store 	decision_no[2] 	52777
scalar tree_4_3_u08_r4_network.node[2].content_store 	decision_ratio[2] 	0.0020232962710839
scalar tree_4_3_u08_r4_network.node[3].core_layer 	interests[3] 	9677
scalar tree_4_3_u08_r4_network.node[3].core_layer 	data[3] 	8083
scalar tree_4_3_u08_r4_network.node[3].content_store 	p_hit[3] 	0.16472047122042
scalar tree_4_3_u08_r4_network.node[3].content_store 	hits[3] 	1594
scalar tree_4_3_u08_r4_network.node[3].content_store 	misses[3] 	8083
scalar tree_4_3_u08_r4_network.node[3].content_store 	decision_yes[3] 	40
scalar tree_4_3_u08_r4_network.node[3].content_store 	decision_no[3] 	8043
scalar tree_4_3_u08_r4_network.node[3].content_store 	decision_ratio[3] 	0.0049486576766052
scalar tree_4_3_u08_r4_network.node[4].core_layer 	interests[4] 	33518
scalar tree_4_3_u08_r4_network.node[4].core_layer 	data[4] 	31479
scalar tree_4_3_u08_r4_network.node[4].content_store 	p_hit[4] 	0.060803150545975
scalar tree_4_3_u08_r4_network.node[4].content_store 	hits[4] 	2038
scalar tree_4_3_u08_r4_network.node[4].content_store 	misses[4] 	31480
scalar tree_4_3_u08_r4_network.node[4].content_store 	decision_yes[4] 	56
scalar tree_4_3_u08_r4_network.node[4].content_store 	decision_no[4] 	31423
scalar tree_4_3_u08_r4_network.node[4].content_store 	decision_ratio[4] 	0.0017789637536135
scalar tree_4_3_u08_r4_network.node[5].core_layer 	interests[5] 	27938
scalar tree_4_3_u08_r4_network.node[5].core_layer 	data[5] 	24731
scalar tree_4_3_u08_r4_network.node[5].content_store 	p_hit[5] 	0.1147898919035
scalar tree_4_3_u08_r4_network.node[5].content_store 	hits[5] 	3207
scalar tree_4_3_u08_r4_network.node[5].content_store 	misses[5] 	24731
scalar tree_4_3_u08_r4_network.node[5].content_store 	decision_yes[5] 	116
scalar tree_4_3_u08_r4_network.node[5].content_store 	decision_no[5] 	24615
scalar tree_4_3_u08_r4_network.node[5].content_store 	decision_ratio[5] 	0.0046904694512959
scalar tree_4_3_u08_r4_network.node[6].core_layer 	interests[6] 	19335
scalar tree_4_3_u08_r4_network.node[6].core_layer 	data[6] 	16803
scalar tree_4_3_u08_r4_network.node[6].content_store 	p_hit[6] 	0.13095422808379
scalar tree_4_3_u08_r4_network.node[6].content_store 	hits[6] 	2532
scalar tree_4_3_u08_r4_network.node[6].content_store 	misses[6] 	16803
scalar tree_4_3_u08_r4_network.node[6].content_store 	decision_yes[6] 	75
scalar tree_4_3_u08_r4_network.node[6].content_store 	decision_no[6] 	16728
scalar tree_4_3_u08_r4_network.node[6].content_store 	decision_ratio[6] 	0.0044634886627388
scalar tree_4_3_u08_r4_network.node[7].core_layer 	interests[7] 	43256
scalar tree_4_3_u08_r4_network.node[7].core_layer 	data[7] 	39893
scalar tree_4_3_u08_r4_network.node[7].content_store 	p_hit[7] 	0.077769557980396
scalar tree_4_3_u08_r4_network.node[7].content_store 	hits[7] 	3364
scalar tree_4_3_u08_r4_network.node[7].content_store 	misses[7] 	39892
scalar tree_4_3_u08_r4_network.node[7].content_store 	decision_yes[7] 	107
scalar tree_4_3_u08_r4_network.node[7].content_store 	decision_no[7] 	39786
scalar tree_4_3_u08_r4_network.node[7].content_store 	decision_ratio[7] 	0.0026821748176372
scalar tree_4_3_u08_r4_network.node[8].core_layer 	interests[8] 	26456
scalar tree_4_3_u08_r4_network.node[8].core_layer 	data[8] 	24106
scalar tree_4_3_u08_r4_network.node[8].content_store 	p_hit[8] 	0.088826731176293
scalar tree_4_3_u08_r4_network.node[8].content_store 	hits[8] 	2350
scalar tree_4_3_u08_r4_network.node[8].content_store 	misses[8] 	24106
scalar tree_4_3_u08_r4_network.node[8].content_store 	decision_yes[8] 	67
scalar tree_4_3_u08_r4_network.node[8].content_store 	decision_no[8] 	24039
scalar tree_4_3_u08_r4_network.node[8].content_store 	decision_ratio[8] 	0.0027793910229818
scalar tree_4_3_u08_r4_network.node[9].core_layer 	interests[9] 	10723
scalar tree_4_3_u08_r4_network.node[9].core_layer 	data[9] 	8471
scalar tree_4_3_u08_r4_network.node[9].content_store 	p_hit[9] 	0.21001585377227
scalar tree_4_3_u08_r4_network.node[9].content_store 	hits[9] 	2252
scalar tree_4_3_u08_r4_network.node[9].content_store 	misses[9] 	8471
scalar tree_4_3_u08_r4_network.node[9].content_store 	decision_yes[9] 	68
scalar tree_4_3_u08_r4_network.node[9].content_store 	decision_no[9] 	8403
scalar tree_4_3_u08_r4_network.node[9].content_store 	decision_ratio[9] 	0.0080273875575493
scalar tree_4_3_u08_r4_network.node[10].core_layer 	interests[10] 	42620
scalar tree_4_3_u08_r4_network.node[10].core_layer 	data[10] 	39645
scalar tree_4_3_u08_r4_network.node[10].content_store 	p_hit[10] 	0.069755983106523
scalar tree_4_3_u08_r4_network.node[10].content_store 	hits[10] 	2973
scalar tree_4_3_u08_r4_network.node[10].content_store 	misses[10] 	39647
scalar tree_4_3_u08_r4_network.node[10].content_store 	decision_yes[10] 	122
scalar tree_4_3_u08_r4_network.node[10].content_store 	decision_no[10] 	39523
scalar tree_4_3_u08_r4_network.node[10].content_store 	decision_ratio[10] 	0.003077311136335
scalar tree_4_3_u08_r4_network.node[11].core_layer 	interests[11] 	27391
scalar tree_4_3_u08_r4_network.node[11].core_layer 	data[11] 	24851
scalar tree_4_3_u08_r4_network.node[11].content_store 	p_hit[11] 	0.092694680734548
scalar tree_4_3_u08_r4_network.node[11].content_store 	hits[11] 	2539
scalar tree_4_3_u08_r4_network.node[11].content_store 	misses[11] 	24852
scalar tree_4_3_u08_r4_network.node[11].content_store 	decision_yes[11] 	102
scalar tree_4_3_u08_r4_network.node[11].content_store 	decision_no[11] 	24749
scalar tree_4_3_u08_r4_network.node[11].content_store 	decision_ratio[11] 	0.0041044625970786
scalar tree_4_3_u08_r4_network.node[12].core_layer 	interests[12] 	10087
scalar tree_4_3_u08_r4_network.node[12].core_layer 	data[12] 	8361
scalar tree_4_3_u08_r4_network.node[12].content_store 	p_hit[12] 	0.17111133141667
scalar tree_4_3_u08_r4_network.node[12].content_store 	hits[12] 	1726
scalar tree_4_3_u08_r4_network.node[12].content_store 	misses[12] 	8361
scalar tree_4_3_u08_r4_network.node[12].content_store 	decision_yes[12] 	45
scalar tree_4_3_u08_r4_network.node[12].content_store 	decision_no[12] 	8316
scalar tree_4_3_u08_r4_network.node[12].content_store 	decision_ratio[12] 	0.0053821313240043
scalar tree_4_3_u08_r4_network.node[13].core_layer 	interests[13] 	12289
scalar tree_4_3_u08_r4_network.node[13].core_layer 	data[13] 	8706
scalar tree_4_3_u08_r4_network.node[13].content_store 	p_hit[13] 	0.29156155911791
scalar tree_4_3_u08_r4_network.node[13].content_store 	hits[13] 	3583
scalar tree_4_3_u08_r4_network.node[13].content_store 	misses[13] 	8706
scalar tree_4_3_u08_r4_network.node[13].content_store 	decision_yes[13] 	27
scalar tree_4_3_u08_r4_network.node[13].content_store 	decision_no[13] 	8679
scalar tree_4_3_u08_r4_network.node[13].content_store 	decision_ratio[13] 	0.0031013094417643
scalar tree_4_3_u08_r4_network.node[14].core_layer 	interests[14] 	12456
scalar tree_4_3_u08_r4_network.node[14].core_layer 	data[14] 	8710
scalar tree_4_3_u08_r4_network.node[14].content_store 	p_hit[14] 	0.30065831727681
scalar tree_4_3_u08_r4_network.node[14].content_store 	hits[14] 	3745
scalar tree_4_3_u08_r4_network.node[14].content_store 	misses[14] 	8711
scalar tree_4_3_u08_r4_network.node[14].content_store 	decision_yes[14] 	28
scalar tree_4_3_u08_r4_network.node[14].content_store 	decision_no[14] 	8682
scalar tree_4_3_u08_r4_network.node[14].content_store 	decision_ratio[14] 	0.0032146957520092
scalar tree_4_3_u08_r4_network.node[15].core_layer 	interests[15] 	12571
scalar tree_4_3_u08_r4_network.node[15].core_layer 	data[15] 	8791
scalar tree_4_3_u08_r4_network.node[15].content_store 	p_hit[15] 	0.30069206904781
scalar tree_4_3_u08_r4_network.node[15].content_store 	hits[15] 	3780
scalar tree_4_3_u08_r4_network.node[15].content_store 	misses[15] 	8791
scalar tree_4_3_u08_r4_network.node[15].content_store 	decision_yes[15] 	32
scalar tree_4_3_u08_r4_network.node[15].content_store 	decision_no[15] 	8759
scalar tree_4_3_u08_r4_network.node[15].content_store 	decision_ratio[15] 	0.0036400864520532
scalar tree_4_3_u08_r4_network.node[16].core_layer 	interests[16] 	12580
scalar tree_4_3_u08_r4_network.node[16].core_layer 	data[16] 	8812
scalar tree_4_3_u08_r4_network.node[16].content_store 	p_hit[16] 	0.29952305246423
scalar tree_4_3_u08_r4_network.node[16].content_store 	hits[16] 	3768
scalar tree_4_3_u08_r4_network.node[16].content_store 	misses[16] 	8812
scalar tree_4_3_u08_r4_network.node[16].content_store 	decision_yes[16] 	35
scalar tree_4_3_u08_r4_network.node[16].content_store 	decision_no[16] 	8777
scalar tree_4_3_u08_r4_network.node[16].content_store 	decision_ratio[16] 	0.0039718565592374
scalar tree_4_3_u08_r4_network.node[17].core_layer 	interests[17] 	12127
scalar tree_4_3_u08_r4_network.node[17].core_layer 	data[17] 	8630
scalar tree_4_3_u08_r4_network.node[17].content_store 	p_hit[17] 	0.28836480580523
scalar tree_4_3_u08_r4_network.node[17].content_store 	hits[17] 	3497
scalar tree_4_3_u08_r4_network.node[17].content_store 	misses[17] 	8630
scalar tree_4_3_u08_r4_network.node[17].content_store 	decision_yes[17] 	24
scalar tree_4_3_u08_r4_network.node[17].content_store 	decision_no[17] 	8606
scalar tree_4_3_u08_r4_network.node[17].content_store 	decision_ratio[17] 	0.0027809965237543
scalar tree_4_3_u08_r4_network.node[18].core_layer 	interests[18] 	12559
scalar tree_4_3_u08_r4_network.node[18].core_layer 	data[18] 	8736
scalar tree_4_3_u08_r4_network.node[18].content_store 	p_hit[18] 	0.30440321681663
scalar tree_4_3_u08_r4_network.node[18].content_store 	hits[18] 	3823
scalar tree_4_3_u08_r4_network.node[18].content_store 	misses[18] 	8736
scalar tree_4_3_u08_r4_network.node[18].content_store 	decision_yes[18] 	43
scalar tree_4_3_u08_r4_network.node[18].content_store 	decision_no[18] 	8693
scalar tree_4_3_u08_r4_network.node[18].content_store 	decision_ratio[18] 	0.0049221611721612
scalar tree_4_3_u08_r4_network.node[19].core_layer 	interests[19] 	12155
scalar tree_4_3_u08_r4_network.node[19].core_layer 	data[19] 	8670
scalar tree_4_3_u08_r4_network.node[19].content_store 	p_hit[19] 	0.28671328671329
scalar tree_4_3_u08_r4_network.node[19].content_store 	hits[19] 	3485
scalar tree_4_3_u08_r4_network.node[19].content_store 	misses[19] 	8670
scalar tree_4_3_u08_r4_network.node[19].content_store 	decision_yes[19] 	39
scalar tree_4_3_u08_r4_network.node[19].content_store 	decision_no[19] 	8631
scalar tree_4_3_u08_r4_network.node[19].content_store 	decision_ratio[19] 	0.0044982698961938
scalar tree_4_3_u08_r4_network.node[20].core_layer 	interests[20] 	12379
scalar tree_4_3_u08_r4_network.node[20].core_layer 	data[20] 	8551
scalar tree_4_3_u08_r4_network.node[20].content_store 	p_hit[20] 	0.30923337910978
scalar tree_4_3_u08_r4_network.node[20].content_store 	hits[20] 	3828
scalar tree_4_3_u08_r4_network.node[20].content_store 	misses[20] 	8551
scalar tree_4_3_u08_r4_network.node[20].content_store 	decision_yes[20] 	46
scalar tree_4_3_u08_r4_network.node[20].content_store 	decision_no[20] 	8505
scalar tree_4_3_u08_r4_network.node[20].content_store 	decision_ratio[20] 	0.0053794877792071
scalar tree_4_3_u08_r4_network.node[21].core_layer 	interests[21] 	12084
scalar tree_4_3_u08_r4_network.node[21].core_layer 	data[21] 	8598
scalar tree_4_3_u08_r4_network.node[21].content_store 	p_hit[21] 	0.28848063555114
scalar tree_4_3_u08_r4_network.node[21].content_store 	hits[21] 	3486
scalar tree_4_3_u08_r4_network.node[21].content_store 	misses[21] 	8598
scalar tree_4_3_u08_r4_network.node[21].content_store 	decision_yes[21] 	31
scalar tree_4_3_u08_r4_network.node[21].content_store 	decision_no[21] 	8567
scalar tree_4_3_u08_r4_network.node[21].content_store 	decision_ratio[21] 	0.0036054896487555
scalar tree_4_3_u08_r4_network.node[22].core_layer 	interests[22] 	12345
scalar tree_4_3_u08_r4_network.node[22].core_layer 	data[22] 	8820
scalar tree_4_3_u08_r4_network.node[22].content_store 	p_hit[22] 	0.28562170919401
scalar tree_4_3_u08_r4_network.node[22].content_store 	hits[22] 	3526
scalar tree_4_3_u08_r4_network.node[22].content_store 	misses[22] 	8819
scalar tree_4_3_u08_r4_network.node[22].content_store 	decision_yes[22] 	26
scalar tree_4_3_u08_r4_network.node[22].content_store 	decision_no[22] 	8794
scalar tree_4_3_u08_r4_network.node[22].content_store 	decision_ratio[22] 	0.0029478458049887
scalar tree_4_3_u08_r4_network.node[23].core_layer 	interests[23] 	12714
scalar tree_4_3_u08_r4_network.node[23].core_layer 	data[23] 	8881
scalar tree_4_3_u08_r4_network.node[23].content_store 	p_hit[23] 	0.30155733836715
scalar tree_4_3_u08_r4_network.node[23].content_store 	hits[23] 	3834
scalar tree_4_3_u08_r4_network.node[23].content_store 	misses[23] 	8880
scalar tree_4_3_u08_r4_network.node[23].content_store 	decision_yes[23] 	34
scalar tree_4_3_u08_r4_network.node[23].content_store 	decision_no[23] 	8847
scalar tree_4_3_u08_r4_network.node[23].content_store 	decision_ratio[23] 	0.0038283977029614
scalar tree_4_3_u08_r4_network.node[24].core_layer 	interests[24] 	12428
scalar tree_4_3_u08_r4_network.node[24].core_layer 	data[24] 	8728
scalar tree_4_3_u08_r4_network.node[24].content_store 	p_hit[24] 	0.29771483746379
scalar tree_4_3_u08_r4_network.node[24].content_store 	hits[24] 	3700
scalar tree_4_3_u08_r4_network.node[24].content_store 	misses[24] 	8728
scalar tree_4_3_u08_r4_network.node[24].content_store 	decision_yes[24] 	34
scalar tree_4_3_u08_r4_network.node[24].content_store 	decision_no[24] 	8694
scalar tree_4_3_u08_r4_network.node[24].content_store 	decision_ratio[24] 	0.0038955087076077
scalar tree_4_3_u08_r4_network.node[25].core_layer 	interests[25] 	12490
scalar tree_4_3_u08_r4_network.node[25].core_layer 	data[25] 	8713
scalar tree_4_3_u08_r4_network.node[25].content_store 	p_hit[25] 	0.30240192153723
scalar tree_4_3_u08_r4_network.node[25].content_store 	hits[25] 	3777
scalar tree_4_3_u08_r4_network.node[25].content_store 	misses[25] 	8713
scalar tree_4_3_u08_r4_network.node[25].content_store 	decision_yes[25] 	39
scalar tree_4_3_u08_r4_network.node[25].content_store 	decision_no[25] 	8674
scalar tree_4_3_u08_r4_network.node[25].content_store 	decision_ratio[25] 	0.0044760702398715
scalar tree_4_3_u08_r4_network.node[26].core_layer 	interests[26] 	12193
scalar tree_4_3_u08_r4_network.node[26].core_layer 	data[26] 	8622
scalar tree_4_3_u08_r4_network.node[26].content_store 	p_hit[26] 	0.29287295989502
scalar tree_4_3_u08_r4_network.node[26].content_store 	hits[26] 	3571
scalar tree_4_3_u08_r4_network.node[26].content_store 	misses[26] 	8622
scalar tree_4_3_u08_r4_network.node[26].content_store 	decision_yes[26] 	23
scalar tree_4_3_u08_r4_network.node[26].content_store 	decision_no[26] 	8599
scalar tree_4_3_u08_r4_network.node[26].content_store 	decision_ratio[26] 	0.0026675945256321
scalar tree_4_3_u08_r4_network.node[27].core_layer 	interests[27] 	12332
scalar tree_4_3_u08_r4_network.node[27].core_layer 	data[27] 	8661
scalar tree_4_3_u08_r4_network.node[27].content_store 	p_hit[27] 	0.29768083036004
scalar tree_4_3_u08_r4_network.node[27].content_store 	hits[27] 	3671
scalar tree_4_3_u08_r4_network.node[27].content_store 	misses[27] 	8661
scalar tree_4_3_u08_r4_network.node[27].content_store 	decision_yes[27] 	41
scalar tree_4_3_u08_r4_network.node[27].content_store 	decision_no[27] 	8620
scalar tree_4_3_u08_r4_network.node[27].content_store 	decision_ratio[27] 	0.0047338644498326
scalar tree_4_3_u08_r4_network.node[28].core_layer 	interests[28] 	12365
scalar tree_4_3_u08_r4_network.node[28].core_layer 	data[28] 	8535
scalar tree_4_3_u08_r4_network.node[28].content_store 	p_hit[28] 	0.30966437525273
scalar tree_4_3_u08_r4_network.node[28].content_store 	hits[28] 	3829
scalar tree_4_3_u08_r4_network.node[28].content_store 	misses[28] 	8536
scalar tree_4_3_u08_r4_network.node[28].content_store 	decision_yes[28] 	34
scalar tree_4_3_u08_r4_network.node[28].content_store 	decision_no[28] 	8501
scalar tree_4_3_u08_r4_network.node[28].content_store 	decision_ratio[28] 	0.00398359695372
scalar tree_4_3_u08_r4_network.node[29].core_layer 	interests[29] 	12126
scalar tree_4_3_u08_r4_network.node[29].core_layer 	data[29] 	8526
scalar tree_4_3_u08_r4_network.node[29].content_store 	p_hit[29] 	0.29688273132113
scalar tree_4_3_u08_r4_network.node[29].content_store 	hits[29] 	3600
scalar tree_4_3_u08_r4_network.node[29].content_store 	misses[29] 	8526
scalar tree_4_3_u08_r4_network.node[29].content_store 	decision_yes[29] 	39
scalar tree_4_3_u08_r4_network.node[29].content_store 	decision_no[29] 	8487
scalar tree_4_3_u08_r4_network.node[29].content_store 	decision_ratio[29] 	0.0045742434904996
scalar tree_4_3_u08_r4_network.node[30].core_layer 	interests[30] 	11945
scalar tree_4_3_u08_r4_network.node[30].core_layer 	data[30] 	8499
scalar tree_4_3_u08_r4_network.node[30].content_store 	p_hit[30] 	0.28848890749267
scalar tree_4_3_u08_r4_network.node[30].content_store 	hits[30] 	3446
scalar tree_4_3_u08_r4_network.node[30].content_store 	misses[30] 	8499
scalar tree_4_3_u08_r4_network.node[30].content_store 	decision_yes[30] 	31
scalar tree_4_3_u08_r4_network.node[30].content_store 	decision_no[30] 	8468
scalar tree_4_3_u08_r4_network.node[30].content_store 	decision_ratio[30] 	0.0036474879397576
scalar tree_4_3_u08_r4_network.node[31].core_layer 	interests[31] 	12084
scalar tree_4_3_u08_r4_network.node[31].core_layer 	data[31] 	8482
scalar tree_4_3_u08_r4_network.node[31].content_store 	p_hit[31] 	0.29808010592519
scalar tree_4_3_u08_r4_network.node[31].content_store 	hits[31] 	3602
scalar tree_4_3_u08_r4_network.node[31].content_store 	misses[31] 	8482
scalar tree_4_3_u08_r4_network.node[31].content_store 	decision_yes[31] 	21
scalar tree_4_3_u08_r4_network.node[31].content_store 	decision_no[31] 	8461
scalar tree_4_3_u08_r4_network.node[31].content_store 	decision_ratio[31] 	0.0024758311718934
scalar tree_4_3_u08_r4_network.node[32].core_layer 	interests[32] 	12508
scalar tree_4_3_u08_r4_network.node[32].core_layer 	data[32] 	8761
scalar tree_4_3_u08_r4_network.node[32].content_store 	p_hit[32] 	0.29956827630317
scalar tree_4_3_u08_r4_network.node[32].content_store 	hits[32] 	3747
scalar tree_4_3_u08_r4_network.node[32].content_store 	misses[32] 	8761
scalar tree_4_3_u08_r4_network.node[32].content_store 	decision_yes[32] 	45
scalar tree_4_3_u08_r4_network.node[32].content_store 	decision_no[32] 	8716
scalar tree_4_3_u08_r4_network.node[32].content_store 	decision_ratio[32] 	0.0051363999543431
scalar tree_4_3_u08_r4_network.node[33].core_layer 	interests[33] 	12212
scalar tree_4_3_u08_r4_network.node[33].core_layer 	data[33] 	8605
scalar tree_4_3_u08_r4_network.node[33].content_store 	p_hit[33] 	0.29536521454307
scalar tree_4_3_u08_r4_network.node[33].content_store 	hits[33] 	3607
scalar tree_4_3_u08_r4_network.node[33].content_store 	misses[33] 	8605
scalar tree_4_3_u08_r4_network.node[33].content_store 	decision_yes[33] 	20
scalar tree_4_3_u08_r4_network.node[33].content_store 	decision_no[33] 	8585
scalar tree_4_3_u08_r4_network.node[33].content_store 	decision_ratio[33] 	0.0023242300987798
scalar tree_4_3_u08_r4_network.node[34].core_layer 	interests[34] 	12514
scalar tree_4_3_u08_r4_network.node[34].core_layer 	data[34] 	8762
scalar tree_4_3_u08_r4_network.node[34].content_store 	p_hit[34] 	0.29974428639923
scalar tree_4_3_u08_r4_network.node[34].content_store 	hits[34] 	3751
scalar tree_4_3_u08_r4_network.node[34].content_store 	misses[34] 	8763
scalar tree_4_3_u08_r4_network.node[34].content_store 	decision_yes[34] 	27
scalar tree_4_3_u08_r4_network.node[34].content_store 	decision_no[34] 	8735
scalar tree_4_3_u08_r4_network.node[34].content_store 	decision_ratio[34] 	0.003081488244693
scalar tree_4_3_u08_r4_network.node[35].core_layer 	interests[35] 	12283
scalar tree_4_3_u08_r4_network.node[35].core_layer 	data[35] 	8689
scalar tree_4_3_u08_r4_network.node[35].content_store 	p_hit[35] 	0.29259952780265
scalar tree_4_3_u08_r4_network.node[35].content_store 	hits[35] 	3594
scalar tree_4_3_u08_r4_network.node[35].content_store 	misses[35] 	8689
scalar tree_4_3_u08_r4_network.node[35].content_store 	decision_yes[35] 	14
scalar tree_4_3_u08_r4_network.node[35].content_store 	decision_no[35] 	8675
scalar tree_4_3_u08_r4_network.node[35].content_store 	decision_ratio[35] 	0.0016112325929336
scalar tree_4_3_u08_r4_network.node[36].core_layer 	interests[36] 	12359
scalar tree_4_3_u08_r4_network.node[36].core_layer 	data[36] 	8655
scalar tree_4_3_u08_r4_network.node[36].content_store 	p_hit[36] 	0.29970062302775
scalar tree_4_3_u08_r4_network.node[36].content_store 	hits[36] 	3704
scalar tree_4_3_u08_r4_network.node[36].content_store 	misses[36] 	8655
scalar tree_4_3_u08_r4_network.node[36].content_store 	decision_yes[36] 	54
scalar tree_4_3_u08_r4_network.node[36].content_store 	decision_no[36] 	8601
scalar tree_4_3_u08_r4_network.node[36].content_store 	decision_ratio[36] 	0.0062391681109185
scalar tree_4_3_u08_r4_network.node[37].core_layer 	interests[37] 	12506
scalar tree_4_3_u08_r4_network.node[37].core_layer 	data[37] 	8772
scalar tree_4_3_u08_r4_network.node[37].content_store 	p_hit[37] 	0.29849672157364
scalar tree_4_3_u08_r4_network.node[37].content_store 	hits[37] 	3733
scalar tree_4_3_u08_r4_network.node[37].content_store 	misses[37] 	8773
scalar tree_4_3_u08_r4_network.node[37].content_store 	decision_yes[37] 	47
scalar tree_4_3_u08_r4_network.node[37].content_store 	decision_no[37] 	8725
scalar tree_4_3_u08_r4_network.node[37].content_store 	decision_ratio[37] 	0.0053579571363429
scalar tree_4_3_u08_r4_network.node[38].core_layer 	interests[38] 	12373
scalar tree_4_3_u08_r4_network.node[38].core_layer 	data[38] 	8762
scalar tree_4_3_u08_r4_network.node[38].content_store 	p_hit[38] 	0.29184514669037
scalar tree_4_3_u08_r4_network.node[38].content_store 	hits[38] 	3611
scalar tree_4_3_u08_r4_network.node[38].content_store 	misses[38] 	8762
scalar tree_4_3_u08_r4_network.node[38].content_store 	decision_yes[38] 	44
scalar tree_4_3_u08_r4_network.node[38].content_store 	decision_no[38] 	8718
scalar tree_4_3_u08_r4_network.node[38].content_store 	decision_ratio[38] 	0.0050216845469071
scalar tree_4_3_u08_r4_network.node[39].core_layer 	interests[39] 	12148
scalar tree_4_3_u08_r4_network.node[39].core_layer 	data[39] 	8611
scalar tree_4_3_u08_r4_network.node[39].content_store 	p_hit[39] 	0.29107672044781
scalar tree_4_3_u08_r4_network.node[39].content_store 	hits[39] 	3536
scalar tree_4_3_u08_r4_network.node[39].content_store 	misses[39] 	8612
scalar tree_4_3_u08_r4_network.node[39].content_store 	decision_yes[39] 	33
scalar tree_4_3_u08_r4_network.node[39].content_store 	decision_no[39] 	8578
scalar tree_4_3_u08_r4_network.node[39].content_store 	decision_ratio[39] 	0.0038323075136453
scalar tree_4_3_u08_r4_network.client[13] 	hdistance[13] 	2.6258117550349
scalar tree_4_3_u08_r4_network.client[13] 	downloads[13] 	12165
scalar tree_4_3_u08_r4_network.client[13] 	avg_time[13] 	0.004074882256
scalar tree_4_3_u08_r4_network.client[14] 	hdistance[14] 	2.5883680120331
scalar tree_4_3_u08_r4_network.client[14] 	downloads[14] 	11967
scalar tree_4_3_u08_r4_network.client[14] 	avg_time[14] 	0.004011027316
scalar tree_4_3_u08_r4_network.client[15] 	hdistance[15] 	2.6179803159375
scalar tree_4_3_u08_r4_network.client[15] 	downloads[15] 	12091
scalar tree_4_3_u08_r4_network.client[15] 	avg_time[15] 	0.004051109376
scalar tree_4_3_u08_r4_network.client[16] 	hdistance[16] 	2.5933200729322
scalar tree_4_3_u08_r4_network.client[16] 	downloads[16] 	12066
scalar tree_4_3_u08_r4_network.client[16] 	avg_time[16] 	0.004020550555
scalar tree_4_3_u08_r4_network.client[17] 	hdistance[17] 	2.621539755995
scalar tree_4_3_u08_r4_network.client[17] 	downloads[17] 	11885
scalar tree_4_3_u08_r4_network.client[17] 	avg_time[17] 	0.004078078643
scalar tree_4_3_u08_r4_network.client[18] 	hdistance[18] 	2.575568842385
scalar tree_4_3_u08_r4_network.client[18] 	downloads[18] 	12042
scalar tree_4_3_u08_r4_network.client[18] 	avg_time[18] 	0.003991360559
scalar tree_4_3_u08_r4_network.client[19] 	hdistance[19] 	2.641946504458
scalar tree_4_3_u08_r4_network.client[19] 	downloads[19] 	12001
scalar tree_4_3_u08_r4_network.client[19] 	avg_time[19] 	0.004103488418
scalar tree_4_3_u08_r4_network.client[20] 	hdistance[20] 	2.5478114478114
scalar tree_4_3_u08_r4_network.client[20] 	downloads[20] 	11880
scalar tree_4_3_u08_r4_network.client[20] 	avg_time[20] 	0.003949916031
scalar tree_4_3_u08_r4_network.client[21] 	hdistance[21] 	2.6465596908342
scalar tree_4_3_u08_r4_network.client[21] 	downloads[21] 	11903
scalar tree_4_3_u08_r4_network.client[21] 	avg_time[21] 	0.004104676523
scalar tree_4_3_u08_r4_network.client[22] 	hdistance[22] 	2.6213159415504
scalar tree_4_3_u08_r4_network.client[22] 	downloads[22] 	12113
scalar tree_4_3_u08_r4_network.client[22] 	avg_time[22] 	0.004081562201
scalar tree_4_3_u08_r4_network.client[23] 	hdistance[23] 	2.5811762778506
scalar tree_4_3_u08_r4_network.client[23] 	downloads[23] 	12208
scalar tree_4_3_u08_r4_network.client[23] 	avg_time[23] 	0.004000979896
scalar tree_4_3_u08_r4_network.client[24] 	hdistance[24] 	2.5846908244681
scalar tree_4_3_u08_r4_network.client[24] 	downloads[24] 	12032
scalar tree_4_3_u08_r4_network.client[24] 	avg_time[24] 	0.003997669827
scalar tree_4_3_u08_r4_network.client[25] 	hdistance[25] 	2.5945336008024
scalar tree_4_3_u08_r4_network.client[25] 	downloads[25] 	11964
scalar tree_4_3_u08_r4_network.client[25] 	avg_time[25] 	0.004011197259
scalar tree_4_3_u08_r4_network.client[26] 	hdistance[26] 	2.6224404860996
scalar tree_4_3_u08_r4_network.client[26] 	downloads[26] 	12014
scalar tree_4_3_u08_r4_network.client[26] 	avg_time[26] 	0.004058928223
scalar tree_4_3_u08_r4_network.client[27] 	hdistance[27] 	2.6058309037901
scalar tree_4_3_u08_r4_network.client[27] 	downloads[27] 	12005
scalar tree_4_3_u08_r4_network.client[27] 	avg_time[27] 	0.004022154425
scalar tree_4_3_u08_r4_network.client[28] 	hdistance[28] 	2.5469863358203
scalar tree_4_3_u08_r4_network.client[28] 	downloads[28] 	11929
scalar tree_4_3_u08_r4_network.client[28] 	avg_time[28] 	0.003942853534
scalar tree_4_3_u08_r4_network.client[29] 	hdistance[29] 	2.6148262020668
scalar tree_4_3_u08_r4_network.client[29] 	downloads[29] 	11709
scalar tree_4_3_u08_r4_network.client[29] 	avg_time[29] 	0.004040478793
scalar tree_4_3_u08_r4_network.client[30] 	hdistance[30] 	2.6370019456899
scalar tree_4_3_u08_r4_network.client[30] 	downloads[30] 	11821
scalar tree_4_3_u08_r4_network.client[30] 	avg_time[30] 	0.004086284168
scalar tree_4_3_u08_r4_network.client[31] 	hdistance[31] 	2.6031036518512
scalar tree_4_3_u08_r4_network.client[31] 	downloads[31] 	11857
scalar tree_4_3_u08_r4_network.client[31] 	avg_time[31] 	0.004035419147
scalar tree_4_3_u08_r4_network.client[32] 	hdistance[32] 	2.565268358034
scalar tree_4_3_u08_r4_network.client[32] 	downloads[32] 	11943
scalar tree_4_3_u08_r4_network.client[32] 	avg_time[32] 	0.003984590523
scalar tree_4_3_u08_r4_network.client[33] 	hdistance[33] 	2.6110229645094
scalar tree_4_3_u08_r4_network.client[33] 	downloads[33] 	11975
scalar tree_4_3_u08_r4_network.client[33] 	avg_time[33] 	0.004049335228
scalar tree_4_3_u08_r4_network.client[34] 	hdistance[34] 	2.5962582477241
scalar tree_4_3_u08_r4_network.client[34] 	downloads[34] 	11973
scalar tree_4_3_u08_r4_network.client[34] 	avg_time[34] 	0.004020513926
scalar tree_4_3_u08_r4_network.client[35] 	hdistance[35] 	2.6315221899627
scalar tree_4_3_u08_r4_network.client[35] 	downloads[35] 	12055
scalar tree_4_3_u08_r4_network.client[35] 	avg_time[35] 	0.004078802477
scalar tree_4_3_u08_r4_network.client[36] 	hdistance[36] 	2.5668244870837
scalar tree_4_3_u08_r4_network.client[36] 	downloads[36] 	12039
scalar tree_4_3_u08_r4_network.client[36] 	avg_time[36] 	0.003970758654
scalar tree_4_3_u08_r4_network.client[37] 	hdistance[37] 	2.5936515829604
scalar tree_4_3_u08_r4_network.client[37] 	downloads[37] 	12066
scalar tree_4_3_u08_r4_network.client[37] 	avg_time[37] 	0.004015651771
scalar tree_4_3_u08_r4_network.client[38] 	hdistance[38] 	2.6124906569222
scalar tree_4_3_u08_r4_network.client[38] 	downloads[38] 	12041
scalar tree_4_3_u08_r4_network.client[38] 	avg_time[38] 	0.004036876213
scalar tree_4_3_u08_r4_network.client[39] 	hdistance[39] 	2.6366418527709
scalar tree_4_3_u08_r4_network.client[39] 	downloads[39] 	12090
scalar tree_4_3_u08_r4_network.client[39] 	avg_time[39] 	0.004056188544
