version 2
run General-521-20160901-12:07:58-8710
attr a 0.9
attr cd tfc
attr configname General
attr cr lru
attr datetime 20160901-12:07:58
attr experiment General
attr fsize 1
attr inifile hw5115/scenario_Y/omnetp.ini
attr iterationvars "$name=tree_4_3, $un=08, $rep=14, $cd=tfc, $cr=lru, $fsize=1, $a=0.9, $sl=nrr, $ttl=1000, $variance=0.05"
attr iterationvars2 "$name=tree_4_3, $un=08, $rep=14, $cd=tfc, $cr=lru, $fsize=1, $a=0.9, $sl=nrr, $ttl=1000, $variance=0.05, $repetition=0"
attr measurement "$name=tree_4_3, $un=08, $rep=14, $cd=tfc, $cr=lru, $fsize=1, $a=0.9, $sl=nrr, $ttl=1000, $variance=0.05"
attr name tree_4_3
attr network networks.${name}_u${un}_r${rep}_network
attr processid 8710
attr rep 14
attr repetition 0
attr replication #0
attr resultdir results
attr runnumber 521
attr seedset 14
attr sl nrr
attr ttl 1000
attr un 08
attr variance 0.05

scalar . 	a 	0.9
scalar . 	fsize 	1
scalar . 	rep 	14
scalar . 	ttl 	1000
scalar . 	un 	08
scalar . 	variance 	0.05
scalar tree_4_3_u08_r14_network.content_distribution 	repo-0 	0
scalar tree_4_3_u08_r14_network.content_distribution 	client-0 	13
scalar tree_4_3_u08_r14_network.content_distribution 	client-1 	14
scalar tree_4_3_u08_r14_network.content_distribution 	client-2 	15
scalar tree_4_3_u08_r14_network.content_distribution 	client-3 	16
scalar tree_4_3_u08_r14_network.content_distribution 	client-4 	17
scalar tree_4_3_u08_r14_network.content_distribution 	client-5 	18
scalar tree_4_3_u08_r14_network.content_distribution 	client-6 	19
scalar tree_4_3_u08_r14_network.content_distribution 	client-7 	20
scalar tree_4_3_u08_r14_network.content_distribution 	client-8 	21
scalar tree_4_3_u08_r14_network.content_distribution 	client-9 	22
scalar tree_4_3_u08_r14_network.content_distribution 	client-10 	23
scalar tree_4_3_u08_r14_network.content_distribution 	client-11 	24
scalar tree_4_3_u08_r14_network.content_distribution 	client-12 	25
scalar tree_4_3_u08_r14_network.content_distribution 	client-13 	26
scalar tree_4_3_u08_r14_network.content_distribution 	client-14 	27
scalar tree_4_3_u08_r14_network.content_distribution 	client-15 	28
scalar tree_4_3_u08_r14_network.content_distribution 	client-16 	29
scalar tree_4_3_u08_r14_network.content_distribution 	client-17 	30
scalar tree_4_3_u08_r14_network.content_distribution 	client-18 	31
scalar tree_4_3_u08_r14_network.content_distribution 	client-19 	32
scalar tree_4_3_u08_r14_network.content_distribution 	client-20 	33
scalar tree_4_3_u08_r14_network.content_distribution 	client-21 	34
scalar tree_4_3_u08_r14_network.content_distribution 	client-22 	35
scalar tree_4_3_u08_r14_network.content_distribution 	client-23 	36
scalar tree_4_3_u08_r14_network.content_distribution 	client-24 	37
scalar tree_4_3_u08_r14_network.content_distribution 	client-25 	38
scalar tree_4_3_u08_r14_network.content_distribution 	client-26 	39
scalar tree_4_3_u08_r14_network.content_distribution 	repo-0_card 	100000
scalar tree_4_3_u08_r14_network.content_distribution 	repo-0_price 	0
scalar tree_4_3_u08_r14_network.statistics 	stabilization_time 	2027.1
scalar tree_4_3_u08_r14_network.statistics 	p_hit 	0.23167706802323
scalar tree_4_3_u08_r14_network.statistics 	interests 	24406.7
scalar tree_4_3_u08_r14_network.statistics 	data 	16305.35
scalar tree_4_3_u08_r14_network.statistics 	hdistance 	2.5956372692794
scalar tree_4_3_u08_r14_network.statistics 	avg_time 	0.004025396665
scalar tree_4_3_u08_r14_network.statistics 	downloads 	324049
scalar tree_4_3_u08_r14_network.statistics 	total_cost 	0
scalar tree_4_3_u08_r14_network.statistics 	total_replicas 	100000
scalar tree_4_3_u08_r14_network.statistics 	inner_hit 	0.41708198451469
scalar tree_4_3_u08_r14_network.node[0].core_layer 	interests[0] 	192207
scalar tree_4_3_u08_r14_network.node[0].core_layer 	repo_load[0] 	188894
scalar tree_4_3_u08_r14_network.node[0].core_layer 	data[0] 	0
scalar tree_4_3_u08_r14_network.node[0].core_layer 	repo_int[0] 	188894
scalar tree_4_3_u08_r14_network.node[0].content_store 	p_hit[0] 	0.017236625096901
scalar tree_4_3_u08_r14_network.node[0].content_store 	hits[0] 	3313
scalar tree_4_3_u08_r14_network.node[0].content_store 	misses[0] 	188894
scalar tree_4_3_u08_r14_network.node[0].content_store 	decision_yes[0] 	900
scalar tree_4_3_u08_r14_network.node[0].content_store 	decision_no[0] 	187994
scalar tree_4_3_u08_r14_network.node[0].content_store 	decision_ratio[0] 	0.0047645769585058
scalar tree_4_3_u08_r14_network.node[1].core_layer 	interests[1] 	141693
scalar tree_4_3_u08_r14_network.node[1].core_layer 	data[1] 	138108
scalar tree_4_3_u08_r14_network.node[1].content_store 	p_hit[1] 	0.025280006775211
scalar tree_4_3_u08_r14_network.node[1].content_store 	hits[1] 	3582
scalar tree_4_3_u08_r14_network.node[1].content_store 	misses[1] 	138111
scalar tree_4_3_u08_r14_network.node[1].content_store 	decision_yes[1] 	98
scalar tree_4_3_u08_r14_network.node[1].content_store 	decision_no[1] 	138010
scalar tree_4_3_u08_r14_network.node[1].content_store 	decision_ratio[1] 	0.00070958959654763
scalar tree_4_3_u08_r14_network.node[2].core_layer 	interests[2] 	47304
scalar tree_4_3_u08_r14_network.node[2].core_layer 	data[2] 	44595
scalar tree_4_3_u08_r14_network.node[2].content_store 	p_hit[2] 	0.057267884322679
scalar tree_4_3_u08_r14_network.node[2].content_store 	hits[2] 	2709
scalar tree_4_3_u08_r14_network.node[2].content_store 	misses[2] 	44595
scalar tree_4_3_u08_r14_network.node[2].content_store 	decision_yes[2] 	57
scalar tree_4_3_u08_r14_network.node[2].content_store 	decision_no[2] 	44538
scalar tree_4_3_u08_r14_network.node[2].content_store 	decision_ratio[2] 	0.0012781701984527
scalar tree_4_3_u08_r14_network.node[3].core_layer 	interests[3] 	19966
scalar tree_4_3_u08_r14_network.node[3].core_layer 	data[3] 	16526
scalar tree_4_3_u08_r14_network.node[3].content_store 	p_hit[3] 	0.17229289792648
scalar tree_4_3_u08_r14_network.node[3].content_store 	hits[3] 	3440
scalar tree_4_3_u08_r14_network.node[3].content_store 	misses[3] 	16526
scalar tree_4_3_u08_r14_network.node[3].content_store 	decision_yes[3] 	121
scalar tree_4_3_u08_r14_network.node[3].content_store 	decision_no[3] 	16405
scalar tree_4_3_u08_r14_network.node[3].content_store 	decision_ratio[3] 	0.0073217959578845
scalar tree_4_3_u08_r14_network.node[4].core_layer 	interests[4] 	41500
scalar tree_4_3_u08_r14_network.node[4].core_layer 	data[4] 	39125
scalar tree_4_3_u08_r14_network.node[4].content_store 	p_hit[4] 	0.057204819277108
scalar tree_4_3_u08_r14_network.node[4].content_store 	hits[4] 	2374
scalar tree_4_3_u08_r14_network.node[4].content_store 	misses[4] 	39126
scalar tree_4_3_u08_r14_network.node[4].content_store 	decision_yes[4] 	97
scalar tree_4_3_u08_r14_network.node[4].content_store 	decision_no[4] 	39028
scalar tree_4_3_u08_r14_network.node[4].content_store 	decision_ratio[4] 	0.0024792332268371
scalar tree_4_3_u08_r14_network.node[5].core_layer 	interests[5] 	18496
scalar tree_4_3_u08_r14_network.node[5].core_layer 	data[5] 	16326
scalar tree_4_3_u08_r14_network.node[5].content_store 	p_hit[5] 	0.11726859861592
scalar tree_4_3_u08_r14_network.node[5].content_store 	hits[5] 	2169
scalar tree_4_3_u08_r14_network.node[5].content_store 	misses[5] 	16327
scalar tree_4_3_u08_r14_network.node[5].content_store 	decision_yes[5] 	55
scalar tree_4_3_u08_r14_network.node[5].content_store 	decision_no[5] 	16271
scalar tree_4_3_u08_r14_network.node[5].content_store 	decision_ratio[5] 	0.0033688594879334
scalar tree_4_3_u08_r14_network.node[6].core_layer 	interests[6] 	20722
scalar tree_4_3_u08_r14_network.node[6].core_layer 	data[6] 	17818
scalar tree_4_3_u08_r14_network.node[6].content_store 	p_hit[6] 	0.14014091303928
scalar tree_4_3_u08_r14_network.node[6].content_store 	hits[6] 	2904
scalar tree_4_3_u08_r14_network.node[6].content_store 	misses[6] 	17818
scalar tree_4_3_u08_r14_network.node[6].content_store 	decision_yes[6] 	160
scalar tree_4_3_u08_r14_network.node[6].content_store 	decision_no[6] 	17658
scalar tree_4_3_u08_r14_network.node[6].content_store 	decision_ratio[6] 	0.0089796834661578
scalar tree_4_3_u08_r14_network.node[7].core_layer 	interests[7] 	42274
scalar tree_4_3_u08_r14_network.node[7].core_layer 	data[7] 	39436
scalar tree_4_3_u08_r14_network.node[7].content_store 	p_hit[7] 	0.067109807446658
scalar tree_4_3_u08_r14_network.node[7].content_store 	hits[7] 	2837
scalar tree_4_3_u08_r14_network.node[7].content_store 	misses[7] 	39437
scalar tree_4_3_u08_r14_network.node[7].content_store 	decision_yes[7] 	87
scalar tree_4_3_u08_r14_network.node[7].content_store 	decision_no[7] 	39349
scalar tree_4_3_u08_r14_network.node[7].content_store 	decision_ratio[7] 	0.0022061060959529
scalar tree_4_3_u08_r14_network.node[8].core_layer 	interests[8] 	17818
scalar tree_4_3_u08_r14_network.node[8].core_layer 	data[8] 	15925
scalar tree_4_3_u08_r14_network.node[8].content_store 	p_hit[8] 	0.10624088000898
scalar tree_4_3_u08_r14_network.node[8].content_store 	hits[8] 	1893
scalar tree_4_3_u08_r14_network.node[8].content_store 	misses[8] 	15925
scalar tree_4_3_u08_r14_network.node[8].content_store 	decision_yes[8] 	46
scalar tree_4_3_u08_r14_network.node[8].content_store 	decision_no[8] 	15879
scalar tree_4_3_u08_r14_network.node[8].content_store 	decision_ratio[8] 	0.0028885400313972
scalar tree_4_3_u08_r14_network.node[9].core_layer 	interests[9] 	20161
scalar tree_4_3_u08_r14_network.node[9].core_layer 	data[9] 	17387
scalar tree_4_3_u08_r14_network.node[9].content_store 	p_hit[9] 	0.13759238133029
scalar tree_4_3_u08_r14_network.node[9].content_store 	hits[9] 	2774
scalar tree_4_3_u08_r14_network.node[9].content_store 	misses[9] 	17387
scalar tree_4_3_u08_r14_network.node[9].content_store 	decision_yes[9] 	172
scalar tree_4_3_u08_r14_network.node[9].content_store 	decision_no[9] 	17215
scalar tree_4_3_u08_r14_network.node[9].content_store 	decision_ratio[9] 	0.0098924483809743
scalar tree_4_3_u08_r14_network.node[10].core_layer 	interests[10] 	42214
scalar tree_4_3_u08_r14_network.node[10].core_layer 	data[10] 	39361
scalar tree_4_3_u08_r14_network.node[10].content_store 	p_hit[10] 	0.067560524944331
scalar tree_4_3_u08_r14_network.node[10].content_store 	hits[10] 	2852
scalar tree_4_3_u08_r14_network.node[10].content_store 	misses[10] 	39362
scalar tree_4_3_u08_r14_network.node[10].content_store 	decision_yes[10] 	105
scalar tree_4_3_u08_r14_network.node[10].content_store 	decision_no[10] 	39256
scalar tree_4_3_u08_r14_network.node[10].content_store 	decision_ratio[10] 	0.0026676151520541
scalar tree_4_3_u08_r14_network.node[11].core_layer 	interests[11] 	18676
scalar tree_4_3_u08_r14_network.node[11].core_layer 	data[11] 	16492
scalar tree_4_3_u08_r14_network.node[11].content_store 	p_hit[11] 	0.11694152923538
scalar tree_4_3_u08_r14_network.node[11].content_store 	hits[11] 	2184
scalar tree_4_3_u08_r14_network.node[11].content_store 	misses[11] 	16492
scalar tree_4_3_u08_r14_network.node[11].content_store 	decision_yes[11] 	79
scalar tree_4_3_u08_r14_network.node[11].content_store 	decision_no[11] 	16413
scalar tree_4_3_u08_r14_network.node[11].content_store 	decision_ratio[11] 	0.0047902013097259
scalar tree_4_3_u08_r14_network.node[12].core_layer 	interests[12] 	19348
scalar tree_4_3_u08_r14_network.node[12].core_layer 	data[12] 	16930
scalar tree_4_3_u08_r14_network.node[12].content_store 	p_hit[12] 	0.12497415753566
scalar tree_4_3_u08_r14_network.node[12].content_store 	hits[12] 	2418
scalar tree_4_3_u08_r14_network.node[12].content_store 	misses[12] 	16930
scalar tree_4_3_u08_r14_network.node[12].content_store 	decision_yes[12] 	77
scalar tree_4_3_u08_r14_network.node[12].content_store 	decision_no[12] 	16853
scalar tree_4_3_u08_r14_network.node[12].content_store 	decision_ratio[12] 	0.0045481393975192
scalar tree_4_3_u08_r14_network.node[13].core_layer 	interests[13] 	12362
scalar tree_4_3_u08_r14_network.node[13].core_layer 	data[13] 	8695
scalar tree_4_3_u08_r14_network.node[13].content_store 	p_hit[13] 	0.29663484872998
scalar tree_4_3_u08_r14_network.node[13].content_store 	hits[13] 	3667
scalar tree_4_3_u08_r14_network.node[13].content_store 	misses[13] 	8695
scalar tree_4_3_u08_r14_network.node[13].content_store 	decision_yes[13] 	24
scalar tree_4_3_u08_r14_network.node[13].content_store 	decision_no[13] 	8671
scalar tree_4_3_u08_r14_network.node[13].content_store 	decision_ratio[13] 	0.0027602070155262
scalar tree_4_3_u08_r14_network.node[14].core_layer 	interests[14] 	12266
scalar tree_4_3_u08_r14_network.node[14].core_layer 	data[14] 	8574
scalar tree_4_3_u08_r14_network.node[14].content_store 	p_hit[14] 	0.30099461927279
scalar tree_4_3_u08_r14_network.node[14].content_store 	hits[14] 	3692
scalar tree_4_3_u08_r14_network.node[14].content_store 	misses[14] 	8574
scalar tree_4_3_u08_r14_network.node[14].content_store 	decision_yes[14] 	22
scalar tree_4_3_u08_r14_network.node[14].content_store 	decision_no[14] 	8552
scalar tree_4_3_u08_r14_network.node[14].content_store 	decision_ratio[14] 	0.0025658968975974
scalar tree_4_3_u08_r14_network.node[15].core_layer 	interests[15] 	12610
scalar tree_4_3_u08_r14_network.node[15].core_layer 	data[15] 	8745
scalar tree_4_3_u08_r14_network.node[15].content_store 	p_hit[15] 	0.30650277557494
scalar tree_4_3_u08_r14_network.node[15].content_store 	hits[15] 	3865
scalar tree_4_3_u08_r14_network.node[15].content_store 	misses[15] 	8745
scalar tree_4_3_u08_r14_network.node[15].content_store 	decision_yes[15] 	46
scalar tree_4_3_u08_r14_network.node[15].content_store 	decision_no[15] 	8699
scalar tree_4_3_u08_r14_network.node[15].content_store 	decision_ratio[15] 	0.0052601486563751
scalar tree_4_3_u08_r14_network.node[16].core_layer 	interests[16] 	12416
scalar tree_4_3_u08_r14_network.node[16].core_layer 	data[16] 	8582
scalar tree_4_3_u08_r14_network.node[16].content_store 	p_hit[16] 	0.30879510309278
scalar tree_4_3_u08_r14_network.node[16].content_store 	hits[16] 	3834
scalar tree_4_3_u08_r14_network.node[16].content_store 	misses[16] 	8582
scalar tree_4_3_u08_r14_network.node[16].content_store 	decision_yes[16] 	36
scalar tree_4_3_u08_r14_network.node[16].content_store 	decision_no[16] 	8546
scalar tree_4_3_u08_r14_network.node[16].content_store 	decision_ratio[16] 	0.004194826380797
scalar tree_4_3_u08_r14_network.node[17].core_layer 	interests[17] 	12212
scalar tree_4_3_u08_r14_network.node[17].core_layer 	data[17] 	8759
scalar tree_4_3_u08_r14_network.node[17].content_store 	p_hit[17] 	0.28275466754012
scalar tree_4_3_u08_r14_network.node[17].content_store 	hits[17] 	3453
scalar tree_4_3_u08_r14_network.node[17].content_store 	misses[17] 	8759
scalar tree_4_3_u08_r14_network.node[17].content_store 	decision_yes[17] 	21
scalar tree_4_3_u08_r14_network.node[17].content_store 	decision_no[17] 	8738
scalar tree_4_3_u08_r14_network.node[17].content_store 	decision_ratio[17] 	0.0023975339650645
scalar tree_4_3_u08_r14_network.node[18].core_layer 	interests[18] 	12695
scalar tree_4_3_u08_r14_network.node[18].core_layer 	data[18] 	8720
scalar tree_4_3_u08_r14_network.node[18].content_store 	p_hit[18] 	0.31303662859393
scalar tree_4_3_u08_r14_network.node[18].content_store 	hits[18] 	3974
scalar tree_4_3_u08_r14_network.node[18].content_store 	misses[18] 	8721
scalar tree_4_3_u08_r14_network.node[18].content_store 	decision_yes[18] 	43
scalar tree_4_3_u08_r14_network.node[18].content_store 	decision_no[18] 	8677
scalar tree_4_3_u08_r14_network.node[18].content_store 	decision_ratio[18] 	0.0049311926605505
scalar tree_4_3_u08_r14_network.node[19].core_layer 	interests[19] 	12550
scalar tree_4_3_u08_r14_network.node[19].core_layer 	data[19] 	8648
scalar tree_4_3_u08_r14_network.node[19].content_store 	p_hit[19] 	0.31091633466135
scalar tree_4_3_u08_r14_network.node[19].content_store 	hits[19] 	3902
scalar tree_4_3_u08_r14_network.node[19].content_store 	misses[19] 	8648
scalar tree_4_3_u08_r14_network.node[19].content_store 	decision_yes[19] 	49
scalar tree_4_3_u08_r14_network.node[19].content_store 	decision_no[19] 	8599
scalar tree_4_3_u08_r14_network.node[19].content_store 	decision_ratio[19] 	0.0056660499537465
scalar tree_4_3_u08_r14_network.node[20].core_layer 	interests[20] 	12319
scalar tree_4_3_u08_r14_network.node[20].core_layer 	data[20] 	8590
scalar tree_4_3_u08_r14_network.node[20].content_store 	p_hit[20] 	0.30270314148876
scalar tree_4_3_u08_r14_network.node[20].content_store 	hits[20] 	3729
scalar tree_4_3_u08_r14_network.node[20].content_store 	misses[20] 	8590
scalar tree_4_3_u08_r14_network.node[20].content_store 	decision_yes[20] 	25
scalar tree_4_3_u08_r14_network.node[20].content_store 	decision_no[20] 	8565
scalar tree_4_3_u08_r14_network.node[20].content_store 	decision_ratio[20] 	0.0029103608847497
scalar tree_4_3_u08_r14_network.node[21].core_layer 	interests[21] 	12390
scalar tree_4_3_u08_r14_network.node[21].core_layer 	data[21] 	8711
scalar tree_4_3_u08_r14_network.node[21].content_store 	p_hit[21] 	0.29685230024213
scalar tree_4_3_u08_r14_network.node[21].content_store 	hits[21] 	3678
scalar tree_4_3_u08_r14_network.node[21].content_store 	misses[21] 	8712
scalar tree_4_3_u08_r14_network.node[21].content_store 	decision_yes[21] 	21
scalar tree_4_3_u08_r14_network.node[21].content_store 	decision_no[21] 	8690
scalar tree_4_3_u08_r14_network.node[21].content_store 	decision_ratio[21] 	0.0024107450350132
scalar tree_4_3_u08_r14_network.node[22].core_layer 	interests[22] 	12042
scalar tree_4_3_u08_r14_network.node[22].core_layer 	data[22] 	8502
scalar tree_4_3_u08_r14_network.node[22].content_store 	p_hit[22] 	0.29397110114599
scalar tree_4_3_u08_r14_network.node[22].content_store 	hits[22] 	3540
scalar tree_4_3_u08_r14_network.node[22].content_store 	misses[22] 	8502
scalar tree_4_3_u08_r14_network.node[22].content_store 	decision_yes[22] 	17
scalar tree_4_3_u08_r14_network.node[22].content_store 	decision_no[22] 	8485
scalar tree_4_3_u08_r14_network.node[22].content_store 	decision_ratio[22] 	0.0019995295224653
scalar tree_4_3_u08_r14_network.node[23].core_layer 	interests[23] 	12370
scalar tree_4_3_u08_r14_network.node[23].core_layer 	data[23] 	8679
scalar tree_4_3_u08_r14_network.node[23].content_store 	p_hit[23] 	0.2983831851253
scalar tree_4_3_u08_r14_network.node[23].content_store 	hits[23] 	3691
scalar tree_4_3_u08_r14_network.node[23].content_store 	misses[23] 	8679
scalar tree_4_3_u08_r14_network.node[23].content_store 	decision_yes[23] 	41
scalar tree_4_3_u08_r14_network.node[23].content_store 	decision_no[23] 	8638
scalar tree_4_3_u08_r14_network.node[23].content_store 	decision_ratio[23] 	0.0047240465491416
scalar tree_4_3_u08_r14_network.node[24].core_layer 	interests[24] 	12532
scalar tree_4_3_u08_r14_network.node[24].core_layer 	data[24] 	8766
scalar tree_4_3_u08_r14_network.node[24].content_store 	p_hit[24] 	0.30051069262688
scalar tree_4_3_u08_r14_network.node[24].content_store 	hits[24] 	3766
scalar tree_4_3_u08_r14_network.node[24].content_store 	misses[24] 	8766
scalar tree_4_3_u08_r14_network.node[24].content_store 	decision_yes[24] 	44
scalar tree_4_3_u08_r14_network.node[24].content_store 	decision_no[24] 	8722
scalar tree_4_3_u08_r14_network.node[24].content_store 	decision_ratio[24] 	0.0050193931097422
scalar tree_4_3_u08_r14_network.node[25].core_layer 	interests[25] 	12572
scalar tree_4_3_u08_r14_network.node[25].core_layer 	data[25] 	8862
scalar tree_4_3_u08_r14_network.node[25].content_store 	p_hit[25] 	0.29510022271715
scalar tree_4_3_u08_r14_network.node[25].content_store 	hits[25] 	3710
scalar tree_4_3_u08_r14_network.node[25].content_store 	misses[25] 	8862
scalar tree_4_3_u08_r14_network.node[25].content_store 	decision_yes[25] 	39
scalar tree_4_3_u08_r14_network.node[25].content_store 	decision_no[25] 	8823
scalar tree_4_3_u08_r14_network.node[25].content_store 	decision_ratio[25] 	0.0044008124576845
scalar tree_4_3_u08_r14_network.node[26].core_layer 	interests[26] 	12038
scalar tree_4_3_u08_r14_network.node[26].core_layer 	data[26] 	8582
scalar tree_4_3_u08_r14_network.node[26].content_store 	p_hit[26] 	0.28709087888354
scalar tree_4_3_u08_r14_network.node[26].content_store 	hits[26] 	3456
scalar tree_4_3_u08_r14_network.node[26].content_store 	misses[26] 	8582
scalar tree_4_3_u08_r14_network.node[26].content_store 	decision_yes[26] 	31
scalar tree_4_3_u08_r14_network.node[26].content_store 	decision_no[26] 	8551
scalar tree_4_3_u08_r14_network.node[26].content_store 	decision_ratio[26] 	0.0036122116056863
scalar tree_4_3_u08_r14_network.node[27].core_layer 	interests[27] 	12575
scalar tree_4_3_u08_r14_network.node[27].core_layer 	data[27] 	8790
scalar tree_4_3_u08_r14_network.node[27].content_store 	p_hit[27] 	0.30099403578529
scalar tree_4_3_u08_r14_network.node[27].content_store 	hits[27] 	3785
scalar tree_4_3_u08_r14_network.node[27].content_store 	misses[27] 	8790
scalar tree_4_3_u08_r14_network.node[27].content_store 	decision_yes[27] 	42
scalar tree_4_3_u08_r14_network.node[27].content_store 	decision_no[27] 	8748
scalar tree_4_3_u08_r14_network.node[27].content_store 	decision_ratio[27] 	0.004778156996587
scalar tree_4_3_u08_r14_network.node[28].core_layer 	interests[28] 	12683
scalar tree_4_3_u08_r14_network.node[28].core_layer 	data[28] 	8692
scalar tree_4_3_u08_r14_network.node[28].content_store 	p_hit[28] 	0.31467318457778
scalar tree_4_3_u08_r14_network.node[28].content_store 	hits[28] 	3991
scalar tree_4_3_u08_r14_network.node[28].content_store 	misses[28] 	8692
scalar tree_4_3_u08_r14_network.node[28].content_store 	decision_yes[28] 	29
scalar tree_4_3_u08_r14_network.node[28].content_store 	decision_no[28] 	8663
scalar tree_4_3_u08_r14_network.node[28].content_store 	decision_ratio[28] 	0.0033364012885412
scalar tree_4_3_u08_r14_network.node[29].core_layer 	interests[29] 	12230
scalar tree_4_3_u08_r14_network.node[29].core_layer 	data[29] 	8601
scalar tree_4_3_u08_r14_network.node[29].content_store 	p_hit[29] 	0.29672935404742
scalar tree_4_3_u08_r14_network.node[29].content_store 	hits[29] 	3629
scalar tree_4_3_u08_r14_network.node[29].content_store 	misses[29] 	8601
scalar tree_4_3_u08_r14_network.node[29].content_store 	decision_yes[29] 	23
scalar tree_4_3_u08_r14_network.node[29].content_store 	decision_no[29] 	8578
scalar tree_4_3_u08_r14_network.node[29].content_store 	decision_ratio[29] 	0.0026741076618998
scalar tree_4_3_u08_r14_network.node[30].core_layer 	interests[30] 	12104
scalar tree_4_3_u08_r14_network.node[30].core_layer 	data[30] 	8561
scalar tree_4_3_u08_r14_network.node[30].content_store 	p_hit[30] 	0.2927131526768
scalar tree_4_3_u08_r14_network.node[30].content_store 	hits[30] 	3543
scalar tree_4_3_u08_r14_network.node[30].content_store 	misses[30] 	8561
scalar tree_4_3_u08_r14_network.node[30].content_store 	decision_yes[30] 	24
scalar tree_4_3_u08_r14_network.node[30].content_store 	decision_no[30] 	8537
scalar tree_4_3_u08_r14_network.node[30].content_store 	decision_ratio[30] 	0.0028034108164934
scalar tree_4_3_u08_r14_network.node[31].core_layer 	interests[31] 	12309
scalar tree_4_3_u08_r14_network.node[31].core_layer 	data[31] 	8751
scalar tree_4_3_u08_r14_network.node[31].content_store 	p_hit[31] 	0.28905678771631
scalar tree_4_3_u08_r14_network.node[31].content_store 	hits[31] 	3558
scalar tree_4_3_u08_r14_network.node[31].content_store 	misses[31] 	8751
scalar tree_4_3_u08_r14_network.node[31].content_store 	decision_yes[31] 	17
scalar tree_4_3_u08_r14_network.node[31].content_store 	decision_no[31] 	8734
scalar tree_4_3_u08_r14_network.node[31].content_store 	decision_ratio[31] 	0.001942635127414
scalar tree_4_3_u08_r14_network.node[32].core_layer 	interests[32] 	12524
scalar tree_4_3_u08_r14_network.node[32].core_layer 	data[32] 	8775
scalar tree_4_3_u08_r14_network.node[32].content_store 	p_hit[32] 	0.29934525710636
scalar tree_4_3_u08_r14_network.node[32].content_store 	hits[32] 	3749
scalar tree_4_3_u08_r14_network.node[32].content_store 	misses[32] 	8775
scalar tree_4_3_u08_r14_network.node[32].content_store 	decision_yes[32] 	35
scalar tree_4_3_u08_r14_network.node[32].content_store 	decision_no[32] 	8740
scalar tree_4_3_u08_r14_network.node[32].content_store 	decision_ratio[32] 	0.003988603988604
scalar tree_4_3_u08_r14_network.node[33].core_layer 	interests[33] 	12523
scalar tree_4_3_u08_r14_network.node[33].core_layer 	data[33] 	8713
scalar tree_4_3_u08_r14_network.node[33].content_store 	p_hit[33] 	0.30424019803561
scalar tree_4_3_u08_r14_network.node[33].content_store 	hits[33] 	3810
scalar tree_4_3_u08_r14_network.node[33].content_store 	misses[33] 	8713
scalar tree_4_3_u08_r14_network.node[33].content_store 	decision_yes[33] 	53
scalar tree_4_3_u08_r14_network.node[33].content_store 	decision_no[33] 	8660
scalar tree_4_3_u08_r14_network.node[33].content_store 	decision_ratio[33] 	0.0060828646849535
scalar tree_4_3_u08_r14_network.node[34].core_layer 	interests[34] 	12272
scalar tree_4_3_u08_r14_network.node[34].core_layer 	data[34] 	8564
scalar tree_4_3_u08_r14_network.node[34].content_store 	p_hit[34] 	0.30215123859192
scalar tree_4_3_u08_r14_network.node[34].content_store 	hits[34] 	3708
scalar tree_4_3_u08_r14_network.node[34].content_store 	misses[34] 	8564
scalar tree_4_3_u08_r14_network.node[34].content_store 	decision_yes[34] 	33
scalar tree_4_3_u08_r14_network.node[34].content_store 	decision_no[34] 	8531
scalar tree_4_3_u08_r14_network.node[34].content_store 	decision_ratio[34] 	0.0038533395609528
scalar tree_4_3_u08_r14_network.node[35].core_layer 	interests[35] 	12057
scalar tree_4_3_u08_r14_network.node[35].core_layer 	data[35] 	8554
scalar tree_4_3_u08_r14_network.node[35].content_store 	p_hit[35] 	0.29053661773244
scalar tree_4_3_u08_r14_network.node[35].content_store 	hits[35] 	3503
scalar tree_4_3_u08_r14_network.node[35].content_store 	misses[35] 	8554
scalar tree_4_3_u08_r14_network.node[35].content_store 	decision_yes[35] 	20
scalar tree_4_3_u08_r14_network.node[35].content_store 	decision_no[35] 	8534
scalar tree_4_3_u08_r14_network.node[35].content_store 	decision_ratio[35] 	0.0023380874444704
scalar tree_4_3_u08_r14_network.node[36].core_layer 	interests[36] 	12322
scalar tree_4_3_u08_r14_network.node[36].core_layer 	data[36] 	8677
scalar tree_4_3_u08_r14_network.node[36].content_store 	p_hit[36] 	0.29581236812206
scalar tree_4_3_u08_r14_network.node[36].content_store 	hits[36] 	3645
scalar tree_4_3_u08_r14_network.node[36].content_store 	misses[36] 	8677
scalar tree_4_3_u08_r14_network.node[36].content_store 	decision_yes[36] 	42
scalar tree_4_3_u08_r14_network.node[36].content_store 	decision_no[36] 	8635
scalar tree_4_3_u08_r14_network.node[36].content_store 	decision_ratio[36] 	0.0048403826207214
scalar tree_4_3_u08_r14_network.node[37].core_layer 	interests[37] 	12436
scalar tree_4_3_u08_r14_network.node[37].core_layer 	data[37] 	8682
scalar tree_4_3_u08_r14_network.node[37].content_store 	p_hit[37] 	0.30186555162432
scalar tree_4_3_u08_r14_network.node[37].content_store 	hits[37] 	3754
scalar tree_4_3_u08_r14_network.node[37].content_store 	misses[37] 	8682
scalar tree_4_3_u08_r14_network.node[37].content_store 	decision_yes[37] 	37
scalar tree_4_3_u08_r14_network.node[37].content_store 	decision_no[37] 	8645
scalar tree_4_3_u08_r14_network.node[37].content_store 	decision_ratio[37] 	0.0042616908546418
scalar tree_4_3_u08_r14_network.node[38].core_layer 	interests[38] 	12188
scalar tree_4_3_u08_r14_network.node[38].core_layer 	data[38] 	8678
scalar tree_4_3_u08_r14_network.node[38].content_store 	p_hit[38] 	0.2879881851001
scalar tree_4_3_u08_r14_network.node[38].content_store 	hits[38] 	3510
scalar tree_4_3_u08_r14_network.node[38].content_store 	misses[38] 	8678
scalar tree_4_3_u08_r14_network.node[38].content_store 	decision_yes[38] 	37
scalar tree_4_3_u08_r14_network.node[38].content_store 	decision_no[38] 	8641
scalar tree_4_3_u08_r14_network.node[38].content_store 	decision_ratio[38] 	0.0042636552200968
scalar tree_4_3_u08_r14_network.node[39].core_layer 	interests[39] 	12292
scalar tree_4_3_u08_r14_network.node[39].core_layer 	data[39] 	8732
scalar tree_4_3_u08_r14_network.node[39].content_store 	p_hit[39] 	0.28961926456232
scalar tree_4_3_u08_r14_network.node[39].content_store 	hits[39] 	3560
scalar tree_4_3_u08_r14_network.node[39].content_store 	misses[39] 	8732
scalar tree_4_3_u08_r14_network.node[39].content_store 	decision_yes[39] 	33
scalar tree_4_3_u08_r14_network.node[39].content_store 	decision_no[39] 	8699
scalar tree_4_3_u08_r14_network.node[39].content_store 	decision_ratio[39] 	0.0037792029317453
scalar tree_4_3_u08_r14_network.client[13] 	hdistance[13] 	2.6195427911199
scalar tree_4_3_u08_r14_network.client[13] 	downloads[13] 	12117
scalar tree_4_3_u08_r14_network.client[13] 	avg_time[13] 	0.004069480217
scalar tree_4_3_u08_r14_network.client[14] 	hdistance[14] 	2.5981556866329
scalar tree_4_3_u08_r14_network.client[14] 	downloads[14] 	12037
scalar tree_4_3_u08_r14_network.client[14] 	avg_time[14] 	0.004038212547
scalar tree_4_3_u08_r14_network.client[15] 	hdistance[15] 	2.6023107836571
scalar tree_4_3_u08_r14_network.client[15] 	downloads[15] 	11944
scalar tree_4_3_u08_r14_network.client[15] 	avg_time[15] 	0.004032984277
scalar tree_4_3_u08_r14_network.client[16] 	hdistance[16] 	2.5505514705882
scalar tree_4_3_u08_r14_network.client[16] 	downloads[16] 	11968
scalar tree_4_3_u08_r14_network.client[16] 	avg_time[16] 	0.003954375323
scalar tree_4_3_u08_r14_network.client[17] 	hdistance[17] 	2.6361906337912
scalar tree_4_3_u08_r14_network.client[17] 	downloads[17] 	12086
scalar tree_4_3_u08_r14_network.client[17] 	avg_time[17] 	0.00410077478
scalar tree_4_3_u08_r14_network.client[18] 	hdistance[18] 	2.5510322047894
scalar tree_4_3_u08_r14_network.client[18] 	downloads[18] 	12110
scalar tree_4_3_u08_r14_network.client[18] 	avg_time[18] 	0.003954745121
scalar tree_4_3_u08_r14_network.client[19] 	hdistance[19] 	2.5741239892183
scalar tree_4_3_u08_r14_network.client[19] 	downloads[19] 	11872
scalar tree_4_3_u08_r14_network.client[19] 	avg_time[19] 	0.003993258498
scalar tree_4_3_u08_r14_network.client[20] 	hdistance[20] 	2.5855900621118
scalar tree_4_3_u08_r14_network.client[20] 	downloads[20] 	12075
scalar tree_4_3_u08_r14_network.client[20] 	avg_time[20] 	0.004015400725
scalar tree_4_3_u08_r14_network.client[21] 	hdistance[21] 	2.6060706037611
scalar tree_4_3_u08_r14_network.client[21] 	downloads[21] 	12124
scalar tree_4_3_u08_r14_network.client[21] 	avg_time[21] 	0.004051600284
scalar tree_4_3_u08_r14_network.client[22] 	hdistance[22] 	2.5971788157783
scalar tree_4_3_u08_r14_network.client[22] 	downloads[22] 	11839
scalar tree_4_3_u08_r14_network.client[22] 	avg_time[22] 	0.004044595404
scalar tree_4_3_u08_r14_network.client[23] 	hdistance[23] 	2.5774058577406
scalar tree_4_3_u08_r14_network.client[23] 	downloads[23] 	11950
scalar tree_4_3_u08_r14_network.client[23] 	avg_time[23] 	0.00399480873
scalar tree_4_3_u08_r14_network.client[24] 	hdistance[24] 	2.5819105521779
scalar tree_4_3_u08_r14_network.client[24] 	downloads[24] 	12007
scalar tree_4_3_u08_r14_network.client[24] 	avg_time[24] 	0.004000278877
scalar tree_4_3_u08_r14_network.client[25] 	hdistance[25] 	2.5950889914305
scalar tree_4_3_u08_r14_network.client[25] 	downloads[25] 	12136
scalar tree_4_3_u08_r14_network.client[25] 	avg_time[25] 	0.004023068864
scalar tree_4_3_u08_r14_network.client[26] 	hdistance[26] 	2.6382103584319
scalar tree_4_3_u08_r14_network.client[26] 	downloads[26] 	11913
scalar tree_4_3_u08_r14_network.client[26] 	avg_time[26] 	0.004086289278
scalar tree_4_3_u08_r14_network.client[27] 	hdistance[27] 	2.589973439575
scalar tree_4_3_u08_r14_network.client[27] 	downloads[27] 	12048
scalar tree_4_3_u08_r14_network.client[27] 	avg_time[27] 	0.004013111185
scalar tree_4_3_u08_r14_network.client[28] 	hdistance[28] 	2.5491252798275
scalar tree_4_3_u08_r14_network.client[28] 	downloads[28] 	12061
scalar tree_4_3_u08_r14_network.client[28] 	avg_time[28] 	0.003946435926
scalar tree_4_3_u08_r14_network.client[29] 	hdistance[29] 	2.5971678467305
scalar tree_4_3_u08_r14_network.client[29] 	downloads[29] 	12005
scalar tree_4_3_u08_r14_network.client[29] 	avg_time[29] 	0.004027318918
scalar tree_4_3_u08_r14_network.client[30] 	hdistance[30] 	2.6126641966992
scalar tree_4_3_u08_r14_network.client[30] 	downloads[30] 	11876
scalar tree_4_3_u08_r14_network.client[30] 	avg_time[30] 	0.004056413306
scalar tree_4_3_u08_r14_network.client[31] 	hdistance[31] 	2.6219139625134
scalar tree_4_3_u08_r14_network.client[31] 	downloads[31] 	12111
scalar tree_4_3_u08_r14_network.client[31] 	avg_time[31] 	0.004075135248
scalar tree_4_3_u08_r14_network.client[32] 	hdistance[32] 	2.5750561984847
scalar tree_4_3_u08_r14_network.client[32] 	downloads[32] 	12011
scalar tree_4_3_u08_r14_network.client[32] 	avg_time[32] 	0.003992503862
scalar tree_4_3_u08_r14_network.client[33] 	hdistance[33] 	2.5551692740667
scalar tree_4_3_u08_r14_network.client[33] 	downloads[33] 	12081
scalar tree_4_3_u08_r14_network.client[33] 	avg_time[33] 	0.003960232898
scalar tree_4_3_u08_r14_network.client[34] 	hdistance[34] 	2.5688050101557
scalar tree_4_3_u08_r14_network.client[34] 	downloads[34] 	11816
scalar tree_4_3_u08_r14_network.client[34] 	avg_time[34] 	0.003977766064
scalar tree_4_3_u08_r14_network.client[35] 	hdistance[35] 	2.6130116836177
scalar tree_4_3_u08_r14_network.client[35] 	downloads[35] 	11897
scalar tree_4_3_u08_r14_network.client[35] 	avg_time[35] 	0.004057658632
scalar tree_4_3_u08_r14_network.client[36] 	hdistance[36] 	2.6130716752295
scalar tree_4_3_u08_r14_network.client[36] 	downloads[36] 	11873
scalar tree_4_3_u08_r14_network.client[36] 	avg_time[36] 	0.004041435597
scalar tree_4_3_u08_r14_network.client[37] 	hdistance[37] 	2.5785785785786
scalar tree_4_3_u08_r14_network.client[37] 	downloads[37] 	11988
scalar tree_4_3_u08_r14_network.client[37] 	avg_time[37] 	0.003991655301
scalar tree_4_3_u08_r14_network.client[38] 	hdistance[38] 	2.6469070019149
scalar tree_4_3_u08_r14_network.client[38] 	downloads[38] 	12011
scalar tree_4_3_u08_r14_network.client[38] 	avg_time[38] 	0.00409058065
scalar tree_4_3_u08_r14_network.client[39] 	hdistance[39] 	2.6473993219218
scalar tree_4_3_u08_r14_network.client[39] 	downloads[39] 	12093
scalar tree_4_3_u08_r14_network.client[39] 	avg_time[39] 	0.004095589456
