version 2
run General-494-20160901-11:09:29-8710
attr a 0.9
attr cd tfc
attr configname General
attr cr lru
attr datetime 20160901-11:09:29
attr experiment General
attr fsize 1
attr inifile hw5115/scenario_Y/omnetp.ini
attr iterationvars "$name=tree_4_3, $un=08, $rep=5, $cd=tfc, $cr=lru, $fsize=1, $a=0.9, $sl=nrr, $ttl=1000, $variance=0.05"
attr iterationvars2 "$name=tree_4_3, $un=08, $rep=5, $cd=tfc, $cr=lru, $fsize=1, $a=0.9, $sl=nrr, $ttl=1000, $variance=0.05, $repetition=0"
attr measurement "$name=tree_4_3, $un=08, $rep=5, $cd=tfc, $cr=lru, $fsize=1, $a=0.9, $sl=nrr, $ttl=1000, $variance=0.05"
attr name tree_4_3
attr network networks.${name}_u${un}_r${rep}_network
attr processid 8710
attr rep 5
attr repetition 0
attr replication #0
attr resultdir results
attr runnumber 494
attr seedset 5
attr sl nrr
attr ttl 1000
attr un 08
attr variance 0.05

scalar . 	a 	0.9
scalar . 	fsize 	1
scalar . 	rep 	5
scalar . 	ttl 	1000
scalar . 	un 	08
scalar . 	variance 	0.05
scalar tree_4_3_u08_r5_network.content_distribution 	repo-0 	0
scalar tree_4_3_u08_r5_network.content_distribution 	client-0 	13
scalar tree_4_3_u08_r5_network.content_distribution 	client-1 	14
scalar tree_4_3_u08_r5_network.content_distribution 	client-2 	15
scalar tree_4_3_u08_r5_network.content_distribution 	client-3 	16
scalar tree_4_3_u08_r5_network.content_distribution 	client-4 	17
scalar tree_4_3_u08_r5_network.content_distribution 	client-5 	18
scalar tree_4_3_u08_r5_network.content_distribution 	client-6 	19
scalar tree_4_3_u08_r5_network.content_distribution 	client-7 	20
scalar tree_4_3_u08_r5_network.content_distribution 	client-8 	21
scalar tree_4_3_u08_r5_network.content_distribution 	client-9 	22
scalar tree_4_3_u08_r5_network.content_distribution 	client-10 	23
scalar tree_4_3_u08_r5_network.content_distribution 	client-11 	24
scalar tree_4_3_u08_r5_network.content_distribution 	client-12 	25
scalar tree_4_3_u08_r5_network.content_distribution 	client-13 	26
scalar tree_4_3_u08_r5_network.content_distribution 	client-14 	27
scalar tree_4_3_u08_r5_network.content_distribution 	client-15 	28
scalar tree_4_3_u08_r5_network.content_distribution 	client-16 	29
scalar tree_4_3_u08_r5_network.content_distribution 	client-17 	30
scalar tree_4_3_u08_r5_network.content_distribution 	client-18 	31
scalar tree_4_3_u08_r5_network.content_distribution 	client-19 	32
scalar tree_4_3_u08_r5_network.content_distribution 	client-20 	33
scalar tree_4_3_u08_r5_network.content_distribution 	client-21 	34
scalar tree_4_3_u08_r5_network.content_distribution 	client-22 	35
scalar tree_4_3_u08_r5_network.content_distribution 	client-23 	36
scalar tree_4_3_u08_r5_network.content_distribution 	client-24 	37
scalar tree_4_3_u08_r5_network.content_distribution 	client-25 	38
scalar tree_4_3_u08_r5_network.content_distribution 	client-26 	39
scalar tree_4_3_u08_r5_network.content_distribution 	repo-0_card 	100000
scalar tree_4_3_u08_r5_network.content_distribution 	repo-0_price 	0
scalar tree_4_3_u08_r5_network.statistics 	stabilization_time 	1946.4
scalar tree_4_3_u08_r5_network.statistics 	p_hit 	0.23178940947256
scalar tree_4_3_u08_r5_network.statistics 	interests 	24404.8
scalar tree_4_3_u08_r5_network.statistics 	data 	16307.825
scalar tree_4_3_u08_r5_network.statistics 	hdistance 	2.6005527078994
scalar tree_4_3_u08_r5_network.statistics 	avg_time 	0.004028317748
scalar tree_4_3_u08_r5_network.statistics 	downloads 	323864
scalar tree_4_3_u08_r5_network.statistics 	total_cost 	0
scalar tree_4_3_u08_r5_network.statistics 	total_replicas 	100000
scalar tree_4_3_u08_r5_network.statistics 	inner_hit 	0.41364893906084
scalar tree_4_3_u08_r5_network.node[0].core_layer 	interests[0] 	193234
scalar tree_4_3_u08_r5_network.node[0].core_layer 	repo_load[0] 	189898
scalar tree_4_3_u08_r5_network.node[0].core_layer 	data[0] 	0
scalar tree_4_3_u08_r5_network.node[0].core_layer 	repo_int[0] 	189898
scalar tree_4_3_u08_r5_network.node[0].content_store 	p_hit[0] 	0.017264042559798
scalar tree_4_3_u08_r5_network.node[0].content_store 	hits[0] 	3336
scalar tree_4_3_u08_r5_network.node[0].content_store 	misses[0] 	189898
scalar tree_4_3_u08_r5_network.node[0].content_store 	decision_yes[0] 	929
scalar tree_4_3_u08_r5_network.node[0].content_store 	decision_no[0] 	188969
scalar tree_4_3_u08_r5_network.node[0].content_store 	decision_ratio[0] 	0.0048920999694573
scalar tree_4_3_u08_r5_network.node[1].core_layer 	interests[1] 	95958
scalar tree_4_3_u08_r5_network.node[1].core_layer 	data[1] 	93655
scalar tree_4_3_u08_r5_network.node[1].content_store 	p_hit[1] 	0.023958398465996
scalar tree_4_3_u08_r5_network.node[1].content_store 	hits[1] 	2299
scalar tree_4_3_u08_r5_network.node[1].content_store 	misses[1] 	93659
scalar tree_4_3_u08_r5_network.node[1].content_store 	decision_yes[1] 	70
scalar tree_4_3_u08_r5_network.node[1].content_store 	decision_no[1] 	93585
scalar tree_4_3_u08_r5_network.node[1].content_store 	decision_ratio[1] 	0.00074742405637713
scalar tree_4_3_u08_r5_network.node[2].core_layer 	interests[2] 	78533
scalar tree_4_3_u08_r5_network.node[2].core_layer 	data[2] 	75270
scalar tree_4_3_u08_r5_network.node[2].content_store 	p_hit[2] 	0.041536678848382
scalar tree_4_3_u08_r5_network.node[2].content_store 	hits[2] 	3262
scalar tree_4_3_u08_r5_network.node[2].content_store 	misses[2] 	75271
scalar tree_4_3_u08_r5_network.node[2].content_store 	decision_yes[2] 	122
scalar tree_4_3_u08_r5_network.node[2].content_store 	decision_no[2] 	75148
scalar tree_4_3_u08_r5_network.node[2].content_store 	decision_ratio[2] 	0.0016208316726451
scalar tree_4_3_u08_r5_network.node[3].core_layer 	interests[3] 	34219
scalar tree_4_3_u08_r5_network.node[3].core_layer 	data[3] 	31227
scalar tree_4_3_u08_r5_network.node[3].content_store 	p_hit[3] 	0.087436804114673
scalar tree_4_3_u08_r5_network.node[3].content_store 	hits[3] 	2992
scalar tree_4_3_u08_r5_network.node[3].content_store 	misses[3] 	31227
scalar tree_4_3_u08_r5_network.node[3].content_store 	decision_yes[3] 	98
scalar tree_4_3_u08_r5_network.node[3].content_store 	decision_no[3] 	31129
scalar tree_4_3_u08_r5_network.node[3].content_store 	decision_ratio[3] 	0.0031383097960099
scalar tree_4_3_u08_r5_network.node[4].core_layer 	interests[4] 	40351
scalar tree_4_3_u08_r5_network.node[4].core_layer 	data[4] 	38126
scalar tree_4_3_u08_r5_network.node[4].content_store 	p_hit[4] 	0.055141136526976
scalar tree_4_3_u08_r5_network.node[4].content_store 	hits[4] 	2225
scalar tree_4_3_u08_r5_network.node[4].content_store 	misses[4] 	38126
scalar tree_4_3_u08_r5_network.node[4].content_store 	decision_yes[4] 	65
scalar tree_4_3_u08_r5_network.node[4].content_store 	decision_no[4] 	38061
scalar tree_4_3_u08_r5_network.node[4].content_store 	decision_ratio[4] 	0.0017048733147983
scalar tree_4_3_u08_r5_network.node[5].core_layer 	interests[5] 	19357
scalar tree_4_3_u08_r5_network.node[5].core_layer 	data[5] 	16746
scalar tree_4_3_u08_r5_network.node[5].content_store 	p_hit[5] 	0.13488660432918
scalar tree_4_3_u08_r5_network.node[5].content_store 	hits[5] 	2611
scalar tree_4_3_u08_r5_network.node[5].content_store 	misses[5] 	16746
scalar tree_4_3_u08_r5_network.node[5].content_store 	decision_yes[5] 	94
scalar tree_4_3_u08_r5_network.node[5].content_store 	decision_no[5] 	16652
scalar tree_4_3_u08_r5_network.node[5].content_store 	decision_ratio[5] 	0.0056132807834707
scalar tree_4_3_u08_r5_network.node[6].core_layer 	interests[6] 	20344
scalar tree_4_3_u08_r5_network.node[6].core_layer 	data[6] 	17621
scalar tree_4_3_u08_r5_network.node[6].content_store 	p_hit[6] 	0.13379866299646
scalar tree_4_3_u08_r5_network.node[6].content_store 	hits[6] 	2722
scalar tree_4_3_u08_r5_network.node[6].content_store 	misses[6] 	17622
scalar tree_4_3_u08_r5_network.node[6].content_store 	decision_yes[6] 	146
scalar tree_4_3_u08_r5_network.node[6].content_store 	decision_no[6] 	17475
scalar tree_4_3_u08_r5_network.node[6].content_store 	decision_ratio[6] 	0.0082855683559389
scalar tree_4_3_u08_r5_network.node[7].core_layer 	interests[7] 	34054
scalar tree_4_3_u08_r5_network.node[7].core_layer 	data[7] 	31544
scalar tree_4_3_u08_r5_network.node[7].content_store 	p_hit[7] 	0.07370646620074
scalar tree_4_3_u08_r5_network.node[7].content_store 	hits[7] 	2510
scalar tree_4_3_u08_r5_network.node[7].content_store 	misses[7] 	31544
scalar tree_4_3_u08_r5_network.node[7].content_store 	decision_yes[7] 	72
scalar tree_4_3_u08_r5_network.node[7].content_store 	decision_no[7] 	31472
scalar tree_4_3_u08_r5_network.node[7].content_store 	decision_ratio[7] 	0.0022825259954349
scalar tree_4_3_u08_r5_network.node[8].core_layer 	interests[8] 	34782
scalar tree_4_3_u08_r5_network.node[8].core_layer 	data[8] 	32350
scalar tree_4_3_u08_r5_network.node[8].content_store 	p_hit[8] 	0.069921223621413
scalar tree_4_3_u08_r5_network.node[8].content_store 	hits[8] 	2432
scalar tree_4_3_u08_r5_network.node[8].content_store 	misses[8] 	32350
scalar tree_4_3_u08_r5_network.node[8].content_store 	decision_yes[8] 	87
scalar tree_4_3_u08_r5_network.node[8].content_store 	decision_no[8] 	32263
scalar tree_4_3_u08_r5_network.node[8].content_store 	decision_ratio[8] 	0.0026893353941267
scalar tree_4_3_u08_r5_network.node[9].core_layer 	interests[9] 	11978
scalar tree_4_3_u08_r5_network.node[9].core_layer 	data[9] 	9434
scalar tree_4_3_u08_r5_network.node[9].content_store 	p_hit[9] 	0.21230589413926
scalar tree_4_3_u08_r5_network.node[9].content_store 	hits[9] 	2543
scalar tree_4_3_u08_r5_network.node[9].content_store 	misses[9] 	9435
scalar tree_4_3_u08_r5_network.node[9].content_store 	decision_yes[9] 	123
scalar tree_4_3_u08_r5_network.node[9].content_store 	decision_no[9] 	9311
scalar tree_4_3_u08_r5_network.node[9].content_store 	decision_ratio[9] 	0.013037947848209
scalar tree_4_3_u08_r5_network.node[10].core_layer 	interests[10] 	26825
scalar tree_4_3_u08_r5_network.node[10].core_layer 	data[10] 	24529
scalar tree_4_3_u08_r5_network.node[10].content_store 	p_hit[10] 	0.085591798695247
scalar tree_4_3_u08_r5_network.node[10].content_store 	hits[10] 	2296
scalar tree_4_3_u08_r5_network.node[10].content_store 	misses[10] 	24529
scalar tree_4_3_u08_r5_network.node[10].content_store 	decision_yes[10] 	91
scalar tree_4_3_u08_r5_network.node[10].content_store 	decision_no[10] 	24438
scalar tree_4_3_u08_r5_network.node[10].content_store 	decision_ratio[10] 	0.0037098944106975
scalar tree_4_3_u08_r5_network.node[11].core_layer 	interests[11] 	42252
scalar tree_4_3_u08_r5_network.node[11].core_layer 	data[11] 	39284
scalar tree_4_3_u08_r5_network.node[11].content_store 	p_hit[11] 	0.070221527975007
scalar tree_4_3_u08_r5_network.node[11].content_store 	hits[11] 	2967
scalar tree_4_3_u08_r5_network.node[11].content_store 	misses[11] 	39285
scalar tree_4_3_u08_r5_network.node[11].content_store 	decision_yes[11] 	57
scalar tree_4_3_u08_r5_network.node[11].content_store 	decision_no[11] 	39227
scalar tree_4_3_u08_r5_network.node[11].content_store 	decision_ratio[11] 	0.0014509724060686
scalar tree_4_3_u08_r5_network.node[12].core_layer 	interests[12] 	10940
scalar tree_4_3_u08_r5_network.node[12].core_layer 	data[12] 	8568
scalar tree_4_3_u08_r5_network.node[12].content_store 	p_hit[12] 	0.21681901279707
scalar tree_4_3_u08_r5_network.node[12].content_store 	hits[12] 	2372
scalar tree_4_3_u08_r5_network.node[12].content_store 	misses[12] 	8568
scalar tree_4_3_u08_r5_network.node[12].content_store 	decision_yes[12] 	71
scalar tree_4_3_u08_r5_network.node[12].content_store 	decision_no[12] 	8497
scalar tree_4_3_u08_r5_network.node[12].content_store 	decision_ratio[12] 	0.0082866479925303
scalar tree_4_3_u08_r5_network.node[13].core_layer 	interests[13] 	12039
scalar tree_4_3_u08_r5_network.node[13].core_layer 	data[13] 	8496
scalar tree_4_3_u08_r5_network.node[13].content_store 	p_hit[13] 	0.29429354597558
scalar tree_4_3_u08_r5_network.node[13].content_store 	hits[13] 	3543
scalar tree_4_3_u08_r5_network.node[13].content_store 	misses[13] 	8496
scalar tree_4_3_u08_r5_network.node[13].content_store 	decision_yes[13] 	30
scalar tree_4_3_u08_r5_network.node[13].content_store 	decision_no[13] 	8466
scalar tree_4_3_u08_r5_network.node[13].content_store 	decision_ratio[13] 	0.0035310734463277
scalar tree_4_3_u08_r5_network.node[14].core_layer 	interests[14] 	12402
scalar tree_4_3_u08_r5_network.node[14].core_layer 	data[14] 	8561
scalar tree_4_3_u08_r5_network.node[14].content_store 	p_hit[14] 	0.3097081115949
scalar tree_4_3_u08_r5_network.node[14].content_store 	hits[14] 	3841
scalar tree_4_3_u08_r5_network.node[14].content_store 	misses[14] 	8561
scalar tree_4_3_u08_r5_network.node[14].content_store 	decision_yes[14] 	45
scalar tree_4_3_u08_r5_network.node[14].content_store 	decision_no[14] 	8516
scalar tree_4_3_u08_r5_network.node[14].content_store 	decision_ratio[14] 	0.0052563952809251
scalar tree_4_3_u08_r5_network.node[15].core_layer 	interests[15] 	12369
scalar tree_4_3_u08_r5_network.node[15].core_layer 	data[15] 	8572
scalar tree_4_3_u08_r5_network.node[15].content_store 	p_hit[15] 	0.3069771202199
scalar tree_4_3_u08_r5_network.node[15].content_store 	hits[15] 	3797
scalar tree_4_3_u08_r5_network.node[15].content_store 	misses[15] 	8572
scalar tree_4_3_u08_r5_network.node[15].content_store 	decision_yes[15] 	36
scalar tree_4_3_u08_r5_network.node[15].content_store 	decision_no[15] 	8536
scalar tree_4_3_u08_r5_network.node[15].content_store 	decision_ratio[15] 	0.0041997200186654
scalar tree_4_3_u08_r5_network.node[16].core_layer 	interests[16] 	12377
scalar tree_4_3_u08_r5_network.node[16].core_layer 	data[16] 	8757
scalar tree_4_3_u08_r5_network.node[16].content_store 	p_hit[16] 	0.29247798335623
scalar tree_4_3_u08_r5_network.node[16].content_store 	hits[16] 	3620
scalar tree_4_3_u08_r5_network.node[16].content_store 	misses[16] 	8757
scalar tree_4_3_u08_r5_network.node[16].content_store 	decision_yes[16] 	37
scalar tree_4_3_u08_r5_network.node[16].content_store 	decision_no[16] 	8720
scalar tree_4_3_u08_r5_network.node[16].content_store 	decision_ratio[16] 	0.004225191275551
scalar tree_4_3_u08_r5_network.node[17].core_layer 	interests[17] 	12193
scalar tree_4_3_u08_r5_network.node[17].core_layer 	data[17] 	8589
scalar tree_4_3_u08_r5_network.node[17].content_store 	p_hit[17] 	0.29557943082096
scalar tree_4_3_u08_r5_network.node[17].content_store 	hits[17] 	3604
scalar tree_4_3_u08_r5_network.node[17].content_store 	misses[17] 	8589
scalar tree_4_3_u08_r5_network.node[17].content_store 	decision_yes[17] 	19
scalar tree_4_3_u08_r5_network.node[17].content_store 	decision_no[17] 	8570
scalar tree_4_3_u08_r5_network.node[17].content_store 	decision_ratio[17] 	0.0022121317964839
scalar tree_4_3_u08_r5_network.node[18].core_layer 	interests[18] 	12625
scalar tree_4_3_u08_r5_network.node[18].core_layer 	data[18] 	8727
scalar tree_4_3_u08_r5_network.node[18].content_store 	p_hit[18] 	0.30875247524752
scalar tree_4_3_u08_r5_network.node[18].content_store 	hits[18] 	3898
scalar tree_4_3_u08_r5_network.node[18].content_store 	misses[18] 	8727
scalar tree_4_3_u08_r5_network.node[18].content_store 	decision_yes[18] 	44
scalar tree_4_3_u08_r5_network.node[18].content_store 	decision_no[18] 	8683
scalar tree_4_3_u08_r5_network.node[18].content_store 	decision_ratio[18] 	0.0050418242236737
scalar tree_4_3_u08_r5_network.node[19].core_layer 	interests[19] 	12552
scalar tree_4_3_u08_r5_network.node[19].core_layer 	data[19] 	8733
scalar tree_4_3_u08_r5_network.node[19].content_store 	p_hit[19] 	0.30425430210325
scalar tree_4_3_u08_r5_network.node[19].content_store 	hits[19] 	3819
scalar tree_4_3_u08_r5_network.node[19].content_store 	misses[19] 	8733
scalar tree_4_3_u08_r5_network.node[19].content_store 	decision_yes[19] 	43
scalar tree_4_3_u08_r5_network.node[19].content_store 	decision_no[19] 	8690
scalar tree_4_3_u08_r5_network.node[19].content_store 	decision_ratio[19] 	0.004923852055422
scalar tree_4_3_u08_r5_network.node[20].core_layer 	interests[20] 	12320
scalar tree_4_3_u08_r5_network.node[20].core_layer 	data[20] 	8620
scalar tree_4_3_u08_r5_network.node[20].content_store 	p_hit[20] 	0.30024350649351
scalar tree_4_3_u08_r5_network.node[20].content_store 	hits[20] 	3699
scalar tree_4_3_u08_r5_network.node[20].content_store 	misses[20] 	8621
scalar tree_4_3_u08_r5_network.node[20].content_store 	decision_yes[20] 	17
scalar tree_4_3_u08_r5_network.node[20].content_store 	decision_no[20] 	8603
scalar tree_4_3_u08_r5_network.node[20].content_store 	decision_ratio[20] 	0.0019721577726218
scalar tree_4_3_u08_r5_network.node[21].core_layer 	interests[21] 	12203
scalar tree_4_3_u08_r5_network.node[21].core_layer 	data[21] 	8620
scalar tree_4_3_u08_r5_network.node[21].content_store 	p_hit[21] 	0.29361632385479
scalar tree_4_3_u08_r5_network.node[21].content_store 	hits[21] 	3583
scalar tree_4_3_u08_r5_network.node[21].content_store 	misses[21] 	8620
scalar tree_4_3_u08_r5_network.node[21].content_store 	decision_yes[21] 	21
scalar tree_4_3_u08_r5_network.node[21].content_store 	decision_no[21] 	8599
scalar tree_4_3_u08_r5_network.node[21].content_store 	decision_ratio[21] 	0.0024361948955916
scalar tree_4_3_u08_r5_network.node[22].core_layer 	interests[22] 	12346
scalar tree_4_3_u08_r5_network.node[22].core_layer 	data[22] 	8648
scalar tree_4_3_u08_r5_network.node[22].content_store 	p_hit[22] 	0.29953021221448
scalar tree_4_3_u08_r5_network.node[22].content_store 	hits[22] 	3698
scalar tree_4_3_u08_r5_network.node[22].content_store 	misses[22] 	8648
scalar tree_4_3_u08_r5_network.node[22].content_store 	decision_yes[22] 	21
scalar tree_4_3_u08_r5_network.node[22].content_store 	decision_no[22] 	8627
scalar tree_4_3_u08_r5_network.node[22].content_store 	decision_ratio[22] 	0.0024283071230342
scalar tree_4_3_u08_r5_network.node[23].core_layer 	interests[23] 	12556
scalar tree_4_3_u08_r5_network.node[23].core_layer 	data[23] 	8728
scalar tree_4_3_u08_r5_network.node[23].content_store 	p_hit[23] 	0.30487416374642
scalar tree_4_3_u08_r5_network.node[23].content_store 	hits[23] 	3828
scalar tree_4_3_u08_r5_network.node[23].content_store 	misses[23] 	8728
scalar tree_4_3_u08_r5_network.node[23].content_store 	decision_yes[23] 	33
scalar tree_4_3_u08_r5_network.node[23].content_store 	decision_no[23] 	8695
scalar tree_4_3_u08_r5_network.node[23].content_store 	decision_ratio[23] 	0.0037809349220898
scalar tree_4_3_u08_r5_network.node[24].core_layer 	interests[24] 	12608
scalar tree_4_3_u08_r5_network.node[24].core_layer 	data[24] 	8723
scalar tree_4_3_u08_r5_network.node[24].content_store 	p_hit[24] 	0.30805837563452
scalar tree_4_3_u08_r5_network.node[24].content_store 	hits[24] 	3884
scalar tree_4_3_u08_r5_network.node[24].content_store 	misses[24] 	8724
scalar tree_4_3_u08_r5_network.node[24].content_store 	decision_yes[24] 	47
scalar tree_4_3_u08_r5_network.node[24].content_store 	decision_no[24] 	8676
scalar tree_4_3_u08_r5_network.node[24].content_store 	decision_ratio[24] 	0.0053880545683824
scalar tree_4_3_u08_r5_network.node[25].core_layer 	interests[25] 	12275
scalar tree_4_3_u08_r5_network.node[25].core_layer 	data[25] 	8661
scalar tree_4_3_u08_r5_network.node[25].content_store 	p_hit[25] 	0.29441955193483
scalar tree_4_3_u08_r5_network.node[25].content_store 	hits[25] 	3614
scalar tree_4_3_u08_r5_network.node[25].content_store 	misses[25] 	8661
scalar tree_4_3_u08_r5_network.node[25].content_store 	decision_yes[25] 	24
scalar tree_4_3_u08_r5_network.node[25].content_store 	decision_no[25] 	8637
scalar tree_4_3_u08_r5_network.node[25].content_store 	decision_ratio[25] 	0.00277104260478
scalar tree_4_3_u08_r5_network.node[26].core_layer 	interests[26] 	12130
scalar tree_4_3_u08_r5_network.node[26].core_layer 	data[26] 	8515
scalar tree_4_3_u08_r5_network.node[26].content_store 	p_hit[26] 	0.29802143446002
scalar tree_4_3_u08_r5_network.node[26].content_store 	hits[26] 	3615
scalar tree_4_3_u08_r5_network.node[26].content_store 	misses[26] 	8515
scalar tree_4_3_u08_r5_network.node[26].content_store 	decision_yes[26] 	26
scalar tree_4_3_u08_r5_network.node[26].content_store 	decision_no[26] 	8489
scalar tree_4_3_u08_r5_network.node[26].content_store 	decision_ratio[26] 	0.0030534351145038
scalar tree_4_3_u08_r5_network.node[27].core_layer 	interests[27] 	12109
scalar tree_4_3_u08_r5_network.node[27].core_layer 	data[27] 	8664
scalar tree_4_3_u08_r5_network.node[27].content_store 	p_hit[27] 	0.28449913287637
scalar tree_4_3_u08_r5_network.node[27].content_store 	hits[27] 	3445
scalar tree_4_3_u08_r5_network.node[27].content_store 	misses[27] 	8664
scalar tree_4_3_u08_r5_network.node[27].content_store 	decision_yes[27] 	26
scalar tree_4_3_u08_r5_network.node[27].content_store 	decision_no[27] 	8638
scalar tree_4_3_u08_r5_network.node[27].content_store 	decision_ratio[27] 	0.0030009233610342
scalar tree_4_3_u08_r5_network.node[28].core_layer 	interests[28] 	12512
scalar tree_4_3_u08_r5_network.node[28].core_layer 	data[28] 	8781
scalar tree_4_3_u08_r5_network.node[28].content_store 	p_hit[28] 	0.29819373401535
scalar tree_4_3_u08_r5_network.node[28].content_store 	hits[28] 	3731
scalar tree_4_3_u08_r5_network.node[28].content_store 	misses[28] 	8781
scalar tree_4_3_u08_r5_network.node[28].content_store 	decision_yes[28] 	41
scalar tree_4_3_u08_r5_network.node[28].content_store 	decision_no[28] 	8740
scalar tree_4_3_u08_r5_network.node[28].content_store 	decision_ratio[28] 	0.0046691720760733
scalar tree_4_3_u08_r5_network.node[29].core_layer 	interests[29] 	12559
scalar tree_4_3_u08_r5_network.node[29].core_layer 	data[29] 	8663
scalar tree_4_3_u08_r5_network.node[29].content_store 	p_hit[29] 	0.31021578151127
scalar tree_4_3_u08_r5_network.node[29].content_store 	hits[29] 	3896
scalar tree_4_3_u08_r5_network.node[29].content_store 	misses[29] 	8663
scalar tree_4_3_u08_r5_network.node[29].content_store 	decision_yes[29] 	44
scalar tree_4_3_u08_r5_network.node[29].content_store 	decision_no[29] 	8619
scalar tree_4_3_u08_r5_network.node[29].content_store 	decision_ratio[29] 	0.005079071915041
scalar tree_4_3_u08_r5_network.node[30].core_layer 	interests[30] 	12332
scalar tree_4_3_u08_r5_network.node[30].core_layer 	data[30] 	8770
scalar tree_4_3_u08_r5_network.node[30].content_store 	p_hit[30] 	0.28867985728187
scalar tree_4_3_u08_r5_network.node[30].content_store 	hits[30] 	3560
scalar tree_4_3_u08_r5_network.node[30].content_store 	misses[30] 	8772
scalar tree_4_3_u08_r5_network.node[30].content_store 	decision_yes[30] 	24
scalar tree_4_3_u08_r5_network.node[30].content_store 	decision_no[30] 	8746
scalar tree_4_3_u08_r5_network.node[30].content_store 	decision_ratio[30] 	0.0027366020524515
scalar tree_4_3_u08_r5_network.node[31].core_layer 	interests[31] 	12209
scalar tree_4_3_u08_r5_network.node[31].core_layer 	data[31] 	8559
scalar tree_4_3_u08_r5_network.node[31].content_store 	p_hit[31] 	0.298877876976
scalar tree_4_3_u08_r5_network.node[31].content_store 	hits[31] 	3649
scalar tree_4_3_u08_r5_network.node[31].content_store 	misses[31] 	8560
scalar tree_4_3_u08_r5_network.node[31].content_store 	decision_yes[31] 	18
scalar tree_4_3_u08_r5_network.node[31].content_store 	decision_no[31] 	8541
scalar tree_4_3_u08_r5_network.node[31].content_store 	decision_ratio[31] 	0.0021030494216614
scalar tree_4_3_u08_r5_network.node[32].core_layer 	interests[32] 	12597
scalar tree_4_3_u08_r5_network.node[32].core_layer 	data[32] 	8883
scalar tree_4_3_u08_r5_network.node[32].content_store 	p_hit[32] 	0.29483210288164
scalar tree_4_3_u08_r5_network.node[32].content_store 	hits[32] 	3714
scalar tree_4_3_u08_r5_network.node[32].content_store 	misses[32] 	8883
scalar tree_4_3_u08_r5_network.node[32].content_store 	decision_yes[32] 	36
scalar tree_4_3_u08_r5_network.node[32].content_store 	decision_no[32] 	8847
scalar tree_4_3_u08_r5_network.node[32].content_store 	decision_ratio[32] 	0.0040526849037487
scalar tree_4_3_u08_r5_network.node[33].core_layer 	interests[33] 	12333
scalar tree_4_3_u08_r5_network.node[33].core_layer 	data[33] 	8660
scalar tree_4_3_u08_r5_network.node[33].content_store 	p_hit[33] 	0.29781885996919
scalar tree_4_3_u08_r5_network.node[33].content_store 	hits[33] 	3673
scalar tree_4_3_u08_r5_network.node[33].content_store 	misses[33] 	8660
scalar tree_4_3_u08_r5_network.node[33].content_store 	decision_yes[33] 	40
scalar tree_4_3_u08_r5_network.node[33].content_store 	decision_no[33] 	8620
scalar tree_4_3_u08_r5_network.node[33].content_store 	decision_ratio[33] 	0.0046189376443418
scalar tree_4_3_u08_r5_network.node[34].core_layer 	interests[34] 	12471
scalar tree_4_3_u08_r5_network.node[34].core_layer 	data[34] 	8808
scalar tree_4_3_u08_r5_network.node[34].content_store 	p_hit[34] 	0.29372143372624
scalar tree_4_3_u08_r5_network.node[34].content_store 	hits[34] 	3663
scalar tree_4_3_u08_r5_network.node[34].content_store 	misses[34] 	8808
scalar tree_4_3_u08_r5_network.node[34].content_store 	decision_yes[34] 	47
scalar tree_4_3_u08_r5_network.node[34].content_store 	decision_no[34] 	8761
scalar tree_4_3_u08_r5_network.node[34].content_store 	decision_ratio[34] 	0.0053360581289737
scalar tree_4_3_u08_r5_network.node[35].core_layer 	interests[35] 	12267
scalar tree_4_3_u08_r5_network.node[35].core_layer 	data[35] 	8723
scalar tree_4_3_u08_r5_network.node[35].content_store 	p_hit[35] 	0.28882367326975
scalar tree_4_3_u08_r5_network.node[35].content_store 	hits[35] 	3543
scalar tree_4_3_u08_r5_network.node[35].content_store 	misses[35] 	8724
scalar tree_4_3_u08_r5_network.node[35].content_store 	decision_yes[35] 	17
scalar tree_4_3_u08_r5_network.node[35].content_store 	decision_no[35] 	8706
scalar tree_4_3_u08_r5_network.node[35].content_store 	decision_ratio[35] 	0.0019488708013298
scalar tree_4_3_u08_r5_network.node[36].core_layer 	interests[36] 	12317
scalar tree_4_3_u08_r5_network.node[36].core_layer 	data[36] 	8661
scalar tree_4_3_u08_r5_network.node[36].content_store 	p_hit[36] 	0.29682552569619
scalar tree_4_3_u08_r5_network.node[36].content_store 	hits[36] 	3656
scalar tree_4_3_u08_r5_network.node[36].content_store 	misses[36] 	8661
scalar tree_4_3_u08_r5_network.node[36].content_store 	decision_yes[36] 	37
scalar tree_4_3_u08_r5_network.node[36].content_store 	decision_no[36] 	8624
scalar tree_4_3_u08_r5_network.node[36].content_store 	decision_ratio[36] 	0.0042720240157026
scalar tree_4_3_u08_r5_network.node[37].core_layer 	interests[37] 	12253
scalar tree_4_3_u08_r5_network.node[37].core_layer 	data[37] 	8601
scalar tree_4_3_u08_r5_network.node[37].content_store 	p_hit[37] 	0.29796784460948
scalar tree_4_3_u08_r5_network.node[37].content_store 	hits[37] 	3651
scalar tree_4_3_u08_r5_network.node[37].content_store 	misses[37] 	8602
scalar tree_4_3_u08_r5_network.node[37].content_store 	decision_yes[37] 	42
scalar tree_4_3_u08_r5_network.node[37].content_store 	decision_no[37] 	8559
scalar tree_4_3_u08_r5_network.node[37].content_store 	decision_ratio[37] 	0.00488315312173
scalar tree_4_3_u08_r5_network.node[38].core_layer 	interests[38] 	12322
scalar tree_4_3_u08_r5_network.node[38].core_layer 	data[38] 	8621
scalar tree_4_3_u08_r5_network.node[38].content_store 	p_hit[38] 	0.30035708488882
scalar tree_4_3_u08_r5_network.node[38].content_store 	hits[38] 	3701
scalar tree_4_3_u08_r5_network.node[38].content_store 	misses[38] 	8621
scalar tree_4_3_u08_r5_network.node[38].content_store 	decision_yes[38] 	37
scalar tree_4_3_u08_r5_network.node[38].content_store 	decision_no[38] 	8584
scalar tree_4_3_u08_r5_network.node[38].content_store 	decision_ratio[38] 	0.0042918454935622
scalar tree_4_3_u08_r5_network.node[39].core_layer 	interests[39] 	12089
scalar tree_4_3_u08_r5_network.node[39].core_layer 	data[39] 	8615
scalar tree_4_3_u08_r5_network.node[39].content_store 	p_hit[39] 	0.28736868227314
scalar tree_4_3_u08_r5_network.node[39].content_store 	hits[39] 	3474
scalar tree_4_3_u08_r5_network.node[39].content_store 	misses[39] 	8615
scalar tree_4_3_u08_r5_network.node[39].content_store 	decision_yes[39] 	31
scalar tree_4_3_u08_r5_network.node[39].content_store 	decision_no[39] 	8584
scalar tree_4_3_u08_r5_network.node[39].content_store 	decision_ratio[39] 	0.0035983749274521
scalar tree_4_3_u08_r5_network.client[13] 	hdistance[13] 	2.6293139819425
scalar tree_4_3_u08_r5_network.client[13] 	downloads[13] 	11851
scalar tree_4_3_u08_r5_network.client[13] 	avg_time[13] 	0.004073577321
scalar tree_4_3_u08_r5_network.client[14] 	hdistance[14] 	2.5308310991957
scalar tree_4_3_u08_r5_network.client[14] 	downloads[14] 	11936
scalar tree_4_3_u08_r5_network.client[14] 	avg_time[14] 	0.00393163236
scalar tree_4_3_u08_r5_network.client[15] 	hdistance[15] 	2.5904052796345
scalar tree_4_3_u08_r5_network.client[15] 	downloads[15] 	11819
scalar tree_4_3_u08_r5_network.client[15] 	avg_time[15] 	0.004007950349
scalar tree_4_3_u08_r5_network.client[16] 	hdistance[16] 	2.6047603084143
scalar tree_4_3_u08_r5_network.client[16] 	downloads[16] 	11932
scalar tree_4_3_u08_r5_network.client[16] 	avg_time[16] 	0.004041565912
scalar tree_4_3_u08_r5_network.client[17] 	hdistance[17] 	2.5980677937869
scalar tree_4_3_u08_r5_network.client[17] 	downloads[17] 	12007
scalar tree_4_3_u08_r5_network.client[17] 	avg_time[17] 	0.004042472232
scalar tree_4_3_u08_r5_network.client[18] 	hdistance[18] 	2.5619395549651
scalar tree_4_3_u08_r5_network.client[18] 	downloads[18] 	12044
scalar tree_4_3_u08_r5_network.client[18] 	avg_time[18] 	0.003969276288
scalar tree_4_3_u08_r5_network.client[19] 	hdistance[19] 	2.5660455486543
scalar tree_4_3_u08_r5_network.client[19] 	downloads[19] 	12075
scalar tree_4_3_u08_r5_network.client[19] 	avg_time[19] 	0.003976477333
scalar tree_4_3_u08_r5_network.client[20] 	hdistance[20] 	2.5896712055795
scalar tree_4_3_u08_r5_network.client[20] 	downloads[20] 	12044
scalar tree_4_3_u08_r5_network.client[20] 	avg_time[20] 	0.004025403787
scalar tree_4_3_u08_r5_network.client[21] 	hdistance[21] 	2.6090112640801
scalar tree_4_3_u08_r5_network.client[21] 	downloads[21] 	11985
scalar tree_4_3_u08_r5_network.client[21] 	avg_time[21] 	0.00405056016
scalar tree_4_3_u08_r5_network.client[22] 	hdistance[22] 	2.5869941481909
scalar tree_4_3_u08_r5_network.client[22] 	downloads[22] 	12133
scalar tree_4_3_u08_r5_network.client[22] 	avg_time[22] 	0.004029173634
scalar tree_4_3_u08_r5_network.client[23] 	hdistance[23] 	2.5923153692615
scalar tree_4_3_u08_r5_network.client[23] 	downloads[23] 	12024
scalar tree_4_3_u08_r5_network.client[23] 	avg_time[23] 	0.004013508906
scalar tree_4_3_u08_r5_network.client[24] 	hdistance[24] 	2.5364347468094
scalar tree_4_3_u08_r5_network.client[24] 	downloads[24] 	12145
scalar tree_4_3_u08_r5_network.client[24] 	avg_time[24] 	0.003930671096
scalar tree_4_3_u08_r5_network.client[25] 	hdistance[25] 	2.6375788774494
scalar tree_4_3_u08_r5_network.client[25] 	downloads[25] 	12044
scalar tree_4_3_u08_r5_network.client[25] 	avg_time[25] 	0.004090332428
scalar tree_4_3_u08_r5_network.client[26] 	hdistance[26] 	2.6191914108371
scalar tree_4_3_u08_r5_network.client[26] 	downloads[26] 	11922
scalar tree_4_3_u08_r5_network.client[26] 	avg_time[26] 	0.0040578732
scalar tree_4_3_u08_r5_network.client[27] 	hdistance[27] 	2.6679004037685
scalar tree_4_3_u08_r5_network.client[27] 	downloads[27] 	11888
scalar tree_4_3_u08_r5_network.client[27] 	avg_time[27] 	0.004137951242
scalar tree_4_3_u08_r5_network.client[28] 	hdistance[28] 	2.5770826418852
scalar tree_4_3_u08_r5_network.client[28] 	downloads[28] 	12052
scalar tree_4_3_u08_r5_network.client[28] 	avg_time[28] 	0.003997715277
scalar tree_4_3_u08_r5_network.client[29] 	hdistance[29] 	2.5900354071826
scalar tree_4_3_u08_r5_network.client[29] 	downloads[29] 	11862
scalar tree_4_3_u08_r5_network.client[29] 	avg_time[29] 	0.004015171558
scalar tree_4_3_u08_r5_network.client[30] 	hdistance[30] 	2.6363039014374
scalar tree_4_3_u08_r5_network.client[30] 	downloads[30] 	12175
scalar tree_4_3_u08_r5_network.client[30] 	avg_time[30] 	0.004083282397
scalar tree_4_3_u08_r5_network.client[31] 	hdistance[31] 	2.6075591075591
scalar tree_4_3_u08_r5_network.client[31] 	downloads[31] 	12012
scalar tree_4_3_u08_r5_network.client[31] 	avg_time[31] 	0.004025666738
scalar tree_4_3_u08_r5_network.client[32] 	hdistance[32] 	2.6055340525406
scalar tree_4_3_u08_r5_network.client[32] 	downloads[32] 	12143
scalar tree_4_3_u08_r5_network.client[32] 	avg_time[32] 	0.004033925945
scalar tree_4_3_u08_r5_network.client[33] 	hdistance[33] 	2.6130569255203
scalar tree_4_3_u08_r5_network.client[33] 	downloads[33] 	11963
scalar tree_4_3_u08_r5_network.client[33] 	avg_time[33] 	0.004021730691
scalar tree_4_3_u08_r5_network.client[34] 	hdistance[34] 	2.5914710030698
scalar tree_4_3_u08_r5_network.client[34] 	downloads[34] 	12053
scalar tree_4_3_u08_r5_network.client[34] 	avg_time[34] 	0.004016092566
scalar tree_4_3_u08_r5_network.client[35] 	hdistance[35] 	2.6119328981076
scalar tree_4_3_u08_r5_network.client[35] 	downloads[35] 	12101
scalar tree_4_3_u08_r5_network.client[35] 	avg_time[35] 	0.004058835103
scalar tree_4_3_u08_r5_network.client[36] 	hdistance[36] 	2.5957231857215
scalar tree_4_3_u08_r5_network.client[36] 	downloads[36] 	11878
scalar tree_4_3_u08_r5_network.client[36] 	avg_time[36] 	0.00401296216
scalar tree_4_3_u08_r5_network.client[37] 	hdistance[37] 	2.621648878057
scalar tree_4_3_u08_r5_network.client[37] 	downloads[37] 	11899
scalar tree_4_3_u08_r5_network.client[37] 	avg_time[37] 	0.004028402779
scalar tree_4_3_u08_r5_network.client[38] 	hdistance[38] 	2.5869163587504
scalar tree_4_3_u08_r5_network.client[38] 	downloads[38] 	11908
scalar tree_4_3_u08_r5_network.client[38] 	avg_time[38] 	0.003993782697
scalar tree_4_3_u08_r5_network.client[39] 	hdistance[39] 	2.6571977608823
scalar tree_4_3_u08_r5_network.client[39] 	downloads[39] 	11969
scalar tree_4_3_u08_r5_network.client[39] 	avg_time[39] 	0.004098585045
