version 2
run General-524-20160901-12:14:16-8710
attr a 0.9
attr cd tfc
attr configname General
attr cr lru
attr datetime 20160901-12:14:16
attr experiment General
attr fsize 1
attr inifile hw5115/scenario_Y/omnetp.ini
attr iterationvars "$name=tree_4_3, $un=08, $rep=15, $cd=tfc, $cr=lru, $fsize=1, $a=0.9, $sl=nrr, $ttl=1000, $variance=0.05"
attr iterationvars2 "$name=tree_4_3, $un=08, $rep=15, $cd=tfc, $cr=lru, $fsize=1, $a=0.9, $sl=nrr, $ttl=1000, $variance=0.05, $repetition=0"
attr measurement "$name=tree_4_3, $un=08, $rep=15, $cd=tfc, $cr=lru, $fsize=1, $a=0.9, $sl=nrr, $ttl=1000, $variance=0.05"
attr name tree_4_3
attr network networks.${name}_u${un}_r${rep}_network
attr processid 8710
attr rep 15
attr repetition 0
attr replication #0
attr resultdir results
attr runnumber 524
attr seedset 15
attr sl nrr
attr ttl 1000
attr un 08
attr variance 0.05

scalar . 	a 	0.9
scalar . 	fsize 	1
scalar . 	rep 	15
scalar . 	ttl 	1000
scalar . 	un 	08
scalar . 	variance 	0.05
scalar tree_4_3_u08_r15_network.content_distribution 	repo-0 	0
scalar tree_4_3_u08_r15_network.content_distribution 	client-0 	13
scalar tree_4_3_u08_r15_network.content_distribution 	client-1 	14
scalar tree_4_3_u08_r15_network.content_distribution 	client-2 	15
scalar tree_4_3_u08_r15_network.content_distribution 	client-3 	16
scalar tree_4_3_u08_r15_network.content_distribution 	client-4 	17
scalar tree_4_3_u08_r15_network.content_distribution 	client-5 	18
scalar tree_4_3_u08_r15_network.content_distribution 	client-6 	19
scalar tree_4_3_u08_r15_network.content_distribution 	client-7 	20
scalar tree_4_3_u08_r15_network.content_distribution 	client-8 	21
scalar tree_4_3_u08_r15_network.content_distribution 	client-9 	22
scalar tree_4_3_u08_r15_network.content_distribution 	client-10 	23
scalar tree_4_3_u08_r15_network.content_distribution 	client-11 	24
scalar tree_4_3_u08_r15_network.content_distribution 	client-12 	25
scalar tree_4_3_u08_r15_network.content_distribution 	client-13 	26
scalar tree_4_3_u08_r15_network.content_distribution 	client-14 	27
scalar tree_4_3_u08_r15_network.content_distribution 	client-15 	28
scalar tree_4_3_u08_r15_network.content_distribution 	client-16 	29
scalar tree_4_3_u08_r15_network.content_distribution 	client-17 	30
scalar tree_4_3_u08_r15_network.content_distribution 	client-18 	31
scalar tree_4_3_u08_r15_network.content_distribution 	client-19 	32
scalar tree_4_3_u08_r15_network.content_distribution 	client-20 	33
scalar tree_4_3_u08_r15_network.content_distribution 	client-21 	34
scalar tree_4_3_u08_r15_network.content_distribution 	client-22 	35
scalar tree_4_3_u08_r15_network.content_distribution 	client-23 	36
scalar tree_4_3_u08_r15_network.content_distribution 	client-24 	37
scalar tree_4_3_u08_r15_network.content_distribution 	client-25 	38
scalar tree_4_3_u08_r15_network.content_distribution 	client-26 	39
scalar tree_4_3_u08_r15_network.content_distribution 	repo-0_card 	100000
scalar tree_4_3_u08_r15_network.content_distribution 	repo-0_price 	0
scalar tree_4_3_u08_r15_network.statistics 	stabilization_time 	1866.6
scalar tree_4_3_u08_r15_network.statistics 	p_hit 	0.23045012391131
scalar tree_4_3_u08_r15_network.statistics 	interests 	24440.775
scalar tree_4_3_u08_r15_network.statistics 	data 	16324.15
scalar tree_4_3_u08_r15_network.statistics 	hdistance 	2.6001501903563
scalar tree_4_3_u08_r15_network.statistics 	avg_time 	0.004022384801
scalar tree_4_3_u08_r15_network.statistics 	downloads 	324661
scalar tree_4_3_u08_r15_network.statistics 	total_cost 	0
scalar tree_4_3_u08_r15_network.statistics 	total_replicas 	100000
scalar tree_4_3_u08_r15_network.statistics 	inner_hit 	0.41106261608262
scalar tree_4_3_u08_r15_network.node[0].core_layer 	interests[0] 	194410
scalar tree_4_3_u08_r15_network.node[0].core_layer 	repo_load[0] 	191205
scalar tree_4_3_u08_r15_network.node[0].core_layer 	data[0] 	0
scalar tree_4_3_u08_r15_network.node[0].core_layer 	repo_int[0] 	191205
scalar tree_4_3_u08_r15_network.node[0].content_store 	p_hit[0] 	0.016485777480582
scalar tree_4_3_u08_r15_network.node[0].content_store 	hits[0] 	3205
scalar tree_4_3_u08_r15_network.node[0].content_store 	misses[0] 	191205
scalar tree_4_3_u08_r15_network.node[0].content_store 	decision_yes[0] 	1020
scalar tree_4_3_u08_r15_network.node[0].content_store 	decision_no[0] 	190185
scalar tree_4_3_u08_r15_network.node[0].content_store 	decision_ratio[0] 	0.0053345885306347
scalar tree_4_3_u08_r15_network.node[1].core_layer 	interests[1] 	103960
scalar tree_4_3_u08_r15_network.node[1].core_layer 	data[1] 	101389
scalar tree_4_3_u08_r15_network.node[1].content_store 	p_hit[1] 	0.024711427472105
scalar tree_4_3_u08_r15_network.node[1].content_store 	hits[1] 	2569
scalar tree_4_3_u08_r15_network.node[1].content_store 	misses[1] 	101391
scalar tree_4_3_u08_r15_network.node[1].content_store 	decision_yes[1] 	82
scalar tree_4_3_u08_r15_network.node[1].content_store 	decision_no[1] 	101307
scalar tree_4_3_u08_r15_network.node[1].content_store 	decision_ratio[1] 	0.00080876623696851
scalar tree_4_3_u08_r15_network.node[2].core_layer 	interests[2] 	63926
scalar tree_4_3_u08_r15_network.node[2].core_layer 	data[2] 	60483
scalar tree_4_3_u08_r15_network.node[2].content_store 	p_hit[2] 	0.053827863467134
scalar tree_4_3_u08_r15_network.node[2].content_store 	hits[2] 	3441
scalar tree_4_3_u08_r15_network.node[2].content_store 	misses[2] 	60485
scalar tree_4_3_u08_r15_network.node[2].content_store 	decision_yes[2] 	92
scalar tree_4_3_u08_r15_network.node[2].content_store 	decision_no[2] 	60391
scalar tree_4_3_u08_r15_network.node[2].content_store 	decision_ratio[2] 	0.0015210885703421
scalar tree_4_3_u08_r15_network.node[3].core_layer 	interests[3] 	40926
scalar tree_4_3_u08_r15_network.node[3].core_layer 	data[3] 	38517
scalar tree_4_3_u08_r15_network.node[3].content_store 	p_hit[3] 	0.058886771245663
scalar tree_4_3_u08_r15_network.node[3].content_store 	hits[3] 	2410
scalar tree_4_3_u08_r15_network.node[3].content_store 	misses[3] 	38516
scalar tree_4_3_u08_r15_network.node[3].content_store 	decision_yes[3] 	78
scalar tree_4_3_u08_r15_network.node[3].content_store 	decision_no[3] 	38439
scalar tree_4_3_u08_r15_network.node[3].content_store 	decision_ratio[3] 	0.0020250798348781
scalar tree_4_3_u08_r15_network.node[4].core_layer 	interests[4] 	32733
scalar tree_4_3_u08_r15_network.node[4].core_layer 	data[4] 	30803
scalar tree_4_3_u08_r15_network.node[4].content_store 	p_hit[4] 	0.058961903889042
scalar tree_4_3_u08_r15_network.node[4].content_store 	hits[4] 	1930
scalar tree_4_3_u08_r15_network.node[4].content_store 	misses[4] 	30803
scalar tree_4_3_u08_r15_network.node[4].content_store 	decision_yes[4] 	49
scalar tree_4_3_u08_r15_network.node[4].content_store 	decision_no[4] 	30754
scalar tree_4_3_u08_r15_network.node[4].content_store 	decision_ratio[4] 	0.0015907541473233
scalar tree_4_3_u08_r15_network.node[5].core_layer 	interests[5] 	35336
scalar tree_4_3_u08_r15_network.node[5].core_layer 	data[5] 	32408
scalar tree_4_3_u08_r15_network.node[5].content_store 	p_hit[5] 	0.082833371066335
scalar tree_4_3_u08_r15_network.node[5].content_store 	hits[5] 	2927
scalar tree_4_3_u08_r15_network.node[5].content_store 	misses[5] 	32409
scalar tree_4_3_u08_r15_network.node[5].content_store 	decision_yes[5] 	158
scalar tree_4_3_u08_r15_network.node[5].content_store 	decision_no[5] 	32250
scalar tree_4_3_u08_r15_network.node[5].content_store 	decision_ratio[5] 	0.0048753394223648
scalar tree_4_3_u08_r15_network.node[6].core_layer 	interests[6] 	12594
scalar tree_4_3_u08_r15_network.node[6].core_layer 	data[6] 	9725
scalar tree_4_3_u08_r15_network.node[6].content_store 	p_hit[6] 	0.22764808639034
scalar tree_4_3_u08_r15_network.node[6].content_store 	hits[6] 	2867
scalar tree_4_3_u08_r15_network.node[6].content_store 	misses[6] 	9727
scalar tree_4_3_u08_r15_network.node[6].content_store 	decision_yes[6] 	191
scalar tree_4_3_u08_r15_network.node[6].content_store 	decision_no[6] 	9534
scalar tree_4_3_u08_r15_network.node[6].content_store 	decision_ratio[6] 	0.019640102827763
scalar tree_4_3_u08_r15_network.node[7].core_layer 	interests[7] 	42524
scalar tree_4_3_u08_r15_network.node[7].core_layer 	data[7] 	39768
scalar tree_4_3_u08_r15_network.node[7].content_store 	p_hit[7] 	0.06476342771141
scalar tree_4_3_u08_r15_network.node[7].content_store 	hits[7] 	2754
scalar tree_4_3_u08_r15_network.node[7].content_store 	misses[7] 	39770
scalar tree_4_3_u08_r15_network.node[7].content_store 	decision_yes[7] 	114
scalar tree_4_3_u08_r15_network.node[7].content_store 	decision_no[7] 	39654
scalar tree_4_3_u08_r15_network.node[7].content_store 	decision_ratio[7] 	0.0028666264333132
scalar tree_4_3_u08_r15_network.node[8].core_layer 	interests[8] 	26497
scalar tree_4_3_u08_r15_network.node[8].core_layer 	data[8] 	24207
scalar tree_4_3_u08_r15_network.node[8].content_store 	p_hit[8] 	0.086424878288108
scalar tree_4_3_u08_r15_network.node[8].content_store 	hits[8] 	2290
scalar tree_4_3_u08_r15_network.node[8].content_store 	misses[8] 	24207
scalar tree_4_3_u08_r15_network.node[8].content_store 	decision_yes[8] 	55
scalar tree_4_3_u08_r15_network.node[8].content_store 	decision_no[8] 	24152
scalar tree_4_3_u08_r15_network.node[8].content_store 	decision_ratio[8] 	0.0022720700623787
scalar tree_4_3_u08_r15_network.node[9].core_layer 	interests[9] 	10774
scalar tree_4_3_u08_r15_network.node[9].core_layer 	data[9] 	8365
scalar tree_4_3_u08_r15_network.node[9].content_store 	p_hit[9] 	0.22359383701504
scalar tree_4_3_u08_r15_network.node[9].content_store 	hits[9] 	2409
scalar tree_4_3_u08_r15_network.node[9].content_store 	misses[9] 	8365
scalar tree_4_3_u08_r15_network.node[9].content_store 	decision_yes[9] 	55
scalar tree_4_3_u08_r15_network.node[9].content_store 	decision_no[9] 	8310
scalar tree_4_3_u08_r15_network.node[9].content_store 	decision_ratio[9] 	0.0065750149432158
scalar tree_4_3_u08_r15_network.node[10].core_layer 	interests[10] 	26766
scalar tree_4_3_u08_r15_network.node[10].core_layer 	data[10] 	24515
scalar tree_4_3_u08_r15_network.node[10].content_store 	p_hit[10] 	0.084099230366883
scalar tree_4_3_u08_r15_network.node[10].content_store 	hits[10] 	2251
scalar tree_4_3_u08_r15_network.node[10].content_store 	misses[10] 	24515
scalar tree_4_3_u08_r15_network.node[10].content_store 	decision_yes[10] 	100
scalar tree_4_3_u08_r15_network.node[10].content_store 	decision_no[10] 	24415
scalar tree_4_3_u08_r15_network.node[10].content_store 	decision_ratio[10] 	0.0040791352233327
scalar tree_4_3_u08_r15_network.node[11].core_layer 	interests[11] 	34189
scalar tree_4_3_u08_r15_network.node[11].core_layer 	data[11] 	31525
scalar tree_4_3_u08_r15_network.node[11].content_store 	p_hit[11] 	0.077802802070842
scalar tree_4_3_u08_r15_network.node[11].content_store 	hits[11] 	2660
scalar tree_4_3_u08_r15_network.node[11].content_store 	misses[11] 	31529
scalar tree_4_3_u08_r15_network.node[11].content_store 	decision_yes[11] 	56
scalar tree_4_3_u08_r15_network.node[11].content_store 	decision_no[11] 	31469
scalar tree_4_3_u08_r15_network.node[11].content_store 	decision_ratio[11] 	0.001776367961935
scalar tree_4_3_u08_r15_network.node[12].core_layer 	interests[12] 	19087
scalar tree_4_3_u08_r15_network.node[12].core_layer 	data[12] 	16741
scalar tree_4_3_u08_r15_network.node[12].content_store 	p_hit[12] 	0.12291088175198
scalar tree_4_3_u08_r15_network.node[12].content_store 	hits[12] 	2346
scalar tree_4_3_u08_r15_network.node[12].content_store 	misses[12] 	16741
scalar tree_4_3_u08_r15_network.node[12].content_store 	decision_yes[12] 	51
scalar tree_4_3_u08_r15_network.node[12].content_store 	decision_no[12] 	16690
scalar tree_4_3_u08_r15_network.node[12].content_store 	decision_ratio[12] 	0.0030464129980288
scalar tree_4_3_u08_r15_network.node[13].core_layer 	interests[13] 	12343
scalar tree_4_3_u08_r15_network.node[13].core_layer 	data[13] 	8694
scalar tree_4_3_u08_r15_network.node[13].content_store 	p_hit[13] 	0.29563315239407
scalar tree_4_3_u08_r15_network.node[13].content_store 	hits[13] 	3649
scalar tree_4_3_u08_r15_network.node[13].content_store 	misses[13] 	8694
scalar tree_4_3_u08_r15_network.node[13].content_store 	decision_yes[13] 	21
scalar tree_4_3_u08_r15_network.node[13].content_store 	decision_no[13] 	8673
scalar tree_4_3_u08_r15_network.node[13].content_store 	decision_ratio[13] 	0.0024154589371981
scalar tree_4_3_u08_r15_network.node[14].core_layer 	interests[14] 	12629
scalar tree_4_3_u08_r15_network.node[14].core_layer 	data[14] 	8778
scalar tree_4_3_u08_r15_network.node[14].content_store 	p_hit[14] 	0.30501227333914
scalar tree_4_3_u08_r15_network.node[14].content_store 	hits[14] 	3852
scalar tree_4_3_u08_r15_network.node[14].content_store 	misses[14] 	8777
scalar tree_4_3_u08_r15_network.node[14].content_store 	decision_yes[14] 	41
scalar tree_4_3_u08_r15_network.node[14].content_store 	decision_no[14] 	8737
scalar tree_4_3_u08_r15_network.node[14].content_store 	decision_ratio[14] 	0.0046707678286626
scalar tree_4_3_u08_r15_network.node[15].core_layer 	interests[15] 	12311
scalar tree_4_3_u08_r15_network.node[15].core_layer 	data[15] 	8534
scalar tree_4_3_u08_r15_network.node[15].content_store 	p_hit[15] 	0.30671756965316
scalar tree_4_3_u08_r15_network.node[15].content_store 	hits[15] 	3776
scalar tree_4_3_u08_r15_network.node[15].content_store 	misses[15] 	8535
scalar tree_4_3_u08_r15_network.node[15].content_store 	decision_yes[15] 	45
scalar tree_4_3_u08_r15_network.node[15].content_store 	decision_no[15] 	8489
scalar tree_4_3_u08_r15_network.node[15].content_store 	decision_ratio[15] 	0.0052730255448793
scalar tree_4_3_u08_r15_network.node[16].core_layer 	interests[16] 	12314
scalar tree_4_3_u08_r15_network.node[16].core_layer 	data[16] 	8638
scalar tree_4_3_u08_r15_network.node[16].content_store 	p_hit[16] 	0.29852200747117
scalar tree_4_3_u08_r15_network.node[16].content_store 	hits[16] 	3676
scalar tree_4_3_u08_r15_network.node[16].content_store 	misses[16] 	8638
scalar tree_4_3_u08_r15_network.node[16].content_store 	decision_yes[16] 	29
scalar tree_4_3_u08_r15_network.node[16].content_store 	decision_no[16] 	8609
scalar tree_4_3_u08_r15_network.node[16].content_store 	decision_ratio[16] 	0.0033572586246816
scalar tree_4_3_u08_r15_network.node[17].core_layer 	interests[17] 	12282
scalar tree_4_3_u08_r15_network.node[17].core_layer 	data[17] 	8612
scalar tree_4_3_u08_r15_network.node[17].content_store 	p_hit[17] 	0.29872984855887
scalar tree_4_3_u08_r15_network.node[17].content_store 	hits[17] 	3669
scalar tree_4_3_u08_r15_network.node[17].content_store 	misses[17] 	8613
scalar tree_4_3_u08_r15_network.node[17].content_store 	decision_yes[17] 	19
scalar tree_4_3_u08_r15_network.node[17].content_store 	decision_no[17] 	8593
scalar tree_4_3_u08_r15_network.node[17].content_store 	decision_ratio[17] 	0.0022062238736647
scalar tree_4_3_u08_r15_network.node[18].core_layer 	interests[18] 	12610
scalar tree_4_3_u08_r15_network.node[18].core_layer 	data[18] 	8790
scalar tree_4_3_u08_r15_network.node[18].content_store 	p_hit[18] 	0.30293417922284
scalar tree_4_3_u08_r15_network.node[18].content_store 	hits[18] 	3820
scalar tree_4_3_u08_r15_network.node[18].content_store 	misses[18] 	8790
scalar tree_4_3_u08_r15_network.node[18].content_store 	decision_yes[18] 	41
scalar tree_4_3_u08_r15_network.node[18].content_store 	decision_no[18] 	8749
scalar tree_4_3_u08_r15_network.node[18].content_store 	decision_ratio[18] 	0.0046643913538111
scalar tree_4_3_u08_r15_network.node[19].core_layer 	interests[19] 	12578
scalar tree_4_3_u08_r15_network.node[19].core_layer 	data[19] 	8809
scalar tree_4_3_u08_r15_network.node[19].content_store 	p_hit[19] 	0.29965018285896
scalar tree_4_3_u08_r15_network.node[19].content_store 	hits[19] 	3769
scalar tree_4_3_u08_r15_network.node[19].content_store 	misses[19] 	8809
scalar tree_4_3_u08_r15_network.node[19].content_store 	decision_yes[19] 	44
scalar tree_4_3_u08_r15_network.node[19].content_store 	decision_no[19] 	8765
scalar tree_4_3_u08_r15_network.node[19].content_store 	decision_ratio[19] 	0.0049948915881485
scalar tree_4_3_u08_r15_network.node[20].core_layer 	interests[20] 	12594
scalar tree_4_3_u08_r15_network.node[20].core_layer 	data[20] 	8643
scalar tree_4_3_u08_r15_network.node[20].content_store 	p_hit[20] 	0.31372081943783
scalar tree_4_3_u08_r15_network.node[20].content_store 	hits[20] 	3951
scalar tree_4_3_u08_r15_network.node[20].content_store 	misses[20] 	8643
scalar tree_4_3_u08_r15_network.node[20].content_store 	decision_yes[20] 	43
scalar tree_4_3_u08_r15_network.node[20].content_store 	decision_no[20] 	8600
scalar tree_4_3_u08_r15_network.node[20].content_store 	decision_ratio[20] 	0.0049751243781095
scalar tree_4_3_u08_r15_network.node[21].core_layer 	interests[21] 	12166
scalar tree_4_3_u08_r15_network.node[21].core_layer 	data[21] 	8647
scalar tree_4_3_u08_r15_network.node[21].content_store 	p_hit[21] 	0.28924872595759
scalar tree_4_3_u08_r15_network.node[21].content_store 	hits[21] 	3519
scalar tree_4_3_u08_r15_network.node[21].content_store 	misses[21] 	8647
scalar tree_4_3_u08_r15_network.node[21].content_store 	decision_yes[21] 	27
scalar tree_4_3_u08_r15_network.node[21].content_store 	decision_no[21] 	8620
scalar tree_4_3_u08_r15_network.node[21].content_store 	decision_ratio[21] 	0.0031224702208859
scalar tree_4_3_u08_r15_network.node[22].core_layer 	interests[22] 	12330
scalar tree_4_3_u08_r15_network.node[22].core_layer 	data[22] 	8783
scalar tree_4_3_u08_r15_network.node[22].content_store 	p_hit[22] 	0.28767234387672
scalar tree_4_3_u08_r15_network.node[22].content_store 	hits[22] 	3547
scalar tree_4_3_u08_r15_network.node[22].content_store 	misses[22] 	8783
scalar tree_4_3_u08_r15_network.node[22].content_store 	decision_yes[22] 	27
scalar tree_4_3_u08_r15_network.node[22].content_store 	decision_no[22] 	8756
scalar tree_4_3_u08_r15_network.node[22].content_store 	decision_ratio[22] 	0.0030741204599795
scalar tree_4_3_u08_r15_network.node[23].core_layer 	interests[23] 	12424
scalar tree_4_3_u08_r15_network.node[23].core_layer 	data[23] 	8653
scalar tree_4_3_u08_r15_network.node[23].content_store 	p_hit[23] 	0.30352543464263
scalar tree_4_3_u08_r15_network.node[23].content_store 	hits[23] 	3771
scalar tree_4_3_u08_r15_network.node[23].content_store 	misses[23] 	8653
scalar tree_4_3_u08_r15_network.node[23].content_store 	decision_yes[23] 	42
scalar tree_4_3_u08_r15_network.node[23].content_store 	decision_no[23] 	8611
scalar tree_4_3_u08_r15_network.node[23].content_store 	decision_ratio[23] 	0.0048538079278863
scalar tree_4_3_u08_r15_network.node[24].core_layer 	interests[24] 	12512
scalar tree_4_3_u08_r15_network.node[24].core_layer 	data[24] 	8768
scalar tree_4_3_u08_r15_network.node[24].content_store 	p_hit[24] 	0.29923273657289
scalar tree_4_3_u08_r15_network.node[24].content_store 	hits[24] 	3744
scalar tree_4_3_u08_r15_network.node[24].content_store 	misses[24] 	8768
scalar tree_4_3_u08_r15_network.node[24].content_store 	decision_yes[24] 	44
scalar tree_4_3_u08_r15_network.node[24].content_store 	decision_no[24] 	8724
scalar tree_4_3_u08_r15_network.node[24].content_store 	decision_ratio[24] 	0.0050182481751825
scalar tree_4_3_u08_r15_network.node[25].core_layer 	interests[25] 	12369
scalar tree_4_3_u08_r15_network.node[25].core_layer 	data[25] 	8773
scalar tree_4_3_u08_r15_network.node[25].content_store 	p_hit[25] 	0.2908076643221
scalar tree_4_3_u08_r15_network.node[25].content_store 	hits[25] 	3597
scalar tree_4_3_u08_r15_network.node[25].content_store 	misses[25] 	8772
scalar tree_4_3_u08_r15_network.node[25].content_store 	decision_yes[25] 	28
scalar tree_4_3_u08_r15_network.node[25].content_store 	decision_no[25] 	8745
scalar tree_4_3_u08_r15_network.node[25].content_store 	decision_ratio[25] 	0.0031916106235039
scalar tree_4_3_u08_r15_network.node[26].core_layer 	interests[26] 	12255
scalar tree_4_3_u08_r15_network.node[26].core_layer 	data[26] 	8643
scalar tree_4_3_u08_r15_network.node[26].content_store 	p_hit[26] 	0.29473684210526
scalar tree_4_3_u08_r15_network.node[26].content_store 	hits[26] 	3612
scalar tree_4_3_u08_r15_network.node[26].content_store 	misses[26] 	8643
scalar tree_4_3_u08_r15_network.node[26].content_store 	decision_yes[26] 	21
scalar tree_4_3_u08_r15_network.node[26].content_store 	decision_no[26] 	8622
scalar tree_4_3_u08_r15_network.node[26].content_store 	decision_ratio[26] 	0.0024297119055883
scalar tree_4_3_u08_r15_network.node[27].core_layer 	interests[27] 	12309
scalar tree_4_3_u08_r15_network.node[27].core_layer 	data[27] 	8677
scalar tree_4_3_u08_r15_network.node[27].content_store 	p_hit[27] 	0.29506864895605
scalar tree_4_3_u08_r15_network.node[27].content_store 	hits[27] 	3632
scalar tree_4_3_u08_r15_network.node[27].content_store 	misses[27] 	8677
scalar tree_4_3_u08_r15_network.node[27].content_store 	decision_yes[27] 	43
scalar tree_4_3_u08_r15_network.node[27].content_store 	decision_no[27] 	8634
scalar tree_4_3_u08_r15_network.node[27].content_store 	decision_ratio[27] 	0.0049556298259767
scalar tree_4_3_u08_r15_network.node[28].core_layer 	interests[28] 	12454
scalar tree_4_3_u08_r15_network.node[28].core_layer 	data[28] 	8671
scalar tree_4_3_u08_r15_network.node[28].content_store 	p_hit[28] 	0.30375782881002
scalar tree_4_3_u08_r15_network.node[28].content_store 	hits[28] 	3783
scalar tree_4_3_u08_r15_network.node[28].content_store 	misses[28] 	8671
scalar tree_4_3_u08_r15_network.node[28].content_store 	decision_yes[28] 	41
scalar tree_4_3_u08_r15_network.node[28].content_store 	decision_no[28] 	8630
scalar tree_4_3_u08_r15_network.node[28].content_store 	decision_ratio[28] 	0.0047284050282551
scalar tree_4_3_u08_r15_network.node[29].core_layer 	interests[29] 	12273
scalar tree_4_3_u08_r15_network.node[29].core_layer 	data[29] 	8712
scalar tree_4_3_u08_r15_network.node[29].content_store 	p_hit[29] 	0.2901491077976
scalar tree_4_3_u08_r15_network.node[29].content_store 	hits[29] 	3561
scalar tree_4_3_u08_r15_network.node[29].content_store 	misses[29] 	8712
scalar tree_4_3_u08_r15_network.node[29].content_store 	decision_yes[29] 	48
scalar tree_4_3_u08_r15_network.node[29].content_store 	decision_no[29] 	8664
scalar tree_4_3_u08_r15_network.node[29].content_store 	decision_ratio[29] 	0.0055096418732782
scalar tree_4_3_u08_r15_network.node[30].core_layer 	interests[30] 	11906
scalar tree_4_3_u08_r15_network.node[30].core_layer 	data[30] 	8405
scalar tree_4_3_u08_r15_network.node[30].content_store 	p_hit[30] 	0.29405341844448
scalar tree_4_3_u08_r15_network.node[30].content_store 	hits[30] 	3501
scalar tree_4_3_u08_r15_network.node[30].content_store 	misses[30] 	8405
scalar tree_4_3_u08_r15_network.node[30].content_store 	decision_yes[30] 	29
scalar tree_4_3_u08_r15_network.node[30].content_store 	decision_no[30] 	8376
scalar tree_4_3_u08_r15_network.node[30].content_store 	decision_ratio[30] 	0.0034503271861987
scalar tree_4_3_u08_r15_network.node[31].core_layer 	interests[31] 	12181
scalar tree_4_3_u08_r15_network.node[31].core_layer 	data[31] 	8543
scalar tree_4_3_u08_r15_network.node[31].content_store 	p_hit[31] 	0.29866185042279
scalar tree_4_3_u08_r15_network.node[31].content_store 	hits[31] 	3638
scalar tree_4_3_u08_r15_network.node[31].content_store 	misses[31] 	8543
scalar tree_4_3_u08_r15_network.node[31].content_store 	decision_yes[31] 	27
scalar tree_4_3_u08_r15_network.node[31].content_store 	decision_no[31] 	8516
scalar tree_4_3_u08_r15_network.node[31].content_store 	decision_ratio[31] 	0.0031604822661828
scalar tree_4_3_u08_r15_network.node[32].core_layer 	interests[32] 	12469
scalar tree_4_3_u08_r15_network.node[32].core_layer 	data[32] 	8752
scalar tree_4_3_u08_r15_network.node[32].content_store 	p_hit[32] 	0.29801908733659
scalar tree_4_3_u08_r15_network.node[32].content_store 	hits[32] 	3716
scalar tree_4_3_u08_r15_network.node[32].content_store 	misses[32] 	8753
scalar tree_4_3_u08_r15_network.node[32].content_store 	decision_yes[32] 	45
scalar tree_4_3_u08_r15_network.node[32].content_store 	decision_no[32] 	8707
scalar tree_4_3_u08_r15_network.node[32].content_store 	decision_ratio[32] 	0.0051416819012797
scalar tree_4_3_u08_r15_network.node[33].core_layer 	interests[33] 	12446
scalar tree_4_3_u08_r15_network.node[33].core_layer 	data[33] 	8664
scalar tree_4_3_u08_r15_network.node[33].content_store 	p_hit[33] 	0.30387273019444
scalar tree_4_3_u08_r15_network.node[33].content_store 	hits[33] 	3782
scalar tree_4_3_u08_r15_network.node[33].content_store 	misses[33] 	8664
scalar tree_4_3_u08_r15_network.node[33].content_store 	decision_yes[33] 	59
scalar tree_4_3_u08_r15_network.node[33].content_store 	decision_no[33] 	8605
scalar tree_4_3_u08_r15_network.node[33].content_store 	decision_ratio[33] 	0.0068097876269621
scalar tree_4_3_u08_r15_network.node[34].core_layer 	interests[34] 	12432
scalar tree_4_3_u08_r15_network.node[34].core_layer 	data[34] 	8725
scalar tree_4_3_u08_r15_network.node[34].content_store 	p_hit[34] 	0.29810167310167
scalar tree_4_3_u08_r15_network.node[34].content_store 	hits[34] 	3706
scalar tree_4_3_u08_r15_network.node[34].content_store 	misses[34] 	8726
scalar tree_4_3_u08_r15_network.node[34].content_store 	decision_yes[34] 	43
scalar tree_4_3_u08_r15_network.node[34].content_store 	decision_no[34] 	8682
scalar tree_4_3_u08_r15_network.node[34].content_store 	decision_ratio[34] 	0.0049283667621777
scalar tree_4_3_u08_r15_network.node[35].core_layer 	interests[35] 	12399
scalar tree_4_3_u08_r15_network.node[35].core_layer 	data[35] 	8947
scalar tree_4_3_u08_r15_network.node[35].content_store 	p_hit[35] 	0.27840954915719
scalar tree_4_3_u08_r15_network.node[35].content_store 	hits[35] 	3452
scalar tree_4_3_u08_r15_network.node[35].content_store 	misses[35] 	8947
scalar tree_4_3_u08_r15_network.node[35].content_store 	decision_yes[35] 	24
scalar tree_4_3_u08_r15_network.node[35].content_store 	decision_no[35] 	8923
scalar tree_4_3_u08_r15_network.node[35].content_store 	decision_ratio[35] 	0.0026824633955516
scalar tree_4_3_u08_r15_network.node[36].core_layer 	interests[36] 	12498
scalar tree_4_3_u08_r15_network.node[36].core_layer 	data[36] 	8640
scalar tree_4_3_u08_r15_network.node[36].content_store 	p_hit[36] 	0.3086093775004
scalar tree_4_3_u08_r15_network.node[36].content_store 	hits[36] 	3857
scalar tree_4_3_u08_r15_network.node[36].content_store 	misses[36] 	8641
scalar tree_4_3_u08_r15_network.node[36].content_store 	decision_yes[36] 	37
scalar tree_4_3_u08_r15_network.node[36].content_store 	decision_no[36] 	8603
scalar tree_4_3_u08_r15_network.node[36].content_store 	decision_ratio[36] 	0.0042824074074074
scalar tree_4_3_u08_r15_network.node[37].core_layer 	interests[37] 	12396
scalar tree_4_3_u08_r15_network.node[37].core_layer 	data[37] 	8665
scalar tree_4_3_u08_r15_network.node[37].content_store 	p_hit[37] 	0.30098418844789
scalar tree_4_3_u08_r15_network.node[37].content_store 	hits[37] 	3731
scalar tree_4_3_u08_r15_network.node[37].content_store 	misses[37] 	8665
scalar tree_4_3_u08_r15_network.node[37].content_store 	decision_yes[37] 	57
scalar tree_4_3_u08_r15_network.node[37].content_store 	decision_no[37] 	8608
scalar tree_4_3_u08_r15_network.node[37].content_store 	decision_ratio[37] 	0.0065781881130987
scalar tree_4_3_u08_r15_network.node[38].core_layer 	interests[38] 	12166
scalar tree_4_3_u08_r15_network.node[38].core_layer 	data[38] 	8652
scalar tree_4_3_u08_r15_network.node[38].content_store 	p_hit[38] 	0.28883774453395
scalar tree_4_3_u08_r15_network.node[38].content_store 	hits[38] 	3514
scalar tree_4_3_u08_r15_network.node[38].content_store 	misses[38] 	8652
scalar tree_4_3_u08_r15_network.node[38].content_store 	decision_yes[38] 	27
scalar tree_4_3_u08_r15_network.node[38].content_store 	decision_no[38] 	8625
scalar tree_4_3_u08_r15_network.node[38].content_store 	decision_ratio[38] 	0.003120665742025
scalar tree_4_3_u08_r15_network.node[39].core_layer 	interests[39] 	12263
scalar tree_4_3_u08_r15_network.node[39].core_layer 	data[39] 	8702
scalar tree_4_3_u08_r15_network.node[39].content_store 	p_hit[39] 	0.29038571312077
scalar tree_4_3_u08_r15_network.node[39].content_store 	hits[39] 	3561
scalar tree_4_3_u08_r15_network.node[39].content_store 	misses[39] 	8702
scalar tree_4_3_u08_r15_network.node[39].content_store 	decision_yes[39] 	26
scalar tree_4_3_u08_r15_network.node[39].content_store 	decision_no[39] 	8676
scalar tree_4_3_u08_r15_network.node[39].content_store 	decision_ratio[39] 	0.0029878188922087
scalar tree_4_3_u08_r15_network.client[13] 	hdistance[13] 	2.6252358684059
scalar tree_4_3_u08_r15_network.client[13] 	downloads[13] 	12189
scalar tree_4_3_u08_r15_network.client[13] 	avg_time[13] 	0.004064481327
scalar tree_4_3_u08_r15_network.client[14] 	hdistance[14] 	2.5895924973027
scalar tree_4_3_u08_r15_network.client[14] 	downloads[14] 	12049
scalar tree_4_3_u08_r15_network.client[14] 	avg_time[14] 	0.004011948189
scalar tree_4_3_u08_r15_network.client[15] 	hdistance[15] 	2.5568604258195
scalar tree_4_3_u08_r15_network.client[15] 	downloads[15] 	11836
scalar tree_4_3_u08_r15_network.client[15] 	avg_time[15] 	0.003956066267
scalar tree_4_3_u08_r15_network.client[16] 	hdistance[16] 	2.597437177567
scalar tree_4_3_u08_r15_network.client[16] 	downloads[16] 	12018
scalar tree_4_3_u08_r15_network.client[16] 	avg_time[16] 	0.004030451317
scalar tree_4_3_u08_r15_network.client[17] 	hdistance[17] 	2.594574227581
scalar tree_4_3_u08_r15_network.client[17] 	downloads[17] 	11943
scalar tree_4_3_u08_r15_network.client[17] 	avg_time[17] 	0.004035705569
scalar tree_4_3_u08_r15_network.client[18] 	hdistance[18] 	2.5834789119042
scalar tree_4_3_u08_r15_network.client[18] 	downloads[18] 	12021
scalar tree_4_3_u08_r15_network.client[18] 	avg_time[18] 	0.004007983027
scalar tree_4_3_u08_r15_network.client[19] 	hdistance[19] 	2.581366562139
scalar tree_4_3_u08_r15_network.client[19] 	downloads[19] 	12118
scalar tree_4_3_u08_r15_network.client[19] 	avg_time[19] 	0.003995540793
scalar tree_4_3_u08_r15_network.client[20] 	hdistance[20] 	2.5479532163743
scalar tree_4_3_u08_r15_network.client[20] 	downloads[20] 	11970
scalar tree_4_3_u08_r15_network.client[20] 	avg_time[20] 	0.003951709601
scalar tree_4_3_u08_r15_network.client[21] 	hdistance[21] 	2.6201927105153
scalar tree_4_3_u08_r15_network.client[21] 	downloads[21] 	11935
scalar tree_4_3_u08_r15_network.client[21] 	avg_time[21] 	0.004069200934
scalar tree_4_3_u08_r15_network.client[22] 	hdistance[22] 	2.623030602986
scalar tree_4_3_u08_r15_network.client[22] 	downloads[22] 	12123
scalar tree_4_3_u08_r15_network.client[22] 	avg_time[22] 	0.004074273999
scalar tree_4_3_u08_r15_network.client[23] 	hdistance[23] 	2.5648682559599
scalar tree_4_3_u08_r15_network.client[23] 	downloads[23] 	11955
scalar tree_4_3_u08_r15_network.client[23] 	avg_time[23] 	0.003965534434
scalar tree_4_3_u08_r15_network.client[24] 	hdistance[24] 	2.5827529021559
scalar tree_4_3_u08_r15_network.client[24] 	downloads[24] 	12060
scalar tree_4_3_u08_r15_network.client[24] 	avg_time[24] 	0.003996182719
scalar tree_4_3_u08_r15_network.client[25] 	hdistance[25] 	2.6091732349489
scalar tree_4_3_u08_r15_network.client[25] 	downloads[25] 	11926
scalar tree_4_3_u08_r15_network.client[25] 	avg_time[25] 	0.004050842481
scalar tree_4_3_u08_r15_network.client[26] 	hdistance[26] 	2.6153085605998
scalar tree_4_3_u08_r15_network.client[26] 	downloads[26] 	12137
scalar tree_4_3_u08_r15_network.client[26] 	avg_time[26] 	0.004043005941
scalar tree_4_3_u08_r15_network.client[27] 	hdistance[27] 	2.6174781523096
scalar tree_4_3_u08_r15_network.client[27] 	downloads[27] 	12015
scalar tree_4_3_u08_r15_network.client[27] 	avg_time[27] 	0.004033288713
scalar tree_4_3_u08_r15_network.client[28] 	hdistance[28] 	2.5432457085994
scalar tree_4_3_u08_r15_network.client[28] 	downloads[28] 	12059
scalar tree_4_3_u08_r15_network.client[28] 	avg_time[28] 	0.003937418947
scalar tree_4_3_u08_r15_network.client[29] 	hdistance[29] 	2.6251889168766
scalar tree_4_3_u08_r15_network.client[29] 	downloads[29] 	11910
scalar tree_4_3_u08_r15_network.client[29] 	avg_time[29] 	0.004049031469
scalar tree_4_3_u08_r15_network.client[30] 	hdistance[30] 	2.6187251333277
scalar tree_4_3_u08_r15_network.client[30] 	downloads[30] 	11813
scalar tree_4_3_u08_r15_network.client[30] 	avg_time[30] 	0.004052142961
scalar tree_4_3_u08_r15_network.client[31] 	hdistance[31] 	2.6192855358481
scalar tree_4_3_u08_r15_network.client[31] 	downloads[31] 	12009
scalar tree_4_3_u08_r15_network.client[31] 	avg_time[31] 	0.00404113282
scalar tree_4_3_u08_r15_network.client[32] 	hdistance[32] 	2.5953800298063
scalar tree_4_3_u08_r15_network.client[32] 	downloads[32] 	12078
scalar tree_4_3_u08_r15_network.client[32] 	avg_time[32] 	0.004011528772
scalar tree_4_3_u08_r15_network.client[33] 	hdistance[33] 	2.5982692627725
scalar tree_4_3_u08_r15_network.client[33] 	downloads[33] 	12018
scalar tree_4_3_u08_r15_network.client[33] 	avg_time[33] 	0.003993506719
scalar tree_4_3_u08_r15_network.client[34] 	hdistance[34] 	2.5879208086208
scalar tree_4_3_u08_r15_network.client[34] 	downloads[34] 	11971
scalar tree_4_3_u08_r15_network.client[34] 	avg_time[34] 	0.004004507921
scalar tree_4_3_u08_r15_network.client[35] 	hdistance[35] 	2.6535202086049
scalar tree_4_3_u08_r15_network.client[35] 	downloads[35] 	12272
scalar tree_4_3_u08_r15_network.client[35] 	avg_time[35] 	0.004115870455
scalar tree_4_3_u08_r15_network.client[36] 	hdistance[36] 	2.5487340724806
scalar tree_4_3_u08_r15_network.client[36] 	downloads[36] 	12086
scalar tree_4_3_u08_r15_network.client[36] 	avg_time[36] 	0.003940258422
scalar tree_4_3_u08_r15_network.client[37] 	hdistance[37] 	2.6043626675547
scalar tree_4_3_u08_r15_network.client[37] 	downloads[37] 	12011
scalar tree_4_3_u08_r15_network.client[37] 	avg_time[37] 	0.004006158009
scalar tree_4_3_u08_r15_network.client[38] 	hdistance[38] 	2.6589604989605
scalar tree_4_3_u08_r15_network.client[38] 	downloads[38] 	12025
scalar tree_4_3_u08_r15_network.client[38] 	avg_time[38] 	0.004095298452
scalar tree_4_3_u08_r15_network.client[39] 	hdistance[39] 	2.6411589895988
scalar tree_4_3_u08_r15_network.client[39] 	downloads[39] 	12114
scalar tree_4_3_u08_r15_network.client[39] 	avg_time[39] 	0.004071319376
