version 2
run General-128-20160819-16:58:04-23511
attr a 0.9
attr cd lce
attr configname General
attr cr lru
attr datetime 20160819-16:58:04
attr experiment General
attr fsize 1
attr inifile hw5115/scenario_A/NRR-LCE.ini
attr iterationvars "$name=tree_4_3, $un=06, $rep=9, $cd=lce, $cr=lru, $fsize=1, $a=0.9, $sl=nrr, $ttl=1000, $variance=0.05"
attr iterationvars2 "$name=tree_4_3, $un=06, $rep=9, $cd=lce, $cr=lru, $fsize=1, $a=0.9, $sl=nrr, $ttl=1000, $variance=0.05, $repetition=0"
attr measurement "$name=tree_4_3, $un=06, $rep=9, $cd=lce, $cr=lru, $fsize=1, $a=0.9, $sl=nrr, $ttl=1000, $variance=0.05"
attr name tree_4_3
attr network networks.${name}_u${un}_r${rep}_network
attr processid 23511
attr rep 9
attr repetition 0
attr replication #0
attr resultdir results
attr runnumber 128
attr seedset 9
attr sl nrr
attr ttl 1000
attr un 06
attr variance 0.05

scalar . 	a 	0.9
scalar . 	fsize 	1
scalar . 	rep 	9
scalar . 	ttl 	1000
scalar . 	un 	06
scalar . 	variance 	0.05
scalar tree_4_3_u06_r9_network.content_distribution 	repo-0 	0
scalar tree_4_3_u06_r9_network.content_distribution 	client-0 	13
scalar tree_4_3_u06_r9_network.content_distribution 	client-1 	14
scalar tree_4_3_u06_r9_network.content_distribution 	client-2 	15
scalar tree_4_3_u06_r9_network.content_distribution 	client-3 	16
scalar tree_4_3_u06_r9_network.content_distribution 	client-4 	17
scalar tree_4_3_u06_r9_network.content_distribution 	client-5 	18
scalar tree_4_3_u06_r9_network.content_distribution 	client-6 	19
scalar tree_4_3_u06_r9_network.content_distribution 	client-7 	20
scalar tree_4_3_u06_r9_network.content_distribution 	client-8 	21
scalar tree_4_3_u06_r9_network.content_distribution 	client-9 	22
scalar tree_4_3_u06_r9_network.content_distribution 	client-10 	23
scalar tree_4_3_u06_r9_network.content_distribution 	client-11 	24
scalar tree_4_3_u06_r9_network.content_distribution 	client-12 	25
scalar tree_4_3_u06_r9_network.content_distribution 	client-13 	26
scalar tree_4_3_u06_r9_network.content_distribution 	client-14 	27
scalar tree_4_3_u06_r9_network.content_distribution 	client-15 	28
scalar tree_4_3_u06_r9_network.content_distribution 	client-16 	29
scalar tree_4_3_u06_r9_network.content_distribution 	client-17 	30
scalar tree_4_3_u06_r9_network.content_distribution 	client-18 	31
scalar tree_4_3_u06_r9_network.content_distribution 	client-19 	32
scalar tree_4_3_u06_r9_network.content_distribution 	client-20 	33
scalar tree_4_3_u06_r9_network.content_distribution 	client-21 	34
scalar tree_4_3_u06_r9_network.content_distribution 	client-22 	35
scalar tree_4_3_u06_r9_network.content_distribution 	client-23 	36
scalar tree_4_3_u06_r9_network.content_distribution 	client-24 	37
scalar tree_4_3_u06_r9_network.content_distribution 	client-25 	38
scalar tree_4_3_u06_r9_network.content_distribution 	client-26 	39
scalar tree_4_3_u06_r9_network.content_distribution 	repo-0_card 	100000
scalar tree_4_3_u06_r9_network.content_distribution 	repo-0_price 	0
scalar tree_4_3_u06_r9_network.statistics 	stabilization_time 	480.3
scalar tree_4_3_u06_r9_network.statistics 	p_hit 	0.19399714569571
scalar tree_4_3_u06_r9_network.statistics 	interests 	27568.225
scalar tree_4_3_u06_r9_network.statistics 	data 	19470.625
scalar tree_4_3_u06_r9_network.statistics 	hdistance 	3.0302985256526
scalar tree_4_3_u06_r9_network.statistics 	avg_time 	0.004809159025
scalar tree_4_3_u06_r9_network.statistics 	downloads 	323882
scalar tree_4_3_u06_r9_network.statistics 	total_cost 	0
scalar tree_4_3_u06_r9_network.statistics 	total_replicas 	100000
scalar tree_4_3_u06_r9_network.statistics 	inner_hit 	0.374272111448
scalar tree_4_3_u06_r9_network.node[0].core_layer 	interests[0] 	203383
scalar tree_4_3_u06_r9_network.node[0].core_layer 	repo_load[0] 	202662
scalar tree_4_3_u06_r9_network.node[0].core_layer 	data[0] 	0
scalar tree_4_3_u06_r9_network.node[0].core_layer 	repo_int[0] 	202662
scalar tree_4_3_u06_r9_network.node[0].content_store 	p_hit[0] 	0.003545035720783
scalar tree_4_3_u06_r9_network.node[0].content_store 	hits[0] 	721
scalar tree_4_3_u06_r9_network.node[0].content_store 	misses[0] 	202662
scalar tree_4_3_u06_r9_network.node[0].content_store 	decision_yes[0] 	202662
scalar tree_4_3_u06_r9_network.node[0].content_store 	decision_no[0] 	0
scalar tree_4_3_u06_r9_network.node[0].content_store 	decision_ratio[0] 	1
scalar tree_4_3_u06_r9_network.node[1].core_layer 	interests[1] 	98962
scalar tree_4_3_u06_r9_network.node[1].core_layer 	data[1] 	98121
scalar tree_4_3_u06_r9_network.node[1].content_store 	p_hit[1] 	0.0084577918797114
scalar tree_4_3_u06_r9_network.node[1].content_store 	hits[1] 	837
scalar tree_4_3_u06_r9_network.node[1].content_store 	misses[1] 	98125
scalar tree_4_3_u06_r9_network.node[1].content_store 	decision_yes[1] 	98110
scalar tree_4_3_u06_r9_network.node[1].content_store 	decision_no[1] 	0
scalar tree_4_3_u06_r9_network.node[1].content_store 	decision_ratio[1] 	1
scalar tree_4_3_u06_r9_network.node[2].core_layer 	interests[2] 	98095
scalar tree_4_3_u06_r9_network.node[2].core_layer 	data[2] 	96290
scalar tree_4_3_u06_r9_network.node[2].content_store 	p_hit[2] 	0.018349559100872
scalar tree_4_3_u06_r9_network.node[2].content_store 	hits[2] 	1800
scalar tree_4_3_u06_r9_network.node[2].content_store 	misses[2] 	96295
scalar tree_4_3_u06_r9_network.node[2].content_store 	decision_yes[2] 	96279
scalar tree_4_3_u06_r9_network.node[2].content_store 	decision_no[2] 	0
scalar tree_4_3_u06_r9_network.node[2].content_store 	decision_ratio[2] 	1
scalar tree_4_3_u06_r9_network.node[3].core_layer 	interests[3] 	37485
scalar tree_4_3_u06_r9_network.node[3].core_layer 	data[3] 	36388
scalar tree_4_3_u06_r9_network.node[3].content_store 	p_hit[3] 	0.029265039349073
scalar tree_4_3_u06_r9_network.node[3].content_store 	hits[3] 	1097
scalar tree_4_3_u06_r9_network.node[3].content_store 	misses[3] 	36388
scalar tree_4_3_u06_r9_network.node[3].content_store 	decision_yes[3] 	36388
scalar tree_4_3_u06_r9_network.node[3].content_store 	decision_no[3] 	0
scalar tree_4_3_u06_r9_network.node[3].content_store 	decision_ratio[3] 	1
scalar tree_4_3_u06_r9_network.node[4].core_layer 	interests[4] 	39770
scalar tree_4_3_u06_r9_network.node[4].core_layer 	data[4] 	38342
scalar tree_4_3_u06_r9_network.node[4].content_store 	p_hit[4] 	0.035881317576062
scalar tree_4_3_u06_r9_network.node[4].content_store 	hits[4] 	1427
scalar tree_4_3_u06_r9_network.node[4].content_store 	misses[4] 	38343
scalar tree_4_3_u06_r9_network.node[4].content_store 	decision_yes[4] 	38339
scalar tree_4_3_u06_r9_network.node[4].content_store 	decision_no[4] 	0
scalar tree_4_3_u06_r9_network.node[4].content_store 	decision_ratio[4] 	1
scalar tree_4_3_u06_r9_network.node[5].core_layer 	interests[5] 	34982
scalar tree_4_3_u06_r9_network.node[5].core_layer 	data[5] 	32060
scalar tree_4_3_u06_r9_network.node[5].content_store 	p_hit[5] 	0.08350008575839
scalar tree_4_3_u06_r9_network.node[5].content_store 	hits[5] 	2921
scalar tree_4_3_u06_r9_network.node[5].content_store 	misses[5] 	32061
scalar tree_4_3_u06_r9_network.node[5].content_store 	decision_yes[5] 	32056
scalar tree_4_3_u06_r9_network.node[5].content_store 	decision_no[5] 	0
scalar tree_4_3_u06_r9_network.node[5].content_store 	decision_ratio[5] 	1
scalar tree_4_3_u06_r9_network.node[6].core_layer 	interests[6] 	24200
scalar tree_4_3_u06_r9_network.node[6].core_layer 	data[6] 	21298
scalar tree_4_3_u06_r9_network.node[6].content_store 	p_hit[6] 	0.1199173553719
scalar tree_4_3_u06_r9_network.node[6].content_store 	hits[6] 	2902
scalar tree_4_3_u06_r9_network.node[6].content_store 	misses[6] 	21298
scalar tree_4_3_u06_r9_network.node[6].content_store 	decision_yes[6] 	21298
scalar tree_4_3_u06_r9_network.node[6].content_store 	decision_no[6] 	0
scalar tree_4_3_u06_r9_network.node[6].content_store 	decision_ratio[6] 	1
scalar tree_4_3_u06_r9_network.node[7].core_layer 	interests[7] 	34131
scalar tree_4_3_u06_r9_network.node[7].core_layer 	data[7] 	31326
scalar tree_4_3_u06_r9_network.node[7].content_store 	p_hit[7] 	0.082066156866192
scalar tree_4_3_u06_r9_network.node[7].content_store 	hits[7] 	2801
scalar tree_4_3_u06_r9_network.node[7].content_store 	misses[7] 	31330
scalar tree_4_3_u06_r9_network.node[7].content_store 	decision_yes[7] 	31319
scalar tree_4_3_u06_r9_network.node[7].content_store 	decision_no[7] 	0
scalar tree_4_3_u06_r9_network.node[7].content_store 	decision_ratio[7] 	1
scalar tree_4_3_u06_r9_network.node[8].core_layer 	interests[8] 	32298
scalar tree_4_3_u06_r9_network.node[8].core_layer 	data[8] 	30251
scalar tree_4_3_u06_r9_network.node[8].content_store 	p_hit[8] 	0.063378537370735
scalar tree_4_3_u06_r9_network.node[8].content_store 	hits[8] 	2047
scalar tree_4_3_u06_r9_network.node[8].content_store 	misses[8] 	30251
scalar tree_4_3_u06_r9_network.node[8].content_store 	decision_yes[8] 	30250
scalar tree_4_3_u06_r9_network.node[8].content_store 	decision_no[8] 	0
scalar tree_4_3_u06_r9_network.node[8].content_store 	decision_ratio[8] 	1
scalar tree_4_3_u06_r9_network.node[9].core_layer 	interests[9] 	35992
scalar tree_4_3_u06_r9_network.node[9].core_layer 	data[9] 	32745
scalar tree_4_3_u06_r9_network.node[9].content_store 	p_hit[9] 	0.09013114025339
scalar tree_4_3_u06_r9_network.node[9].content_store 	hits[9] 	3244
scalar tree_4_3_u06_r9_network.node[9].content_store 	misses[9] 	32748
scalar tree_4_3_u06_r9_network.node[9].content_store 	decision_yes[9] 	32743
scalar tree_4_3_u06_r9_network.node[9].content_store 	decision_no[9] 	0
scalar tree_4_3_u06_r9_network.node[9].content_store 	decision_ratio[9] 	1
scalar tree_4_3_u06_r9_network.node[10].core_layer 	interests[10] 	32125
scalar tree_4_3_u06_r9_network.node[10].core_layer 	data[10] 	30475
scalar tree_4_3_u06_r9_network.node[10].content_store 	p_hit[10] 	0.051330739299611
scalar tree_4_3_u06_r9_network.node[10].content_store 	hits[10] 	1649
scalar tree_4_3_u06_r9_network.node[10].content_store 	misses[10] 	30476
scalar tree_4_3_u06_r9_network.node[10].content_store 	decision_yes[10] 	30474
scalar tree_4_3_u06_r9_network.node[10].content_store 	decision_no[10] 	0
scalar tree_4_3_u06_r9_network.node[10].content_store 	decision_ratio[10] 	1
scalar tree_4_3_u06_r9_network.node[11].core_layer 	interests[11] 	51991
scalar tree_4_3_u06_r9_network.node[11].core_layer 	data[11] 	49482
scalar tree_4_3_u06_r9_network.node[11].content_store 	p_hit[11] 	0.048142947817892
scalar tree_4_3_u06_r9_network.node[11].content_store 	hits[11] 	2503
scalar tree_4_3_u06_r9_network.node[11].content_store 	misses[11] 	49488
scalar tree_4_3_u06_r9_network.node[11].content_store 	decision_yes[11] 	49478
scalar tree_4_3_u06_r9_network.node[11].content_store 	decision_no[11] 	0
scalar tree_4_3_u06_r9_network.node[11].content_store 	decision_ratio[11] 	1
scalar tree_4_3_u06_r9_network.node[12].core_layer 	interests[12] 	13278
scalar tree_4_3_u06_r9_network.node[12].core_layer 	data[12] 	10698
scalar tree_4_3_u06_r9_network.node[12].content_store 	p_hit[12] 	0.19430637144148
scalar tree_4_3_u06_r9_network.node[12].content_store 	hits[12] 	2580
scalar tree_4_3_u06_r9_network.node[12].content_store 	misses[12] 	10698
scalar tree_4_3_u06_r9_network.node[12].content_store 	decision_yes[12] 	10698
scalar tree_4_3_u06_r9_network.node[12].content_store 	decision_no[12] 	0
scalar tree_4_3_u06_r9_network.node[12].content_store 	decision_ratio[12] 	1
scalar tree_4_3_u06_r9_network.node[13].core_layer 	interests[13] 	13075
scalar tree_4_3_u06_r9_network.node[13].core_layer 	data[13] 	10393
scalar tree_4_3_u06_r9_network.node[13].content_store 	p_hit[13] 	0.20512428298279
scalar tree_4_3_u06_r9_network.node[13].content_store 	hits[13] 	2682
scalar tree_4_3_u06_r9_network.node[13].content_store 	misses[13] 	10393
scalar tree_4_3_u06_r9_network.node[13].content_store 	decision_yes[13] 	10393
scalar tree_4_3_u06_r9_network.node[13].content_store 	decision_no[13] 	0
scalar tree_4_3_u06_r9_network.node[13].content_store 	decision_ratio[13] 	1
scalar tree_4_3_u06_r9_network.node[14].core_layer 	interests[14] 	13156
scalar tree_4_3_u06_r9_network.node[14].core_layer 	data[14] 	10252
scalar tree_4_3_u06_r9_network.node[14].content_store 	p_hit[14] 	0.22073578595318
scalar tree_4_3_u06_r9_network.node[14].content_store 	hits[14] 	2904
scalar tree_4_3_u06_r9_network.node[14].content_store 	misses[14] 	10252
scalar tree_4_3_u06_r9_network.node[14].content_store 	decision_yes[14] 	10252
scalar tree_4_3_u06_r9_network.node[14].content_store 	decision_no[14] 	0
scalar tree_4_3_u06_r9_network.node[14].content_store 	decision_ratio[14] 	1
scalar tree_4_3_u06_r9_network.node[15].core_layer 	interests[15] 	14109
scalar tree_4_3_u06_r9_network.node[15].core_layer 	data[15] 	10108
scalar tree_4_3_u06_r9_network.node[15].content_store 	p_hit[15] 	0.28350698135942
scalar tree_4_3_u06_r9_network.node[15].content_store 	hits[15] 	4000
scalar tree_4_3_u06_r9_network.node[15].content_store 	misses[15] 	10109
scalar tree_4_3_u06_r9_network.node[15].content_store 	decision_yes[15] 	10108
scalar tree_4_3_u06_r9_network.node[15].content_store 	decision_no[15] 	0
scalar tree_4_3_u06_r9_network.node[15].content_store 	decision_ratio[15] 	1
scalar tree_4_3_u06_r9_network.node[16].core_layer 	interests[16] 	14477
scalar tree_4_3_u06_r9_network.node[16].core_layer 	data[16] 	9960
scalar tree_4_3_u06_r9_network.node[16].content_store 	p_hit[16] 	0.31201215721489
scalar tree_4_3_u06_r9_network.node[16].content_store 	hits[16] 	4517
scalar tree_4_3_u06_r9_network.node[16].content_store 	misses[16] 	9960
scalar tree_4_3_u06_r9_network.node[16].content_store 	decision_yes[16] 	9960
scalar tree_4_3_u06_r9_network.node[16].content_store 	decision_no[16] 	0
scalar tree_4_3_u06_r9_network.node[16].content_store 	decision_ratio[16] 	1
scalar tree_4_3_u06_r9_network.node[17].core_layer 	interests[17] 	13222
scalar tree_4_3_u06_r9_network.node[17].core_layer 	data[17] 	10021
scalar tree_4_3_u06_r9_network.node[17].content_store 	p_hit[17] 	0.24209650582363
scalar tree_4_3_u06_r9_network.node[17].content_store 	hits[17] 	3201
scalar tree_4_3_u06_r9_network.node[17].content_store 	misses[17] 	10021
scalar tree_4_3_u06_r9_network.node[17].content_store 	decision_yes[17] 	10021
scalar tree_4_3_u06_r9_network.node[17].content_store 	decision_no[17] 	0
scalar tree_4_3_u06_r9_network.node[17].content_store 	decision_ratio[17] 	1
scalar tree_4_3_u06_r9_network.node[18].core_layer 	interests[18] 	14283
scalar tree_4_3_u06_r9_network.node[18].core_layer 	data[18] 	10049
scalar tree_4_3_u06_r9_network.node[18].content_store 	p_hit[18] 	0.29643632290135
scalar tree_4_3_u06_r9_network.node[18].content_store 	hits[18] 	4234
scalar tree_4_3_u06_r9_network.node[18].content_store 	misses[18] 	10049
scalar tree_4_3_u06_r9_network.node[18].content_store 	decision_yes[18] 	10049
scalar tree_4_3_u06_r9_network.node[18].content_store 	decision_no[18] 	0
scalar tree_4_3_u06_r9_network.node[18].content_store 	decision_ratio[18] 	1
scalar tree_4_3_u06_r9_network.node[19].core_layer 	interests[19] 	12656
scalar tree_4_3_u06_r9_network.node[19].core_layer 	data[19] 	9988
scalar tree_4_3_u06_r9_network.node[19].content_store 	p_hit[19] 	0.21080910240202
scalar tree_4_3_u06_r9_network.node[19].content_store 	hits[19] 	2668
scalar tree_4_3_u06_r9_network.node[19].content_store 	misses[19] 	9988
scalar tree_4_3_u06_r9_network.node[19].content_store 	decision_yes[19] 	9988
scalar tree_4_3_u06_r9_network.node[19].content_store 	decision_no[19] 	0
scalar tree_4_3_u06_r9_network.node[19].content_store 	decision_ratio[19] 	1
scalar tree_4_3_u06_r9_network.node[20].core_layer 	interests[20] 	14324
scalar tree_4_3_u06_r9_network.node[20].core_layer 	data[20] 	10022
scalar tree_4_3_u06_r9_network.node[20].content_store 	p_hit[20] 	0.30019547612399
scalar tree_4_3_u06_r9_network.node[20].content_store 	hits[20] 	4300
scalar tree_4_3_u06_r9_network.node[20].content_store 	misses[20] 	10024
scalar tree_4_3_u06_r9_network.node[20].content_store 	decision_yes[20] 	10022
scalar tree_4_3_u06_r9_network.node[20].content_store 	decision_no[20] 	0
scalar tree_4_3_u06_r9_network.node[20].content_store 	decision_ratio[20] 	1
scalar tree_4_3_u06_r9_network.node[21].core_layer 	interests[21] 	12775
scalar tree_4_3_u06_r9_network.node[21].core_layer 	data[21] 	10006
scalar tree_4_3_u06_r9_network.node[21].content_store 	p_hit[21] 	0.21659491193738
scalar tree_4_3_u06_r9_network.node[21].content_store 	hits[21] 	2767
scalar tree_4_3_u06_r9_network.node[21].content_store 	misses[21] 	10008
scalar tree_4_3_u06_r9_network.node[21].content_store 	decision_yes[21] 	10006
scalar tree_4_3_u06_r9_network.node[21].content_store 	decision_no[21] 	0
scalar tree_4_3_u06_r9_network.node[21].content_store 	decision_ratio[21] 	1
scalar tree_4_3_u06_r9_network.node[22].core_layer 	interests[22] 	13487
scalar tree_4_3_u06_r9_network.node[22].core_layer 	data[22] 	10191
scalar tree_4_3_u06_r9_network.node[22].content_store 	p_hit[22] 	0.2443093349151
scalar tree_4_3_u06_r9_network.node[22].content_store 	hits[22] 	3295
scalar tree_4_3_u06_r9_network.node[22].content_store 	misses[22] 	10192
scalar tree_4_3_u06_r9_network.node[22].content_store 	decision_yes[22] 	10191
scalar tree_4_3_u06_r9_network.node[22].content_store 	decision_no[22] 	0
scalar tree_4_3_u06_r9_network.node[22].content_store 	decision_ratio[22] 	1
scalar tree_4_3_u06_r9_network.node[23].core_layer 	interests[23] 	14672
scalar tree_4_3_u06_r9_network.node[23].core_layer 	data[23] 	10069
scalar tree_4_3_u06_r9_network.node[23].content_store 	p_hit[23] 	0.3136586695747
scalar tree_4_3_u06_r9_network.node[23].content_store 	hits[23] 	4602
scalar tree_4_3_u06_r9_network.node[23].content_store 	misses[23] 	10070
scalar tree_4_3_u06_r9_network.node[23].content_store 	decision_yes[23] 	10069
scalar tree_4_3_u06_r9_network.node[23].content_store 	decision_no[23] 	0
scalar tree_4_3_u06_r9_network.node[23].content_store 	decision_ratio[23] 	1
scalar tree_4_3_u06_r9_network.node[24].core_layer 	interests[24] 	13223
scalar tree_4_3_u06_r9_network.node[24].core_layer 	data[24] 	9961
scalar tree_4_3_u06_r9_network.node[24].content_store 	p_hit[24] 	0.24661574529229
scalar tree_4_3_u06_r9_network.node[24].content_store 	hits[24] 	3261
scalar tree_4_3_u06_r9_network.node[24].content_store 	misses[24] 	9962
scalar tree_4_3_u06_r9_network.node[24].content_store 	decision_yes[24] 	9961
scalar tree_4_3_u06_r9_network.node[24].content_store 	decision_no[24] 	0
scalar tree_4_3_u06_r9_network.node[24].content_store 	decision_ratio[24] 	1
scalar tree_4_3_u06_r9_network.node[25].core_layer 	interests[25] 	13081
scalar tree_4_3_u06_r9_network.node[25].core_layer 	data[25] 	9982
scalar tree_4_3_u06_r9_network.node[25].content_store 	p_hit[25] 	0.23683204647963
scalar tree_4_3_u06_r9_network.node[25].content_store 	hits[25] 	3098
scalar tree_4_3_u06_r9_network.node[25].content_store 	misses[25] 	9983
scalar tree_4_3_u06_r9_network.node[25].content_store 	decision_yes[25] 	9982
scalar tree_4_3_u06_r9_network.node[25].content_store 	decision_no[25] 	0
scalar tree_4_3_u06_r9_network.node[25].content_store 	decision_ratio[25] 	1
scalar tree_4_3_u06_r9_network.node[26].core_layer 	interests[26] 	12886
scalar tree_4_3_u06_r9_network.node[26].core_layer 	data[26] 	9994
scalar tree_4_3_u06_r9_network.node[26].content_store 	p_hit[26] 	0.22427440633245
scalar tree_4_3_u06_r9_network.node[26].content_store 	hits[26] 	2890
scalar tree_4_3_u06_r9_network.node[26].content_store 	misses[26] 	9996
scalar tree_4_3_u06_r9_network.node[26].content_store 	decision_yes[26] 	9994
scalar tree_4_3_u06_r9_network.node[26].content_store 	decision_no[26] 	0
scalar tree_4_3_u06_r9_network.node[26].content_store 	decision_ratio[26] 	1
scalar tree_4_3_u06_r9_network.node[27].core_layer 	interests[27] 	14810
scalar tree_4_3_u06_r9_network.node[27].core_layer 	data[27] 	10172
scalar tree_4_3_u06_r9_network.node[27].content_store 	p_hit[27] 	0.31309925725861
scalar tree_4_3_u06_r9_network.node[27].content_store 	hits[27] 	4637
scalar tree_4_3_u06_r9_network.node[27].content_store 	misses[27] 	10173
scalar tree_4_3_u06_r9_network.node[27].content_store 	decision_yes[27] 	10172
scalar tree_4_3_u06_r9_network.node[27].content_store 	decision_no[27] 	0
scalar tree_4_3_u06_r9_network.node[27].content_store 	decision_ratio[27] 	1
scalar tree_4_3_u06_r9_network.node[28].core_layer 	interests[28] 	13617
scalar tree_4_3_u06_r9_network.node[28].core_layer 	data[28] 	10177
scalar tree_4_3_u06_r9_network.node[28].content_store 	p_hit[28] 	0.25262539472718
scalar tree_4_3_u06_r9_network.node[28].content_store 	hits[28] 	3440
scalar tree_4_3_u06_r9_network.node[28].content_store 	misses[28] 	10177
scalar tree_4_3_u06_r9_network.node[28].content_store 	decision_yes[28] 	10177
scalar tree_4_3_u06_r9_network.node[28].content_store 	decision_no[28] 	0
scalar tree_4_3_u06_r9_network.node[28].content_store 	decision_ratio[28] 	1
scalar tree_4_3_u06_r9_network.node[29].core_layer 	interests[29] 	13252
scalar tree_4_3_u06_r9_network.node[29].core_layer 	data[29] 	9947
scalar tree_4_3_u06_r9_network.node[29].content_store 	p_hit[29] 	0.24939631753698
scalar tree_4_3_u06_r9_network.node[29].content_store 	hits[29] 	3305
scalar tree_4_3_u06_r9_network.node[29].content_store 	misses[29] 	9947
scalar tree_4_3_u06_r9_network.node[29].content_store 	decision_yes[29] 	9947
scalar tree_4_3_u06_r9_network.node[29].content_store 	decision_no[29] 	0
scalar tree_4_3_u06_r9_network.node[29].content_store 	decision_ratio[29] 	1
scalar tree_4_3_u06_r9_network.node[30].core_layer 	interests[30] 	13357
scalar tree_4_3_u06_r9_network.node[30].core_layer 	data[30] 	10009
scalar tree_4_3_u06_r9_network.node[30].content_store 	p_hit[30] 	0.25065508722018
scalar tree_4_3_u06_r9_network.node[30].content_store 	hits[30] 	3348
scalar tree_4_3_u06_r9_network.node[30].content_store 	misses[30] 	10009
scalar tree_4_3_u06_r9_network.node[30].content_store 	decision_yes[30] 	10009
scalar tree_4_3_u06_r9_network.node[30].content_store 	decision_no[30] 	0
scalar tree_4_3_u06_r9_network.node[30].content_store 	decision_ratio[30] 	1
scalar tree_4_3_u06_r9_network.node[31].core_layer 	interests[31] 	12639
scalar tree_4_3_u06_r9_network.node[31].core_layer 	data[31] 	9957
scalar tree_4_3_u06_r9_network.node[31].content_store 	p_hit[31] 	0.21212121212121
scalar tree_4_3_u06_r9_network.node[31].content_store 	hits[31] 	2681
scalar tree_4_3_u06_r9_network.node[31].content_store 	misses[31] 	9958
scalar tree_4_3_u06_r9_network.node[31].content_store 	decision_yes[31] 	9957
scalar tree_4_3_u06_r9_network.node[31].content_store 	decision_no[31] 	0
scalar tree_4_3_u06_r9_network.node[31].content_store 	decision_ratio[31] 	1
scalar tree_4_3_u06_r9_network.node[32].core_layer 	interests[32] 	14320
scalar tree_4_3_u06_r9_network.node[32].core_layer 	data[32] 	9922
scalar tree_4_3_u06_r9_network.node[32].content_store 	p_hit[32] 	0.30698324022346
scalar tree_4_3_u06_r9_network.node[32].content_store 	hits[32] 	4396
scalar tree_4_3_u06_r9_network.node[32].content_store 	misses[32] 	9924
scalar tree_4_3_u06_r9_network.node[32].content_store 	decision_yes[32] 	9922
scalar tree_4_3_u06_r9_network.node[32].content_store 	decision_no[32] 	0
scalar tree_4_3_u06_r9_network.node[32].content_store 	decision_ratio[32] 	1
scalar tree_4_3_u06_r9_network.node[33].core_layer 	interests[33] 	13246
scalar tree_4_3_u06_r9_network.node[33].core_layer 	data[33] 	9948
scalar tree_4_3_u06_r9_network.node[33].content_store 	p_hit[33] 	0.24898082439982
scalar tree_4_3_u06_r9_network.node[33].content_store 	hits[33] 	3298
scalar tree_4_3_u06_r9_network.node[33].content_store 	misses[33] 	9948
scalar tree_4_3_u06_r9_network.node[33].content_store 	decision_yes[33] 	9948
scalar tree_4_3_u06_r9_network.node[33].content_store 	decision_no[33] 	0
scalar tree_4_3_u06_r9_network.node[33].content_store 	decision_ratio[33] 	1
scalar tree_4_3_u06_r9_network.node[34].core_layer 	interests[34] 	14312
scalar tree_4_3_u06_r9_network.node[34].core_layer 	data[34] 	9954
scalar tree_4_3_u06_r9_network.node[34].content_store 	p_hit[34] 	0.30449972051425
scalar tree_4_3_u06_r9_network.node[34].content_store 	hits[34] 	4358
scalar tree_4_3_u06_r9_network.node[34].content_store 	misses[34] 	9954
scalar tree_4_3_u06_r9_network.node[34].content_store 	decision_yes[34] 	9954
scalar tree_4_3_u06_r9_network.node[34].content_store 	decision_no[34] 	0
scalar tree_4_3_u06_r9_network.node[34].content_store 	decision_ratio[34] 	1
scalar tree_4_3_u06_r9_network.node[35].core_layer 	interests[35] 	13687
scalar tree_4_3_u06_r9_network.node[35].core_layer 	data[35] 	10072
scalar tree_4_3_u06_r9_network.node[35].content_store 	p_hit[35] 	0.26404617520275
scalar tree_4_3_u06_r9_network.node[35].content_store 	hits[35] 	3614
scalar tree_4_3_u06_r9_network.node[35].content_store 	misses[35] 	10073
scalar tree_4_3_u06_r9_network.node[35].content_store 	decision_yes[35] 	10072
scalar tree_4_3_u06_r9_network.node[35].content_store 	decision_no[35] 	0
scalar tree_4_3_u06_r9_network.node[35].content_store 	decision_ratio[35] 	1
scalar tree_4_3_u06_r9_network.node[36].core_layer 	interests[36] 	13587
scalar tree_4_3_u06_r9_network.node[36].core_layer 	data[36] 	10118
scalar tree_4_3_u06_r9_network.node[36].content_store 	p_hit[36] 	0.25531758298373
scalar tree_4_3_u06_r9_network.node[36].content_store 	hits[36] 	3469
scalar tree_4_3_u06_r9_network.node[36].content_store 	misses[36] 	10118
scalar tree_4_3_u06_r9_network.node[36].content_store 	decision_yes[36] 	10118
scalar tree_4_3_u06_r9_network.node[36].content_store 	decision_no[36] 	0
scalar tree_4_3_u06_r9_network.node[36].content_store 	decision_ratio[36] 	1
scalar tree_4_3_u06_r9_network.node[37].core_layer 	interests[37] 	13209
scalar tree_4_3_u06_r9_network.node[37].core_layer 	data[37] 	10052
scalar tree_4_3_u06_r9_network.node[37].content_store 	p_hit[37] 	0.23885229767583
scalar tree_4_3_u06_r9_network.node[37].content_store 	hits[37] 	3155
scalar tree_4_3_u06_r9_network.node[37].content_store 	misses[37] 	10054
scalar tree_4_3_u06_r9_network.node[37].content_store 	decision_yes[37] 	10052
scalar tree_4_3_u06_r9_network.node[37].content_store 	decision_no[37] 	0
scalar tree_4_3_u06_r9_network.node[37].content_store 	decision_ratio[37] 	1
scalar tree_4_3_u06_r9_network.node[38].core_layer 	interests[38] 	14363
scalar tree_4_3_u06_r9_network.node[38].core_layer 	data[38] 	9917
scalar tree_4_3_u06_r9_network.node[38].content_store 	p_hit[38] 	0.30954535960454
scalar tree_4_3_u06_r9_network.node[38].content_store 	hits[38] 	4446
scalar tree_4_3_u06_r9_network.node[38].content_store 	misses[38] 	9917
scalar tree_4_3_u06_r9_network.node[38].content_store 	decision_yes[38] 	9917
scalar tree_4_3_u06_r9_network.node[38].content_store 	decision_no[38] 	0
scalar tree_4_3_u06_r9_network.node[38].content_store 	decision_ratio[38] 	1
scalar tree_4_3_u06_r9_network.node[39].core_layer 	interests[39] 	12212
scalar tree_4_3_u06_r9_network.node[39].core_layer 	data[39] 	10108
scalar tree_4_3_u06_r9_network.node[39].content_store 	p_hit[39] 	0.17228955126105
scalar tree_4_3_u06_r9_network.node[39].content_store 	hits[39] 	2104
scalar tree_4_3_u06_r9_network.node[39].content_store 	misses[39] 	10108
scalar tree_4_3_u06_r9_network.node[39].content_store 	decision_yes[39] 	10108
scalar tree_4_3_u06_r9_network.node[39].content_store 	decision_no[39] 	0
scalar tree_4_3_u06_r9_network.node[39].content_store 	decision_ratio[39] 	1
scalar tree_4_3_u06_r9_network.client[13] 	hdistance[13] 	3.1385473028365
scalar tree_4_3_u06_r9_network.client[13] 	downloads[13] 	12198
scalar tree_4_3_u06_r9_network.client[13] 	avg_time[13] 	0.004940315044
scalar tree_4_3_u06_r9_network.client[14] 	hdistance[14] 	3.104995070654
scalar tree_4_3_u06_r9_network.client[14] 	downloads[14] 	12172
scalar tree_4_3_u06_r9_network.client[14] 	avg_time[14] 	0.00489302396
scalar tree_4_3_u06_r9_network.client[15] 	hdistance[15] 	2.975374732334
scalar tree_4_3_u06_r9_network.client[15] 	downloads[15] 	12142
scalar tree_4_3_u06_r9_network.client[15] 	avg_time[15] 	0.004639501908
scalar tree_4_3_u06_r9_network.client[16] 	hdistance[16] 	2.9817937746455
scalar tree_4_3_u06_r9_network.client[16] 	downloads[16] 	11919
scalar tree_4_3_u06_r9_network.client[16] 	avg_time[16] 	0.004743851374
scalar tree_4_3_u06_r9_network.client[17] 	hdistance[17] 	3.0649252477742
scalar tree_4_3_u06_r9_network.client[17] 	downloads[17] 	11906
scalar tree_4_3_u06_r9_network.client[17] 	avg_time[17] 	0.004911334023
scalar tree_4_3_u06_r9_network.client[18] 	hdistance[18] 	2.9488857592577
scalar tree_4_3_u06_r9_network.client[18] 	downloads[18] 	12071
scalar tree_4_3_u06_r9_network.client[18] 	avg_time[18] 	0.004686601261
scalar tree_4_3_u06_r9_network.client[19] 	hdistance[19] 	3.064817150063
scalar tree_4_3_u06_r9_network.client[19] 	downloads[19] 	11895
scalar tree_4_3_u06_r9_network.client[19] 	avg_time[19] 	0.004820182574
scalar tree_4_3_u06_r9_network.client[20] 	hdistance[20] 	2.9492903975434
scalar tree_4_3_u06_r9_network.client[20] 	downloads[20] 	12049
scalar tree_4_3_u06_r9_network.client[20] 	avg_time[20] 	0.004691566638
scalar tree_4_3_u06_r9_network.client[21] 	hdistance[21] 	3.0430645968953
scalar tree_4_3_u06_r9_network.client[21] 	downloads[21] 	11982
scalar tree_4_3_u06_r9_network.client[21] 	avg_time[21] 	0.004788175916
scalar tree_4_3_u06_r9_network.client[22] 	hdistance[22] 	3.0974197816738
scalar tree_4_3_u06_r9_network.client[22] 	downloads[22] 	12092
scalar tree_4_3_u06_r9_network.client[22] 	avg_time[22] 	0.004970721421
scalar tree_4_3_u06_r9_network.client[23] 	hdistance[23] 	2.981207053564
scalar tree_4_3_u06_r9_network.client[23] 	downloads[23] 	12079
scalar tree_4_3_u06_r9_network.client[23] 	avg_time[23] 	0.004759228934
scalar tree_4_3_u06_r9_network.client[24] 	hdistance[24] 	3.0866261398176
scalar tree_4_3_u06_r9_network.client[24] 	downloads[24] 	11844
scalar tree_4_3_u06_r9_network.client[24] 	avg_time[24] 	0.004958458702
scalar tree_4_3_u06_r9_network.client[25] 	hdistance[25] 	3.0759451321512
scalar tree_4_3_u06_r9_network.client[25] 	downloads[25] 	11956
scalar tree_4_3_u06_r9_network.client[25] 	avg_time[25] 	0.004902668538
scalar tree_4_3_u06_r9_network.client[26] 	hdistance[26] 	3.1007424907189
scalar tree_4_3_u06_r9_network.client[26] 	downloads[26] 	11852
scalar tree_4_3_u06_r9_network.client[26] 	avg_time[26] 	0.00494578466
scalar tree_4_3_u06_r9_network.client[27] 	hdistance[27] 	2.9580613577024
scalar tree_4_3_u06_r9_network.client[27] 	downloads[27] 	12256
scalar tree_4_3_u06_r9_network.client[27] 	avg_time[27] 	0.004688038968
scalar tree_4_3_u06_r9_network.client[28] 	hdistance[28] 	3.0423979006069
scalar tree_4_3_u06_r9_network.client[28] 	downloads[28] 	12194
scalar tree_4_3_u06_r9_network.client[28] 	avg_time[28] 	0.004857884624
scalar tree_4_3_u06_r9_network.client[29] 	hdistance[29] 	3.05485482096
scalar tree_4_3_u06_r9_network.client[29] 	downloads[29] 	11813
scalar tree_4_3_u06_r9_network.client[29] 	avg_time[29] 	0.004896128425
scalar tree_4_3_u06_r9_network.client[30] 	hdistance[30] 	3.0405981121043
scalar tree_4_3_u06_r9_network.client[30] 	downloads[30] 	11971
scalar tree_4_3_u06_r9_network.client[30] 	avg_time[30] 	0.004865594718
scalar tree_4_3_u06_r9_network.client[31] 	hdistance[31] 	3.0835517970402
scalar tree_4_3_u06_r9_network.client[31] 	downloads[31] 	11825
scalar tree_4_3_u06_r9_network.client[31] 	avg_time[31] 	0.004857333808
scalar tree_4_3_u06_r9_network.client[32] 	hdistance[32] 	2.9522608841822
scalar tree_4_3_u06_r9_network.client[32] 	downloads[32] 	11898
scalar tree_4_3_u06_r9_network.client[32] 	avg_time[32] 	0.004686615351
scalar tree_4_3_u06_r9_network.client[33] 	hdistance[33] 	3.0051251890438
scalar tree_4_3_u06_r9_network.client[33] 	downloads[33] 	11902
scalar tree_4_3_u06_r9_network.client[33] 	avg_time[33] 	0.004696566105
scalar tree_4_3_u06_r9_network.client[34] 	hdistance[34] 	2.9536928487691
scalar tree_4_3_u06_r9_network.client[34] 	downloads[34] 	11942
scalar tree_4_3_u06_r9_network.client[34] 	avg_time[34] 	0.004688569307
scalar tree_4_3_u06_r9_network.client[35] 	hdistance[35] 	3.0145083734041
scalar tree_4_3_u06_r9_network.client[35] 	downloads[35] 	12062
scalar tree_4_3_u06_r9_network.client[35] 	avg_time[35] 	0.004817378948
scalar tree_4_3_u06_r9_network.client[36] 	hdistance[36] 	3.0450037503125
scalar tree_4_3_u06_r9_network.client[36] 	downloads[36] 	11999
scalar tree_4_3_u06_r9_network.client[36] 	avg_time[36] 	0.004858307122
scalar tree_4_3_u06_r9_network.client[37] 	hdistance[37] 	3.0188821752266
scalar tree_4_3_u06_r9_network.client[37] 	downloads[37] 	11916
scalar tree_4_3_u06_r9_network.client[37] 	avg_time[37] 	0.004720628062
scalar tree_4_3_u06_r9_network.client[38] 	hdistance[38] 	2.9426799631275
scalar tree_4_3_u06_r9_network.client[38] 	downloads[38] 	11933
scalar tree_4_3_u06_r9_network.client[38] 	avg_time[38] 	0.004666881587
scalar tree_4_3_u06_r9_network.client[39] 	hdistance[39] 	3.0928083902114
scalar tree_4_3_u06_r9_network.client[39] 	downloads[39] 	12014
scalar tree_4_3_u06_r9_network.client[39] 	avg_time[39] 	0.004895951715
