version 2
run General-133-20160819-17:03:21-23511
attr a 0.9
attr cd lce
attr configname General
attr cr lru
attr datetime 20160819-17:03:21
attr experiment General
attr fsize 1
attr inifile hw5115/scenario_A/NRR-LCE.ini
attr iterationvars "$name=tree_4_3, $un=06, $rep=14, $cd=lce, $cr=lru, $fsize=1, $a=0.9, $sl=nrr, $ttl=1000, $variance=0.05"
attr iterationvars2 "$name=tree_4_3, $un=06, $rep=14, $cd=lce, $cr=lru, $fsize=1, $a=0.9, $sl=nrr, $ttl=1000, $variance=0.05, $repetition=0"
attr measurement "$name=tree_4_3, $un=06, $rep=14, $cd=lce, $cr=lru, $fsize=1, $a=0.9, $sl=nrr, $ttl=1000, $variance=0.05"
attr name tree_4_3
attr network networks.${name}_u${un}_r${rep}_network
attr processid 23511
attr rep 14
attr repetition 0
attr replication #0
attr resultdir results
attr runnumber 133
attr seedset 14
attr sl nrr
attr ttl 1000
attr un 06
attr variance 0.05

scalar . 	a 	0.9
scalar . 	fsize 	1
scalar . 	rep 	14
scalar . 	ttl 	1000
scalar . 	un 	06
scalar . 	variance 	0.05
scalar tree_4_3_u06_r14_network.content_distribution 	repo-0 	0
scalar tree_4_3_u06_r14_network.content_distribution 	client-0 	13
scalar tree_4_3_u06_r14_network.content_distribution 	client-1 	14
scalar tree_4_3_u06_r14_network.content_distribution 	client-2 	15
scalar tree_4_3_u06_r14_network.content_distribution 	client-3 	16
scalar tree_4_3_u06_r14_network.content_distribution 	client-4 	17
scalar tree_4_3_u06_r14_network.content_distribution 	client-5 	18
scalar tree_4_3_u06_r14_network.content_distribution 	client-6 	19
scalar tree_4_3_u06_r14_network.content_distribution 	client-7 	20
scalar tree_4_3_u06_r14_network.content_distribution 	client-8 	21
scalar tree_4_3_u06_r14_network.content_distribution 	client-9 	22
scalar tree_4_3_u06_r14_network.content_distribution 	client-10 	23
scalar tree_4_3_u06_r14_network.content_distribution 	client-11 	24
scalar tree_4_3_u06_r14_network.content_distribution 	client-12 	25
scalar tree_4_3_u06_r14_network.content_distribution 	client-13 	26
scalar tree_4_3_u06_r14_network.content_distribution 	client-14 	27
scalar tree_4_3_u06_r14_network.content_distribution 	client-15 	28
scalar tree_4_3_u06_r14_network.content_distribution 	client-16 	29
scalar tree_4_3_u06_r14_network.content_distribution 	client-17 	30
scalar tree_4_3_u06_r14_network.content_distribution 	client-18 	31
scalar tree_4_3_u06_r14_network.content_distribution 	client-19 	32
scalar tree_4_3_u06_r14_network.content_distribution 	client-20 	33
scalar tree_4_3_u06_r14_network.content_distribution 	client-21 	34
scalar tree_4_3_u06_r14_network.content_distribution 	client-22 	35
scalar tree_4_3_u06_r14_network.content_distribution 	client-23 	36
scalar tree_4_3_u06_r14_network.content_distribution 	client-24 	37
scalar tree_4_3_u06_r14_network.content_distribution 	client-25 	38
scalar tree_4_3_u06_r14_network.content_distribution 	client-26 	39
scalar tree_4_3_u06_r14_network.content_distribution 	repo-0_card 	100000
scalar tree_4_3_u06_r14_network.content_distribution 	repo-0_price 	0
scalar tree_4_3_u06_r14_network.statistics 	stabilization_time 	483.4
scalar tree_4_3_u06_r14_network.statistics 	p_hit 	0.19912978910819
scalar tree_4_3_u06_r14_network.statistics 	interests 	27707.8
scalar tree_4_3_u06_r14_network.statistics 	data 	19600.875
scalar tree_4_3_u06_r14_network.statistics 	hdistance 	3.0256211625663
scalar tree_4_3_u06_r14_network.statistics 	avg_time 	0.004835539301
scalar tree_4_3_u06_r14_network.statistics 	downloads 	324264
scalar tree_4_3_u06_r14_network.statistics 	total_cost 	0
scalar tree_4_3_u06_r14_network.statistics 	total_replicas 	100000
scalar tree_4_3_u06_r14_network.statistics 	inner_hit 	0.39211876742407
scalar tree_4_3_u06_r14_network.node[0].core_layer 	interests[0] 	197638
scalar tree_4_3_u06_r14_network.node[0].core_layer 	repo_load[0] 	197114
scalar tree_4_3_u06_r14_network.node[0].core_layer 	data[0] 	0
scalar tree_4_3_u06_r14_network.node[0].core_layer 	repo_int[0] 	197114
scalar tree_4_3_u06_r14_network.node[0].content_store 	p_hit[0] 	0.0026513119946569
scalar tree_4_3_u06_r14_network.node[0].content_store 	hits[0] 	524
scalar tree_4_3_u06_r14_network.node[0].content_store 	misses[0] 	197114
scalar tree_4_3_u06_r14_network.node[0].content_store 	decision_yes[0] 	197114
scalar tree_4_3_u06_r14_network.node[0].content_store 	decision_no[0] 	0
scalar tree_4_3_u06_r14_network.node[0].content_store 	decision_ratio[0] 	1
scalar tree_4_3_u06_r14_network.node[1].core_layer 	interests[1] 	129576
scalar tree_4_3_u06_r14_network.node[1].core_layer 	data[1] 	128330
scalar tree_4_3_u06_r14_network.node[1].content_store 	p_hit[1] 	0.009569673396308
scalar tree_4_3_u06_r14_network.node[1].content_store 	hits[1] 	1240
scalar tree_4_3_u06_r14_network.node[1].content_store 	misses[1] 	128336
scalar tree_4_3_u06_r14_network.node[1].content_store 	decision_yes[1] 	128310
scalar tree_4_3_u06_r14_network.node[1].content_store 	decision_no[1] 	0
scalar tree_4_3_u06_r14_network.node[1].content_store 	decision_ratio[1] 	1
scalar tree_4_3_u06_r14_network.node[2].core_layer 	interests[2] 	71600
scalar tree_4_3_u06_r14_network.node[2].core_layer 	data[2] 	69978
scalar tree_4_3_u06_r14_network.node[2].content_store 	p_hit[2] 	0.022611731843575
scalar tree_4_3_u06_r14_network.node[2].content_store 	hits[2] 	1619
scalar tree_4_3_u06_r14_network.node[2].content_store 	misses[2] 	69981
scalar tree_4_3_u06_r14_network.node[2].content_store 	decision_yes[2] 	69972
scalar tree_4_3_u06_r14_network.node[2].content_store 	decision_no[2] 	0
scalar tree_4_3_u06_r14_network.node[2].content_store 	decision_ratio[2] 	1
scalar tree_4_3_u06_r14_network.node[3].core_layer 	interests[3] 	36900
scalar tree_4_3_u06_r14_network.node[3].core_layer 	data[3] 	33746
scalar tree_4_3_u06_r14_network.node[3].content_store 	p_hit[3] 	0.08550135501355
scalar tree_4_3_u06_r14_network.node[3].content_store 	hits[3] 	3155
scalar tree_4_3_u06_r14_network.node[3].content_store 	misses[3] 	33745
scalar tree_4_3_u06_r14_network.node[3].content_store 	decision_yes[3] 	33742
scalar tree_4_3_u06_r14_network.node[3].content_store 	decision_no[3] 	0
scalar tree_4_3_u06_r14_network.node[3].content_store 	decision_ratio[3] 	1
scalar tree_4_3_u06_r14_network.node[4].core_layer 	interests[4] 	38941
scalar tree_4_3_u06_r14_network.node[4].core_layer 	data[4] 	37319
scalar tree_4_3_u06_r14_network.node[4].content_store 	p_hit[4] 	0.041601396985183
scalar tree_4_3_u06_r14_network.node[4].content_store 	hits[4] 	1620
scalar tree_4_3_u06_r14_network.node[4].content_store 	misses[4] 	37321
scalar tree_4_3_u06_r14_network.node[4].content_store 	decision_yes[4] 	37317
scalar tree_4_3_u06_r14_network.node[4].content_store 	decision_no[4] 	0
scalar tree_4_3_u06_r14_network.node[4].content_store 	decision_ratio[4] 	1
scalar tree_4_3_u06_r14_network.node[5].core_layer 	interests[5] 	42548
scalar tree_4_3_u06_r14_network.node[5].core_layer 	data[5] 	39954
scalar tree_4_3_u06_r14_network.node[5].content_store 	p_hit[5] 	0.060848923568675
scalar tree_4_3_u06_r14_network.node[5].content_store 	hits[5] 	2589
scalar tree_4_3_u06_r14_network.node[5].content_store 	misses[5] 	39959
scalar tree_4_3_u06_r14_network.node[5].content_store 	decision_yes[5] 	39946
scalar tree_4_3_u06_r14_network.node[5].content_store 	decision_no[5] 	0
scalar tree_4_3_u06_r14_network.node[5].content_store 	decision_ratio[5] 	1
scalar tree_4_3_u06_r14_network.node[6].core_layer 	interests[6] 	21066
scalar tree_4_3_u06_r14_network.node[6].core_layer 	data[6] 	14951
scalar tree_4_3_u06_r14_network.node[6].content_store 	p_hit[6] 	0.29023070350328
scalar tree_4_3_u06_r14_network.node[6].content_store 	hits[6] 	6114
scalar tree_4_3_u06_r14_network.node[6].content_store 	misses[6] 	14952
scalar tree_4_3_u06_r14_network.node[6].content_store 	decision_yes[6] 	14950
scalar tree_4_3_u06_r14_network.node[6].content_store 	decision_no[6] 	0
scalar tree_4_3_u06_r14_network.node[6].content_store 	decision_ratio[6] 	1
scalar tree_4_3_u06_r14_network.node[7].core_layer 	interests[7] 	41860
scalar tree_4_3_u06_r14_network.node[7].core_layer 	data[7] 	39443
scalar tree_4_3_u06_r14_network.node[7].content_store 	p_hit[7] 	0.057692307692308
scalar tree_4_3_u06_r14_network.node[7].content_store 	hits[7] 	2415
scalar tree_4_3_u06_r14_network.node[7].content_store 	misses[7] 	39445
scalar tree_4_3_u06_r14_network.node[7].content_store 	decision_yes[7] 	39439
scalar tree_4_3_u06_r14_network.node[7].content_store 	decision_no[7] 	0
scalar tree_4_3_u06_r14_network.node[7].content_store 	decision_ratio[7] 	1
scalar tree_4_3_u06_r14_network.node[8].core_layer 	interests[8] 	42208
scalar tree_4_3_u06_r14_network.node[8].core_layer 	data[8] 	40013
scalar tree_4_3_u06_r14_network.node[8].content_store 	p_hit[8] 	0.051933282789992
scalar tree_4_3_u06_r14_network.node[8].content_store 	hits[8] 	2192
scalar tree_4_3_u06_r14_network.node[8].content_store 	misses[8] 	40016
scalar tree_4_3_u06_r14_network.node[8].content_store 	decision_yes[8] 	40011
scalar tree_4_3_u06_r14_network.node[8].content_store 	decision_no[8] 	0
scalar tree_4_3_u06_r14_network.node[8].content_store 	decision_ratio[8] 	1
scalar tree_4_3_u06_r14_network.node[9].core_layer 	interests[9] 	18352
scalar tree_4_3_u06_r14_network.node[9].core_layer 	data[9] 	13097
scalar tree_4_3_u06_r14_network.node[9].content_store 	p_hit[9] 	0.28629032258065
scalar tree_4_3_u06_r14_network.node[9].content_store 	hits[9] 	5254
scalar tree_4_3_u06_r14_network.node[9].content_store 	misses[9] 	13098
scalar tree_4_3_u06_r14_network.node[9].content_store 	decision_yes[9] 	13096
scalar tree_4_3_u06_r14_network.node[9].content_store 	decision_no[9] 	0
scalar tree_4_3_u06_r14_network.node[9].content_store 	decision_ratio[9] 	1
scalar tree_4_3_u06_r14_network.node[10].core_layer 	interests[10] 	33328
scalar tree_4_3_u06_r14_network.node[10].core_layer 	data[10] 	30623
scalar tree_4_3_u06_r14_network.node[10].content_store 	p_hit[10] 	0.081072971675468
scalar tree_4_3_u06_r14_network.node[10].content_store 	hits[10] 	2702
scalar tree_4_3_u06_r14_network.node[10].content_store 	misses[10] 	30626
scalar tree_4_3_u06_r14_network.node[10].content_store 	decision_yes[10] 	30622
scalar tree_4_3_u06_r14_network.node[10].content_store 	decision_no[10] 	0
scalar tree_4_3_u06_r14_network.node[10].content_store 	decision_ratio[10] 	1
scalar tree_4_3_u06_r14_network.node[11].core_layer 	interests[11] 	36225
scalar tree_4_3_u06_r14_network.node[11].core_layer 	data[11] 	33048
scalar tree_4_3_u06_r14_network.node[11].content_store 	p_hit[11] 	0.087674258109041
scalar tree_4_3_u06_r14_network.node[11].content_store 	hits[11] 	3176
scalar tree_4_3_u06_r14_network.node[11].content_store 	misses[11] 	33049
scalar tree_4_3_u06_r14_network.node[11].content_store 	decision_yes[11] 	33045
scalar tree_4_3_u06_r14_network.node[11].content_store 	decision_no[11] 	0
scalar tree_4_3_u06_r14_network.node[11].content_store 	decision_ratio[11] 	1
scalar tree_4_3_u06_r14_network.node[12].core_layer 	interests[12] 	32304
scalar tree_4_3_u06_r14_network.node[12].core_layer 	data[12] 	31118
scalar tree_4_3_u06_r14_network.node[12].content_store 	p_hit[12] 	0.036651807825656
scalar tree_4_3_u06_r14_network.node[12].content_store 	hits[12] 	1184
scalar tree_4_3_u06_r14_network.node[12].content_store 	misses[12] 	31120
scalar tree_4_3_u06_r14_network.node[12].content_store 	decision_yes[12] 	31112
scalar tree_4_3_u06_r14_network.node[12].content_store 	decision_no[12] 	0
scalar tree_4_3_u06_r14_network.node[12].content_store 	decision_ratio[12] 	1
scalar tree_4_3_u06_r14_network.node[13].core_layer 	interests[13] 	12726
scalar tree_4_3_u06_r14_network.node[13].core_layer 	data[13] 	9962
scalar tree_4_3_u06_r14_network.node[13].content_store 	p_hit[13] 	0.21719314788622
scalar tree_4_3_u06_r14_network.node[13].content_store 	hits[13] 	2764
scalar tree_4_3_u06_r14_network.node[13].content_store 	misses[13] 	9962
scalar tree_4_3_u06_r14_network.node[13].content_store 	decision_yes[13] 	9962
scalar tree_4_3_u06_r14_network.node[13].content_store 	decision_no[13] 	0
scalar tree_4_3_u06_r14_network.node[13].content_store 	decision_ratio[13] 	1
scalar tree_4_3_u06_r14_network.node[14].core_layer 	interests[14] 	12888
scalar tree_4_3_u06_r14_network.node[14].core_layer 	data[14] 	10000
scalar tree_4_3_u06_r14_network.node[14].content_store 	p_hit[14] 	0.22408441961515
scalar tree_4_3_u06_r14_network.node[14].content_store 	hits[14] 	2888
scalar tree_4_3_u06_r14_network.node[14].content_store 	misses[14] 	10000
scalar tree_4_3_u06_r14_network.node[14].content_store 	decision_yes[14] 	10000
scalar tree_4_3_u06_r14_network.node[14].content_store 	decision_no[14] 	0
scalar tree_4_3_u06_r14_network.node[14].content_store 	decision_ratio[14] 	1
scalar tree_4_3_u06_r14_network.node[15].core_layer 	interests[15] 	14149
scalar tree_4_3_u06_r14_network.node[15].core_layer 	data[15] 	10049
scalar tree_4_3_u06_r14_network.node[15].content_store 	p_hit[15] 	0.28970245247014
scalar tree_4_3_u06_r14_network.node[15].content_store 	hits[15] 	4099
scalar tree_4_3_u06_r14_network.node[15].content_store 	misses[15] 	10050
scalar tree_4_3_u06_r14_network.node[15].content_store 	decision_yes[15] 	10049
scalar tree_4_3_u06_r14_network.node[15].content_store 	decision_no[15] 	0
scalar tree_4_3_u06_r14_network.node[15].content_store 	decision_ratio[15] 	1
scalar tree_4_3_u06_r14_network.node[16].core_layer 	interests[16] 	13596
scalar tree_4_3_u06_r14_network.node[16].core_layer 	data[16] 	10249
scalar tree_4_3_u06_r14_network.node[16].content_store 	p_hit[16] 	0.24610179464548
scalar tree_4_3_u06_r14_network.node[16].content_store 	hits[16] 	3346
scalar tree_4_3_u06_r14_network.node[16].content_store 	misses[16] 	10250
scalar tree_4_3_u06_r14_network.node[16].content_store 	decision_yes[16] 	10249
scalar tree_4_3_u06_r14_network.node[16].content_store 	decision_no[16] 	0
scalar tree_4_3_u06_r14_network.node[16].content_store 	decision_ratio[16] 	1
scalar tree_4_3_u06_r14_network.node[17].core_layer 	interests[17] 	13204
scalar tree_4_3_u06_r14_network.node[17].core_layer 	data[17] 	9993
scalar tree_4_3_u06_r14_network.node[17].content_store 	p_hit[17] 	0.24318388367161
scalar tree_4_3_u06_r14_network.node[17].content_store 	hits[17] 	3211
scalar tree_4_3_u06_r14_network.node[17].content_store 	misses[17] 	9993
scalar tree_4_3_u06_r14_network.node[17].content_store 	decision_yes[17] 	9993
scalar tree_4_3_u06_r14_network.node[17].content_store 	decision_no[17] 	0
scalar tree_4_3_u06_r14_network.node[17].content_store 	decision_ratio[17] 	1
scalar tree_4_3_u06_r14_network.node[18].core_layer 	interests[18] 	14218
scalar tree_4_3_u06_r14_network.node[18].core_layer 	data[18] 	9939
scalar tree_4_3_u06_r14_network.node[18].content_store 	p_hit[18] 	0.3008862005908
scalar tree_4_3_u06_r14_network.node[18].content_store 	hits[18] 	4278
scalar tree_4_3_u06_r14_network.node[18].content_store 	misses[18] 	9940
scalar tree_4_3_u06_r14_network.node[18].content_store 	decision_yes[18] 	9939
scalar tree_4_3_u06_r14_network.node[18].content_store 	decision_no[18] 	0
scalar tree_4_3_u06_r14_network.node[18].content_store 	decision_ratio[18] 	1
scalar tree_4_3_u06_r14_network.node[19].core_layer 	interests[19] 	14201
scalar tree_4_3_u06_r14_network.node[19].core_layer 	data[19] 	10095
scalar tree_4_3_u06_r14_network.node[19].content_store 	p_hit[19] 	0.28913456798817
scalar tree_4_3_u06_r14_network.node[19].content_store 	hits[19] 	4106
scalar tree_4_3_u06_r14_network.node[19].content_store 	misses[19] 	10095
scalar tree_4_3_u06_r14_network.node[19].content_store 	decision_yes[19] 	10095
scalar tree_4_3_u06_r14_network.node[19].content_store 	decision_no[19] 	0
scalar tree_4_3_u06_r14_network.node[19].content_store 	decision_ratio[19] 	1
scalar tree_4_3_u06_r14_network.node[20].core_layer 	interests[20] 	14194
scalar tree_4_3_u06_r14_network.node[20].core_layer 	data[20] 	10007
scalar tree_4_3_u06_r14_network.node[20].content_store 	p_hit[20] 	0.29498379597013
scalar tree_4_3_u06_r14_network.node[20].content_store 	hits[20] 	4187
scalar tree_4_3_u06_r14_network.node[20].content_store 	misses[20] 	10007
scalar tree_4_3_u06_r14_network.node[20].content_store 	decision_yes[20] 	10007
scalar tree_4_3_u06_r14_network.node[20].content_store 	decision_no[20] 	0
scalar tree_4_3_u06_r14_network.node[20].content_store 	decision_ratio[20] 	1
scalar tree_4_3_u06_r14_network.node[21].core_layer 	interests[21] 	12920
scalar tree_4_3_u06_r14_network.node[21].core_layer 	data[21] 	10300
scalar tree_4_3_u06_r14_network.node[21].content_store 	p_hit[21] 	0.20278637770898
scalar tree_4_3_u06_r14_network.node[21].content_store 	hits[21] 	2620
scalar tree_4_3_u06_r14_network.node[21].content_store 	misses[21] 	10300
scalar tree_4_3_u06_r14_network.node[21].content_store 	decision_yes[21] 	10300
scalar tree_4_3_u06_r14_network.node[21].content_store 	decision_no[21] 	0
scalar tree_4_3_u06_r14_network.node[21].content_store 	decision_ratio[21] 	1
scalar tree_4_3_u06_r14_network.node[22].core_layer 	interests[22] 	13252
scalar tree_4_3_u06_r14_network.node[22].core_layer 	data[22] 	10086
scalar tree_4_3_u06_r14_network.node[22].content_store 	p_hit[22] 	0.23875641412617
scalar tree_4_3_u06_r14_network.node[22].content_store 	hits[22] 	3164
scalar tree_4_3_u06_r14_network.node[22].content_store 	misses[22] 	10088
scalar tree_4_3_u06_r14_network.node[22].content_store 	decision_yes[22] 	10086
scalar tree_4_3_u06_r14_network.node[22].content_store 	decision_no[22] 	0
scalar tree_4_3_u06_r14_network.node[22].content_store 	decision_ratio[22] 	1
scalar tree_4_3_u06_r14_network.node[23].core_layer 	interests[23] 	14561
scalar tree_4_3_u06_r14_network.node[23].core_layer 	data[23] 	10033
scalar tree_4_3_u06_r14_network.node[23].content_store 	p_hit[23] 	0.31096765332051
scalar tree_4_3_u06_r14_network.node[23].content_store 	hits[23] 	4528
scalar tree_4_3_u06_r14_network.node[23].content_store 	misses[23] 	10033
scalar tree_4_3_u06_r14_network.node[23].content_store 	decision_yes[23] 	10033
scalar tree_4_3_u06_r14_network.node[23].content_store 	decision_no[23] 	0
scalar tree_4_3_u06_r14_network.node[23].content_store 	decision_ratio[23] 	1
scalar tree_4_3_u06_r14_network.node[24].core_layer 	interests[24] 	13986
scalar tree_4_3_u06_r14_network.node[24].core_layer 	data[24] 	10088
scalar tree_4_3_u06_r14_network.node[24].content_store 	p_hit[24] 	0.27870727870728
scalar tree_4_3_u06_r14_network.node[24].content_store 	hits[24] 	3898
scalar tree_4_3_u06_r14_network.node[24].content_store 	misses[24] 	10088
scalar tree_4_3_u06_r14_network.node[24].content_store 	decision_yes[24] 	10088
scalar tree_4_3_u06_r14_network.node[24].content_store 	decision_no[24] 	0
scalar tree_4_3_u06_r14_network.node[24].content_store 	decision_ratio[24] 	1
scalar tree_4_3_u06_r14_network.node[25].core_layer 	interests[25] 	13104
scalar tree_4_3_u06_r14_network.node[25].core_layer 	data[25] 	9974
scalar tree_4_3_u06_r14_network.node[25].content_store 	p_hit[25] 	0.23878205128205
scalar tree_4_3_u06_r14_network.node[25].content_store 	hits[25] 	3129
scalar tree_4_3_u06_r14_network.node[25].content_store 	misses[25] 	9975
scalar tree_4_3_u06_r14_network.node[25].content_store 	decision_yes[25] 	9974
scalar tree_4_3_u06_r14_network.node[25].content_store 	decision_no[25] 	0
scalar tree_4_3_u06_r14_network.node[25].content_store 	decision_ratio[25] 	1
scalar tree_4_3_u06_r14_network.node[26].core_layer 	interests[26] 	13433
scalar tree_4_3_u06_r14_network.node[26].core_layer 	data[26] 	10301
scalar tree_4_3_u06_r14_network.node[26].content_store 	p_hit[26] 	0.2331571503015
scalar tree_4_3_u06_r14_network.node[26].content_store 	hits[26] 	3132
scalar tree_4_3_u06_r14_network.node[26].content_store 	misses[26] 	10301
scalar tree_4_3_u06_r14_network.node[26].content_store 	decision_yes[26] 	10301
scalar tree_4_3_u06_r14_network.node[26].content_store 	decision_no[26] 	0
scalar tree_4_3_u06_r14_network.node[26].content_store 	decision_ratio[26] 	1
scalar tree_4_3_u06_r14_network.node[27].core_layer 	interests[27] 	13114
scalar tree_4_3_u06_r14_network.node[27].core_layer 	data[27] 	10043
scalar tree_4_3_u06_r14_network.node[27].content_store 	p_hit[27] 	0.23410096080525
scalar tree_4_3_u06_r14_network.node[27].content_store 	hits[27] 	3070
scalar tree_4_3_u06_r14_network.node[27].content_store 	misses[27] 	10044
scalar tree_4_3_u06_r14_network.node[27].content_store 	decision_yes[27] 	10043
scalar tree_4_3_u06_r14_network.node[27].content_store 	decision_no[27] 	0
scalar tree_4_3_u06_r14_network.node[27].content_store 	decision_ratio[27] 	1
scalar tree_4_3_u06_r14_network.node[28].core_layer 	interests[28] 	14112
scalar tree_4_3_u06_r14_network.node[28].core_layer 	data[28] 	10203
scalar tree_4_3_u06_r14_network.node[28].content_store 	p_hit[28] 	0.27692743764172
scalar tree_4_3_u06_r14_network.node[28].content_store 	hits[28] 	3908
scalar tree_4_3_u06_r14_network.node[28].content_store 	misses[28] 	10204
scalar tree_4_3_u06_r14_network.node[28].content_store 	decision_yes[28] 	10203
scalar tree_4_3_u06_r14_network.node[28].content_store 	decision_no[28] 	0
scalar tree_4_3_u06_r14_network.node[28].content_store 	decision_ratio[28] 	1
scalar tree_4_3_u06_r14_network.node[29].core_layer 	interests[29] 	14406
scalar tree_4_3_u06_r14_network.node[29].core_layer 	data[29] 	9969
scalar tree_4_3_u06_r14_network.node[29].content_store 	p_hit[29] 	0.30799666805498
scalar tree_4_3_u06_r14_network.node[29].content_store 	hits[29] 	4437
scalar tree_4_3_u06_r14_network.node[29].content_store 	misses[29] 	9969
scalar tree_4_3_u06_r14_network.node[29].content_store 	decision_yes[29] 	9969
scalar tree_4_3_u06_r14_network.node[29].content_store 	decision_no[29] 	0
scalar tree_4_3_u06_r14_network.node[29].content_store 	decision_ratio[29] 	1
scalar tree_4_3_u06_r14_network.node[30].core_layer 	interests[30] 	12485
scalar tree_4_3_u06_r14_network.node[30].core_layer 	data[30] 	10113
scalar tree_4_3_u06_r14_network.node[30].content_store 	p_hit[30] 	0.18990788946736
scalar tree_4_3_u06_r14_network.node[30].content_store 	hits[30] 	2371
scalar tree_4_3_u06_r14_network.node[30].content_store 	misses[30] 	10114
scalar tree_4_3_u06_r14_network.node[30].content_store 	decision_yes[30] 	10113
scalar tree_4_3_u06_r14_network.node[30].content_store 	decision_no[30] 	0
scalar tree_4_3_u06_r14_network.node[30].content_store 	decision_ratio[30] 	1
scalar tree_4_3_u06_r14_network.node[31].core_layer 	interests[31] 	13154
scalar tree_4_3_u06_r14_network.node[31].core_layer 	data[31] 	10084
scalar tree_4_3_u06_r14_network.node[31].content_store 	p_hit[31] 	0.2332370381633
scalar tree_4_3_u06_r14_network.node[31].content_store 	hits[31] 	3068
scalar tree_4_3_u06_r14_network.node[31].content_store 	misses[31] 	10086
scalar tree_4_3_u06_r14_network.node[31].content_store 	decision_yes[31] 	10084
scalar tree_4_3_u06_r14_network.node[31].content_store 	decision_no[31] 	0
scalar tree_4_3_u06_r14_network.node[31].content_store 	decision_ratio[31] 	1
scalar tree_4_3_u06_r14_network.node[32].core_layer 	interests[32] 	14829
scalar tree_4_3_u06_r14_network.node[32].core_layer 	data[32] 	10053
scalar tree_4_3_u06_r14_network.node[32].content_store 	p_hit[32] 	0.32207161642727
scalar tree_4_3_u06_r14_network.node[32].content_store 	hits[32] 	4776
scalar tree_4_3_u06_r14_network.node[32].content_store 	misses[32] 	10053
scalar tree_4_3_u06_r14_network.node[32].content_store 	decision_yes[32] 	10053
scalar tree_4_3_u06_r14_network.node[32].content_store 	decision_no[32] 	0
scalar tree_4_3_u06_r14_network.node[32].content_store 	decision_ratio[32] 	1
scalar tree_4_3_u06_r14_network.node[33].core_layer 	interests[33] 	13300
scalar tree_4_3_u06_r14_network.node[33].core_layer 	data[33] 	10203
scalar tree_4_3_u06_r14_network.node[33].content_store 	p_hit[33] 	0.23285714285714
scalar tree_4_3_u06_r14_network.node[33].content_store 	hits[33] 	3097
scalar tree_4_3_u06_r14_network.node[33].content_store 	misses[33] 	10203
scalar tree_4_3_u06_r14_network.node[33].content_store 	decision_yes[33] 	10203
scalar tree_4_3_u06_r14_network.node[33].content_store 	decision_no[33] 	0
scalar tree_4_3_u06_r14_network.node[33].content_store 	decision_ratio[33] 	1
scalar tree_4_3_u06_r14_network.node[34].core_layer 	interests[34] 	13573
scalar tree_4_3_u06_r14_network.node[34].core_layer 	data[34] 	10202
scalar tree_4_3_u06_r14_network.node[34].content_store 	p_hit[34] 	0.24828704044795
scalar tree_4_3_u06_r14_network.node[34].content_store 	hits[34] 	3370
scalar tree_4_3_u06_r14_network.node[34].content_store 	misses[34] 	10203
scalar tree_4_3_u06_r14_network.node[34].content_store 	decision_yes[34] 	10202
scalar tree_4_3_u06_r14_network.node[34].content_store 	decision_no[34] 	0
scalar tree_4_3_u06_r14_network.node[34].content_store 	decision_ratio[34] 	1
scalar tree_4_3_u06_r14_network.node[35].core_layer 	interests[35] 	13535
scalar tree_4_3_u06_r14_network.node[35].core_layer 	data[35] 	10175
scalar tree_4_3_u06_r14_network.node[35].content_store 	p_hit[35] 	0.24817140746214
scalar tree_4_3_u06_r14_network.node[35].content_store 	hits[35] 	3359
scalar tree_4_3_u06_r14_network.node[35].content_store 	misses[35] 	10176
scalar tree_4_3_u06_r14_network.node[35].content_store 	decision_yes[35] 	10175
scalar tree_4_3_u06_r14_network.node[35].content_store 	decision_no[35] 	0
scalar tree_4_3_u06_r14_network.node[35].content_store 	decision_ratio[35] 	1
scalar tree_4_3_u06_r14_network.node[36].core_layer 	interests[36] 	13292
scalar tree_4_3_u06_r14_network.node[36].core_layer 	data[36] 	9899
scalar tree_4_3_u06_r14_network.node[36].content_store 	p_hit[36] 	0.25526632560939
scalar tree_4_3_u06_r14_network.node[36].content_store 	hits[36] 	3393
scalar tree_4_3_u06_r14_network.node[36].content_store 	misses[36] 	9899
scalar tree_4_3_u06_r14_network.node[36].content_store 	decision_yes[36] 	9899
scalar tree_4_3_u06_r14_network.node[36].content_store 	decision_no[36] 	0
scalar tree_4_3_u06_r14_network.node[36].content_store 	decision_ratio[36] 	1
scalar tree_4_3_u06_r14_network.node[37].core_layer 	interests[37] 	13304
scalar tree_4_3_u06_r14_network.node[37].core_layer 	data[37] 	10256
scalar tree_4_3_u06_r14_network.node[37].content_store 	p_hit[37] 	0.2290288634997
scalar tree_4_3_u06_r14_network.node[37].content_store 	hits[37] 	3047
scalar tree_4_3_u06_r14_network.node[37].content_store 	misses[37] 	10257
scalar tree_4_3_u06_r14_network.node[37].content_store 	decision_yes[37] 	10256
scalar tree_4_3_u06_r14_network.node[37].content_store 	decision_no[37] 	0
scalar tree_4_3_u06_r14_network.node[37].content_store 	decision_ratio[37] 	1
scalar tree_4_3_u06_r14_network.node[38].core_layer 	interests[38] 	13169
scalar tree_4_3_u06_r14_network.node[38].core_layer 	data[38] 	10111
scalar tree_4_3_u06_r14_network.node[38].content_store 	p_hit[38] 	0.23236388488116
scalar tree_4_3_u06_r14_network.node[38].content_store 	hits[38] 	3060
scalar tree_4_3_u06_r14_network.node[38].content_store 	misses[38] 	10109
scalar tree_4_3_u06_r14_network.node[38].content_store 	decision_yes[38] 	10111
scalar tree_4_3_u06_r14_network.node[38].content_store 	decision_no[38] 	0
scalar tree_4_3_u06_r14_network.node[38].content_store 	decision_ratio[38] 	1
scalar tree_4_3_u06_r14_network.node[39].core_layer 	interests[39] 	13061
scalar tree_4_3_u06_r14_network.node[39].core_layer 	data[39] 	10028
scalar tree_4_3_u06_r14_network.node[39].content_store 	p_hit[39] 	0.2322180537478
scalar tree_4_3_u06_r14_network.node[39].content_store 	hits[39] 	3033
scalar tree_4_3_u06_r14_network.node[39].content_store 	misses[39] 	10028
scalar tree_4_3_u06_r14_network.node[39].content_store 	decision_yes[39] 	10028
scalar tree_4_3_u06_r14_network.node[39].content_store 	decision_no[39] 	0
scalar tree_4_3_u06_r14_network.node[39].content_store 	decision_ratio[39] 	1
scalar tree_4_3_u06_r14_network.client[13] 	hdistance[13] 	3.0971186440678
scalar tree_4_3_u06_r14_network.client[13] 	downloads[13] 	11800
scalar tree_4_3_u06_r14_network.client[13] 	avg_time[13] 	0.004929827529
scalar tree_4_3_u06_r14_network.client[14] 	hdistance[14] 	3.0843474611834
scalar tree_4_3_u06_r14_network.client[14] 	downloads[14] 	11915
scalar tree_4_3_u06_r14_network.client[14] 	avg_time[14] 	0.004908091801
scalar tree_4_3_u06_r14_network.client[15] 	hdistance[15] 	2.932896483079
scalar tree_4_3_u06_r14_network.client[15] 	downloads[15] 	12056
scalar tree_4_3_u06_r14_network.client[15] 	avg_time[15] 	0.004662301923
scalar tree_4_3_u06_r14_network.client[16] 	hdistance[16] 	3.0551090700344
scalar tree_4_3_u06_r14_network.client[16] 	downloads[16] 	12194
scalar tree_4_3_u06_r14_network.client[16] 	avg_time[16] 	0.004907450702
scalar tree_4_3_u06_r14_network.client[17] 	hdistance[17] 	3.0707147696477
scalar tree_4_3_u06_r14_network.client[17] 	downloads[17] 	11808
scalar tree_4_3_u06_r14_network.client[17] 	avg_time[17] 	0.004929430815
scalar tree_4_3_u06_r14_network.client[18] 	hdistance[18] 	2.9206362565225
scalar tree_4_3_u06_r14_network.client[18] 	downloads[18] 	11882
scalar tree_4_3_u06_r14_network.client[18] 	avg_time[18] 	0.004659744961
scalar tree_4_3_u06_r14_network.client[19] 	hdistance[19] 	2.9267145333003
scalar tree_4_3_u06_r14_network.client[19] 	downloads[19] 	12117
scalar tree_4_3_u06_r14_network.client[19] 	avg_time[19] 	0.004662310352
scalar tree_4_3_u06_r14_network.client[20] 	hdistance[20] 	2.9450521709862
scalar tree_4_3_u06_r14_network.client[20] 	downloads[20] 	11884
scalar tree_4_3_u06_r14_network.client[20] 	avg_time[20] 	0.004692772931
scalar tree_4_3_u06_r14_network.client[21] 	hdistance[21] 	2.9949329846355
scalar tree_4_3_u06_r14_network.client[21] 	downloads[21] 	12236
scalar tree_4_3_u06_r14_network.client[21] 	avg_time[21] 	0.004799635956
scalar tree_4_3_u06_r14_network.client[22] 	hdistance[22] 	3.0708424049573
scalar tree_4_3_u06_r14_network.client[22] 	downloads[22] 	11942
scalar tree_4_3_u06_r14_network.client[22] 	avg_time[22] 	0.004927980178
scalar tree_4_3_u06_r14_network.client[23] 	hdistance[23] 	2.9595226172592
scalar tree_4_3_u06_r14_network.client[23] 	downloads[23] 	11982
scalar tree_4_3_u06_r14_network.client[23] 	avg_time[23] 	0.004707901294
scalar tree_4_3_u06_r14_network.client[24] 	hdistance[24] 	2.960807302571
scalar tree_4_3_u06_r14_network.client[24] 	downloads[24] 	11941
scalar tree_4_3_u06_r14_network.client[24] 	avg_time[24] 	0.004733073754
scalar tree_4_3_u06_r14_network.client[25] 	hdistance[25] 	3.0612829806963
scalar tree_4_3_u06_r14_network.client[25] 	downloads[25] 	11863
scalar tree_4_3_u06_r14_network.client[25] 	avg_time[25] 	0.004860587707
scalar tree_4_3_u06_r14_network.client[26] 	hdistance[26] 	3.0702415063447
scalar tree_4_3_u06_r14_network.client[26] 	downloads[26] 	12215
scalar tree_4_3_u06_r14_network.client[26] 	avg_time[26] 	0.004886939244
scalar tree_4_3_u06_r14_network.client[27] 	hdistance[27] 	3.0712250712251
scalar tree_4_3_u06_r14_network.client[27] 	downloads[27] 	11934
scalar tree_4_3_u06_r14_network.client[27] 	avg_time[27] 	0.004874669931
scalar tree_4_3_u06_r14_network.client[28] 	hdistance[28] 	2.9662346239577
scalar tree_4_3_u06_r14_network.client[28] 	downloads[28] 	12113
scalar tree_4_3_u06_r14_network.client[28] 	avg_time[28] 	0.004732218837
scalar tree_4_3_u06_r14_network.client[29] 	hdistance[29] 	2.9117671587024
scalar tree_4_3_u06_r14_network.client[29] 	downloads[29] 	11991
scalar tree_4_3_u06_r14_network.client[29] 	avg_time[29] 	0.00463053523
scalar tree_4_3_u06_r14_network.client[30] 	hdistance[30] 	3.0480455344438
scalar tree_4_3_u06_r14_network.client[30] 	downloads[30] 	11947
scalar tree_4_3_u06_r14_network.client[30] 	avg_time[30] 	0.004897636036
scalar tree_4_3_u06_r14_network.client[31] 	hdistance[31] 	3.0713927855711
scalar tree_4_3_u06_r14_network.client[31] 	downloads[31] 	11976
scalar tree_4_3_u06_r14_network.client[31] 	avg_time[31] 	0.004947561967
scalar tree_4_3_u06_r14_network.client[32] 	hdistance[32] 	2.9347073371805
scalar tree_4_3_u06_r14_network.client[32] 	downloads[32] 	12130
scalar tree_4_3_u06_r14_network.client[32] 	avg_time[32] 	0.004695792485
scalar tree_4_3_u06_r14_network.client[33] 	hdistance[33] 	3.0805518836748
scalar tree_4_3_u06_r14_network.client[33] 	downloads[33] 	12104
scalar tree_4_3_u06_r14_network.client[33] 	avg_time[33] 	0.004942699857
scalar tree_4_3_u06_r14_network.client[34] 	hdistance[34] 	3.0392898241
scalar tree_4_3_u06_r14_network.client[34] 	downloads[34] 	12166
scalar tree_4_3_u06_r14_network.client[34] 	avg_time[34] 	0.004876744395
scalar tree_4_3_u06_r14_network.client[35] 	hdistance[35] 	3.0540271793172
scalar tree_4_3_u06_r14_network.client[35] 	downloads[35] 	12068
scalar tree_4_3_u06_r14_network.client[35] 	avg_time[35] 	0.004908513553
scalar tree_4_3_u06_r14_network.client[36] 	hdistance[36] 	3.0534500339905
scalar tree_4_3_u06_r14_network.client[36] 	downloads[36] 	11768
scalar tree_4_3_u06_r14_network.client[36] 	avg_time[36] 	0.004901934532
scalar tree_4_3_u06_r14_network.client[37] 	hdistance[37] 	3.0976964548276
scalar tree_4_3_u06_r14_network.client[37] 	downloads[37] 	12242
scalar tree_4_3_u06_r14_network.client[37] 	avg_time[37] 	0.004947983767
scalar tree_4_3_u06_r14_network.client[38] 	hdistance[38] 	3.1078879561134
scalar tree_4_3_u06_r14_network.client[38] 	downloads[38] 	12031
scalar tree_4_3_u06_r14_network.client[38] 	avg_time[38] 	0.004968421135
scalar tree_4_3_u06_r14_network.client[39] 	hdistance[39] 	3.1052763608997
scalar tree_4_3_u06_r14_network.client[39] 	downloads[39] 	11959
scalar tree_4_3_u06_r14_network.client[39] 	avg_time[39] 	0.004966800263
