version 2
run General-134-20160819-17:04:25-23511
attr a 0.9
attr cd lce
attr configname General
attr cr lru
attr datetime 20160819-17:04:25
attr experiment General
attr fsize 1
attr inifile hw5115/scenario_A/NRR-LCE.ini
attr iterationvars "$name=tree_4_3, $un=06, $rep=15, $cd=lce, $cr=lru, $fsize=1, $a=0.9, $sl=nrr, $ttl=1000, $variance=0.05"
attr iterationvars2 "$name=tree_4_3, $un=06, $rep=15, $cd=lce, $cr=lru, $fsize=1, $a=0.9, $sl=nrr, $ttl=1000, $variance=0.05, $repetition=0"
attr measurement "$name=tree_4_3, $un=06, $rep=15, $cd=lce, $cr=lru, $fsize=1, $a=0.9, $sl=nrr, $ttl=1000, $variance=0.05"
attr name tree_4_3
attr network networks.${name}_u${un}_r${rep}_network
attr processid 23511
attr rep 15
attr repetition 0
attr replication #0
attr resultdir results
attr runnumber 134
attr seedset 15
attr sl nrr
attr ttl 1000
attr un 06
attr variance 0.05

scalar . 	a 	0.9
scalar . 	fsize 	1
scalar . 	rep 	15
scalar . 	ttl 	1000
scalar . 	un 	06
scalar . 	variance 	0.05
scalar tree_4_3_u06_r15_network.content_distribution 	repo-0 	0
scalar tree_4_3_u06_r15_network.content_distribution 	client-0 	13
scalar tree_4_3_u06_r15_network.content_distribution 	client-1 	14
scalar tree_4_3_u06_r15_network.content_distribution 	client-2 	15
scalar tree_4_3_u06_r15_network.content_distribution 	client-3 	16
scalar tree_4_3_u06_r15_network.content_distribution 	client-4 	17
scalar tree_4_3_u06_r15_network.content_distribution 	client-5 	18
scalar tree_4_3_u06_r15_network.content_distribution 	client-6 	19
scalar tree_4_3_u06_r15_network.content_distribution 	client-7 	20
scalar tree_4_3_u06_r15_network.content_distribution 	client-8 	21
scalar tree_4_3_u06_r15_network.content_distribution 	client-9 	22
scalar tree_4_3_u06_r15_network.content_distribution 	client-10 	23
scalar tree_4_3_u06_r15_network.content_distribution 	client-11 	24
scalar tree_4_3_u06_r15_network.content_distribution 	client-12 	25
scalar tree_4_3_u06_r15_network.content_distribution 	client-13 	26
scalar tree_4_3_u06_r15_network.content_distribution 	client-14 	27
scalar tree_4_3_u06_r15_network.content_distribution 	client-15 	28
scalar tree_4_3_u06_r15_network.content_distribution 	client-16 	29
scalar tree_4_3_u06_r15_network.content_distribution 	client-17 	30
scalar tree_4_3_u06_r15_network.content_distribution 	client-18 	31
scalar tree_4_3_u06_r15_network.content_distribution 	client-19 	32
scalar tree_4_3_u06_r15_network.content_distribution 	client-20 	33
scalar tree_4_3_u06_r15_network.content_distribution 	client-21 	34
scalar tree_4_3_u06_r15_network.content_distribution 	client-22 	35
scalar tree_4_3_u06_r15_network.content_distribution 	client-23 	36
scalar tree_4_3_u06_r15_network.content_distribution 	client-24 	37
scalar tree_4_3_u06_r15_network.content_distribution 	client-25 	38
scalar tree_4_3_u06_r15_network.content_distribution 	client-26 	39
scalar tree_4_3_u06_r15_network.content_distribution 	repo-0_card 	100000
scalar tree_4_3_u06_r15_network.content_distribution 	repo-0_price 	0
scalar tree_4_3_u06_r15_network.statistics 	stabilization_time 	482.4
scalar tree_4_3_u06_r15_network.statistics 	p_hit 	0.19724347589885
scalar tree_4_3_u06_r15_network.statistics 	interests 	27563.375
scalar tree_4_3_u06_r15_network.statistics 	data 	19469.5
scalar tree_4_3_u06_r15_network.statistics 	hdistance 	3.0180556318103
scalar tree_4_3_u06_r15_network.statistics 	avg_time 	0.004810985929
scalar tree_4_3_u06_r15_network.statistics 	downloads 	323741
scalar tree_4_3_u06_r15_network.statistics 	total_cost 	0
scalar tree_4_3_u06_r15_network.statistics 	total_replicas 	100000
scalar tree_4_3_u06_r15_network.statistics 	inner_hit 	0.3873806530529
scalar tree_4_3_u06_r15_network.node[0].core_layer 	interests[0] 	198998
scalar tree_4_3_u06_r15_network.node[0].core_layer 	repo_load[0] 	198330
scalar tree_4_3_u06_r15_network.node[0].core_layer 	data[0] 	0
scalar tree_4_3_u06_r15_network.node[0].core_layer 	repo_int[0] 	198330
scalar tree_4_3_u06_r15_network.node[0].content_store 	p_hit[0] 	0.0033568176564589
scalar tree_4_3_u06_r15_network.node[0].content_store 	hits[0] 	668
scalar tree_4_3_u06_r15_network.node[0].content_store 	misses[0] 	198330
scalar tree_4_3_u06_r15_network.node[0].content_store 	decision_yes[0] 	198330
scalar tree_4_3_u06_r15_network.node[0].content_store 	decision_no[0] 	0
scalar tree_4_3_u06_r15_network.node[0].content_store 	decision_ratio[0] 	1
scalar tree_4_3_u06_r15_network.node[1].core_layer 	interests[1] 	139417
scalar tree_4_3_u06_r15_network.node[1].core_layer 	data[1] 	138048
scalar tree_4_3_u06_r15_network.node[1].content_store 	p_hit[1] 	0.0097405624852063
scalar tree_4_3_u06_r15_network.node[1].content_store 	hits[1] 	1358
scalar tree_4_3_u06_r15_network.node[1].content_store 	misses[1] 	138059
scalar tree_4_3_u06_r15_network.node[1].content_store 	decision_yes[1] 	138020
scalar tree_4_3_u06_r15_network.node[1].content_store 	decision_no[1] 	0
scalar tree_4_3_u06_r15_network.node[1].content_store 	decision_ratio[1] 	1
scalar tree_4_3_u06_r15_network.node[2].core_layer 	interests[2] 	43846
scalar tree_4_3_u06_r15_network.node[2].core_layer 	data[2] 	42821
scalar tree_4_3_u06_r15_network.node[2].content_store 	p_hit[2] 	0.023331660812845
scalar tree_4_3_u06_r15_network.node[2].content_store 	hits[2] 	1023
scalar tree_4_3_u06_r15_network.node[2].content_store 	misses[2] 	42823
scalar tree_4_3_u06_r15_network.node[2].content_store 	decision_yes[2] 	42821
scalar tree_4_3_u06_r15_network.node[2].content_store 	decision_no[2] 	0
scalar tree_4_3_u06_r15_network.node[2].content_store 	decision_ratio[2] 	1
scalar tree_4_3_u06_r15_network.node[3].core_layer 	interests[3] 	51112
scalar tree_4_3_u06_r15_network.node[3].core_layer 	data[3] 	49085
scalar tree_4_3_u06_r15_network.node[3].content_store 	p_hit[3] 	0.039658005947723
scalar tree_4_3_u06_r15_network.node[3].content_store 	hits[3] 	2027
scalar tree_4_3_u06_r15_network.node[3].content_store 	misses[3] 	49085
scalar tree_4_3_u06_r15_network.node[3].content_store 	decision_yes[3] 	49079
scalar tree_4_3_u06_r15_network.node[3].content_store 	decision_no[3] 	0
scalar tree_4_3_u06_r15_network.node[3].content_store 	decision_ratio[3] 	1
scalar tree_4_3_u06_r15_network.node[4].core_layer 	interests[4] 	51068
scalar tree_4_3_u06_r15_network.node[4].core_layer 	data[4] 	48919
scalar tree_4_3_u06_r15_network.node[4].content_store 	p_hit[4] 	0.041963656301402
scalar tree_4_3_u06_r15_network.node[4].content_store 	hits[4] 	2143
scalar tree_4_3_u06_r15_network.node[4].content_store 	misses[4] 	48925
scalar tree_4_3_u06_r15_network.node[4].content_store 	decision_yes[4] 	48914
scalar tree_4_3_u06_r15_network.node[4].content_store 	decision_no[4] 	0
scalar tree_4_3_u06_r15_network.node[4].content_store 	decision_ratio[4] 	1
scalar tree_4_3_u06_r15_network.node[5].core_layer 	interests[5] 	22996
scalar tree_4_3_u06_r15_network.node[5].core_layer 	data[5] 	20344
scalar tree_4_3_u06_r15_network.node[5].content_store 	p_hit[5] 	0.11528091842059
scalar tree_4_3_u06_r15_network.node[5].content_store 	hits[5] 	2651
scalar tree_4_3_u06_r15_network.node[5].content_store 	misses[5] 	20345
scalar tree_4_3_u06_r15_network.node[5].content_store 	decision_yes[5] 	20341
scalar tree_4_3_u06_r15_network.node[5].content_store 	decision_no[5] 	0
scalar tree_4_3_u06_r15_network.node[5].content_store 	decision_ratio[5] 	1
scalar tree_4_3_u06_r15_network.node[6].core_layer 	interests[6] 	27787
scalar tree_4_3_u06_r15_network.node[6].core_layer 	data[6] 	23729
scalar tree_4_3_u06_r15_network.node[6].content_store 	p_hit[6] 	0.14603951488106
scalar tree_4_3_u06_r15_network.node[6].content_store 	hits[6] 	4058
scalar tree_4_3_u06_r15_network.node[6].content_store 	misses[6] 	23729
scalar tree_4_3_u06_r15_network.node[6].content_store 	decision_yes[6] 	23728
scalar tree_4_3_u06_r15_network.node[6].content_store 	decision_no[6] 	0
scalar tree_4_3_u06_r15_network.node[6].content_store 	decision_ratio[6] 	1
scalar tree_4_3_u06_r15_network.node[7].core_layer 	interests[7] 	42767
scalar tree_4_3_u06_r15_network.node[7].core_layer 	data[7] 	40252
scalar tree_4_3_u06_r15_network.node[7].content_store 	p_hit[7] 	0.058807024107373
scalar tree_4_3_u06_r15_network.node[7].content_store 	hits[7] 	2515
scalar tree_4_3_u06_r15_network.node[7].content_store 	misses[7] 	40252
scalar tree_4_3_u06_r15_network.node[7].content_store 	decision_yes[7] 	40247
scalar tree_4_3_u06_r15_network.node[7].content_store 	decision_no[7] 	0
scalar tree_4_3_u06_r15_network.node[7].content_store 	decision_ratio[7] 	1
scalar tree_4_3_u06_r15_network.node[8].core_layer 	interests[8] 	30277
scalar tree_4_3_u06_r15_network.node[8].core_layer 	data[8] 	28891
scalar tree_4_3_u06_r15_network.node[8].content_store 	p_hit[8] 	0.045744294348846
scalar tree_4_3_u06_r15_network.node[8].content_store 	hits[8] 	1385
scalar tree_4_3_u06_r15_network.node[8].content_store 	misses[8] 	28892
scalar tree_4_3_u06_r15_network.node[8].content_store 	decision_yes[8] 	28891
scalar tree_4_3_u06_r15_network.node[8].content_store 	decision_no[8] 	0
scalar tree_4_3_u06_r15_network.node[8].content_store 	decision_ratio[8] 	1
scalar tree_4_3_u06_r15_network.node[9].core_layer 	interests[9] 	27921
scalar tree_4_3_u06_r15_network.node[9].core_layer 	data[9] 	24232
scalar tree_4_3_u06_r15_network.node[9].content_store 	p_hit[9] 	0.13205114429999
scalar tree_4_3_u06_r15_network.node[9].content_store 	hits[9] 	3687
scalar tree_4_3_u06_r15_network.node[9].content_store 	misses[9] 	24234
scalar tree_4_3_u06_r15_network.node[9].content_store 	decision_yes[9] 	24228
scalar tree_4_3_u06_r15_network.node[9].content_store 	decision_no[9] 	0
scalar tree_4_3_u06_r15_network.node[9].content_store 	decision_ratio[9] 	1
scalar tree_4_3_u06_r15_network.node[10].core_layer 	interests[10] 	42573
scalar tree_4_3_u06_r15_network.node[10].core_layer 	data[10] 	39781
scalar tree_4_3_u06_r15_network.node[10].content_store 	p_hit[10] 	0.065534493693186
scalar tree_4_3_u06_r15_network.node[10].content_store 	hits[10] 	2790
scalar tree_4_3_u06_r15_network.node[10].content_store 	misses[10] 	39783
scalar tree_4_3_u06_r15_network.node[10].content_store 	decision_yes[10] 	39776
scalar tree_4_3_u06_r15_network.node[10].content_store 	decision_no[10] 	0
scalar tree_4_3_u06_r15_network.node[10].content_store 	decision_ratio[10] 	1
scalar tree_4_3_u06_r15_network.node[11].core_layer 	interests[11] 	33027
scalar tree_4_3_u06_r15_network.node[11].core_layer 	data[11] 	30793
scalar tree_4_3_u06_r15_network.node[11].content_store 	p_hit[11] 	0.067611348290792
scalar tree_4_3_u06_r15_network.node[11].content_store 	hits[11] 	2233
scalar tree_4_3_u06_r15_network.node[11].content_store 	misses[11] 	30794
scalar tree_4_3_u06_r15_network.node[11].content_store 	decision_yes[11] 	30792
scalar tree_4_3_u06_r15_network.node[11].content_store 	decision_no[11] 	0
scalar tree_4_3_u06_r15_network.node[11].content_store 	decision_ratio[11] 	1
scalar tree_4_3_u06_r15_network.node[12].core_layer 	interests[12] 	23321
scalar tree_4_3_u06_r15_network.node[12].core_layer 	data[12] 	21106
scalar tree_4_3_u06_r15_network.node[12].content_store 	p_hit[12] 	0.09497877449509
scalar tree_4_3_u06_r15_network.node[12].content_store 	hits[12] 	2215
scalar tree_4_3_u06_r15_network.node[12].content_store 	misses[12] 	21106
scalar tree_4_3_u06_r15_network.node[12].content_store 	decision_yes[12] 	21102
scalar tree_4_3_u06_r15_network.node[12].content_store 	decision_no[12] 	0
scalar tree_4_3_u06_r15_network.node[12].content_store 	decision_ratio[12] 	1
scalar tree_4_3_u06_r15_network.node[13].core_layer 	interests[13] 	13340
scalar tree_4_3_u06_r15_network.node[13].core_layer 	data[13] 	9975
scalar tree_4_3_u06_r15_network.node[13].content_store 	p_hit[13] 	0.25232383808096
scalar tree_4_3_u06_r15_network.node[13].content_store 	hits[13] 	3366
scalar tree_4_3_u06_r15_network.node[13].content_store 	misses[13] 	9974
scalar tree_4_3_u06_r15_network.node[13].content_store 	decision_yes[13] 	9975
scalar tree_4_3_u06_r15_network.node[13].content_store 	decision_no[13] 	0
scalar tree_4_3_u06_r15_network.node[13].content_store 	decision_ratio[13] 	1
scalar tree_4_3_u06_r15_network.node[14].core_layer 	interests[14] 	13333
scalar tree_4_3_u06_r15_network.node[14].core_layer 	data[14] 	10064
scalar tree_4_3_u06_r15_network.node[14].content_store 	p_hit[14] 	0.24518112952824
scalar tree_4_3_u06_r15_network.node[14].content_store 	hits[14] 	3269
scalar tree_4_3_u06_r15_network.node[14].content_store 	misses[14] 	10064
scalar tree_4_3_u06_r15_network.node[14].content_store 	decision_yes[14] 	10064
scalar tree_4_3_u06_r15_network.node[14].content_store 	decision_no[14] 	0
scalar tree_4_3_u06_r15_network.node[14].content_store 	decision_ratio[14] 	1
scalar tree_4_3_u06_r15_network.node[15].core_layer 	interests[15] 	13367
scalar tree_4_3_u06_r15_network.node[15].core_layer 	data[15] 	10059
scalar tree_4_3_u06_r15_network.node[15].content_store 	p_hit[15] 	0.2474751253086
scalar tree_4_3_u06_r15_network.node[15].content_store 	hits[15] 	3308
scalar tree_4_3_u06_r15_network.node[15].content_store 	misses[15] 	10059
scalar tree_4_3_u06_r15_network.node[15].content_store 	decision_yes[15] 	10059
scalar tree_4_3_u06_r15_network.node[15].content_store 	decision_no[15] 	0
scalar tree_4_3_u06_r15_network.node[15].content_store 	decision_ratio[15] 	1
scalar tree_4_3_u06_r15_network.node[16].core_layer 	interests[16] 	14577
scalar tree_4_3_u06_r15_network.node[16].core_layer 	data[16] 	10094
scalar tree_4_3_u06_r15_network.node[16].content_store 	p_hit[16] 	0.30747067297798
scalar tree_4_3_u06_r15_network.node[16].content_store 	hits[16] 	4482
scalar tree_4_3_u06_r15_network.node[16].content_store 	misses[16] 	10095
scalar tree_4_3_u06_r15_network.node[16].content_store 	decision_yes[16] 	10094
scalar tree_4_3_u06_r15_network.node[16].content_store 	decision_no[16] 	0
scalar tree_4_3_u06_r15_network.node[16].content_store 	decision_ratio[16] 	1
scalar tree_4_3_u06_r15_network.node[17].core_layer 	interests[17] 	12642
scalar tree_4_3_u06_r15_network.node[17].core_layer 	data[17] 	9931
scalar tree_4_3_u06_r15_network.node[17].content_store 	p_hit[17] 	0.21444391710172
scalar tree_4_3_u06_r15_network.node[17].content_store 	hits[17] 	2711
scalar tree_4_3_u06_r15_network.node[17].content_store 	misses[17] 	9931
scalar tree_4_3_u06_r15_network.node[17].content_store 	decision_yes[17] 	9931
scalar tree_4_3_u06_r15_network.node[17].content_store 	decision_no[17] 	0
scalar tree_4_3_u06_r15_network.node[17].content_store 	decision_ratio[17] 	1
scalar tree_4_3_u06_r15_network.node[18].core_layer 	interests[18] 	14148
scalar tree_4_3_u06_r15_network.node[18].core_layer 	data[18] 	9935
scalar tree_4_3_u06_r15_network.node[18].content_store 	p_hit[18] 	0.29778060503251
scalar tree_4_3_u06_r15_network.node[18].content_store 	hits[18] 	4213
scalar tree_4_3_u06_r15_network.node[18].content_store 	misses[18] 	9935
scalar tree_4_3_u06_r15_network.node[18].content_store 	decision_yes[18] 	9935
scalar tree_4_3_u06_r15_network.node[18].content_store 	decision_no[18] 	0
scalar tree_4_3_u06_r15_network.node[18].content_store 	decision_ratio[18] 	1
scalar tree_4_3_u06_r15_network.node[19].core_layer 	interests[19] 	14928
scalar tree_4_3_u06_r15_network.node[19].core_layer 	data[19] 	10094
scalar tree_4_3_u06_r15_network.node[19].content_store 	p_hit[19] 	0.32368703108253
scalar tree_4_3_u06_r15_network.node[19].content_store 	hits[19] 	4832
scalar tree_4_3_u06_r15_network.node[19].content_store 	misses[19] 	10096
scalar tree_4_3_u06_r15_network.node[19].content_store 	decision_yes[19] 	10094
scalar tree_4_3_u06_r15_network.node[19].content_store 	decision_no[19] 	0
scalar tree_4_3_u06_r15_network.node[19].content_store 	decision_ratio[19] 	1
scalar tree_4_3_u06_r15_network.node[20].core_layer 	interests[20] 	13031
scalar tree_4_3_u06_r15_network.node[20].core_layer 	data[20] 	10059
scalar tree_4_3_u06_r15_network.node[20].content_store 	p_hit[20] 	0.22807152175581
scalar tree_4_3_u06_r15_network.node[20].content_store 	hits[20] 	2972
scalar tree_4_3_u06_r15_network.node[20].content_store 	misses[20] 	10059
scalar tree_4_3_u06_r15_network.node[20].content_store 	decision_yes[20] 	10059
scalar tree_4_3_u06_r15_network.node[20].content_store 	decision_no[20] 	0
scalar tree_4_3_u06_r15_network.node[20].content_store 	decision_ratio[20] 	1
scalar tree_4_3_u06_r15_network.node[21].core_layer 	interests[21] 	13280
scalar tree_4_3_u06_r15_network.node[21].core_layer 	data[21] 	10142
scalar tree_4_3_u06_r15_network.node[21].content_store 	p_hit[21] 	0.23614457831325
scalar tree_4_3_u06_r15_network.node[21].content_store 	hits[21] 	3136
scalar tree_4_3_u06_r15_network.node[21].content_store 	misses[21] 	10144
scalar tree_4_3_u06_r15_network.node[21].content_store 	decision_yes[21] 	10142
scalar tree_4_3_u06_r15_network.node[21].content_store 	decision_no[21] 	0
scalar tree_4_3_u06_r15_network.node[21].content_store 	decision_ratio[21] 	1
scalar tree_4_3_u06_r15_network.node[22].core_layer 	interests[22] 	13495
scalar tree_4_3_u06_r15_network.node[22].core_layer 	data[22] 	10081
scalar tree_4_3_u06_r15_network.node[22].content_store 	p_hit[22] 	0.25290848462393
scalar tree_4_3_u06_r15_network.node[22].content_store 	hits[22] 	3413
scalar tree_4_3_u06_r15_network.node[22].content_store 	misses[22] 	10082
scalar tree_4_3_u06_r15_network.node[22].content_store 	decision_yes[22] 	10081
scalar tree_4_3_u06_r15_network.node[22].content_store 	decision_no[22] 	0
scalar tree_4_3_u06_r15_network.node[22].content_store 	decision_ratio[22] 	1
scalar tree_4_3_u06_r15_network.node[23].core_layer 	interests[23] 	14279
scalar tree_4_3_u06_r15_network.node[23].core_layer 	data[23] 	10004
scalar tree_4_3_u06_r15_network.node[23].content_store 	p_hit[23] 	0.29939071363541
scalar tree_4_3_u06_r15_network.node[23].content_store 	hits[23] 	4275
scalar tree_4_3_u06_r15_network.node[23].content_store 	misses[23] 	10004
scalar tree_4_3_u06_r15_network.node[23].content_store 	decision_yes[23] 	10004
scalar tree_4_3_u06_r15_network.node[23].content_store 	decision_no[23] 	0
scalar tree_4_3_u06_r15_network.node[23].content_store 	decision_ratio[23] 	1
scalar tree_4_3_u06_r15_network.node[24].core_layer 	interests[24] 	13520
scalar tree_4_3_u06_r15_network.node[24].core_layer 	data[24] 	10061
scalar tree_4_3_u06_r15_network.node[24].content_store 	p_hit[24] 	0.25576923076923
scalar tree_4_3_u06_r15_network.node[24].content_store 	hits[24] 	3458
scalar tree_4_3_u06_r15_network.node[24].content_store 	misses[24] 	10062
scalar tree_4_3_u06_r15_network.node[24].content_store 	decision_yes[24] 	10061
scalar tree_4_3_u06_r15_network.node[24].content_store 	decision_no[24] 	0
scalar tree_4_3_u06_r15_network.node[24].content_store 	decision_ratio[24] 	1
scalar tree_4_3_u06_r15_network.node[25].core_layer 	interests[25] 	12852
scalar tree_4_3_u06_r15_network.node[25].core_layer 	data[25] 	10066
scalar tree_4_3_u06_r15_network.node[25].content_store 	p_hit[25] 	0.2166977902272
scalar tree_4_3_u06_r15_network.node[25].content_store 	hits[25] 	2785
scalar tree_4_3_u06_r15_network.node[25].content_store 	misses[25] 	10067
scalar tree_4_3_u06_r15_network.node[25].content_store 	decision_yes[25] 	10066
scalar tree_4_3_u06_r15_network.node[25].content_store 	decision_no[25] 	0
scalar tree_4_3_u06_r15_network.node[25].content_store 	decision_ratio[25] 	1
scalar tree_4_3_u06_r15_network.node[26].core_layer 	interests[26] 	12617
scalar tree_4_3_u06_r15_network.node[26].core_layer 	data[26] 	9976
scalar tree_4_3_u06_r15_network.node[26].content_store 	p_hit[26] 	0.20940001585163
scalar tree_4_3_u06_r15_network.node[26].content_store 	hits[26] 	2642
scalar tree_4_3_u06_r15_network.node[26].content_store 	misses[26] 	9975
scalar tree_4_3_u06_r15_network.node[26].content_store 	decision_yes[26] 	9976
scalar tree_4_3_u06_r15_network.node[26].content_store 	decision_no[26] 	0
scalar tree_4_3_u06_r15_network.node[26].content_store 	decision_ratio[26] 	1
scalar tree_4_3_u06_r15_network.node[27].core_layer 	interests[27] 	14557
scalar tree_4_3_u06_r15_network.node[27].core_layer 	data[27] 	10007
scalar tree_4_3_u06_r15_network.node[27].content_store 	p_hit[27] 	0.31249570653294
scalar tree_4_3_u06_r15_network.node[27].content_store 	hits[27] 	4549
scalar tree_4_3_u06_r15_network.node[27].content_store 	misses[27] 	10008
scalar tree_4_3_u06_r15_network.node[27].content_store 	decision_yes[27] 	10007
scalar tree_4_3_u06_r15_network.node[27].content_store 	decision_no[27] 	0
scalar tree_4_3_u06_r15_network.node[27].content_store 	decision_ratio[27] 	1
scalar tree_4_3_u06_r15_network.node[28].core_layer 	interests[28] 	14961
scalar tree_4_3_u06_r15_network.node[28].core_layer 	data[28] 	10098
scalar tree_4_3_u06_r15_network.node[28].content_store 	p_hit[28] 	0.32504511730499
scalar tree_4_3_u06_r15_network.node[28].content_store 	hits[28] 	4863
scalar tree_4_3_u06_r15_network.node[28].content_store 	misses[28] 	10098
scalar tree_4_3_u06_r15_network.node[28].content_store 	decision_yes[28] 	10098
scalar tree_4_3_u06_r15_network.node[28].content_store 	decision_no[28] 	0
scalar tree_4_3_u06_r15_network.node[28].content_store 	decision_ratio[28] 	1
scalar tree_4_3_u06_r15_network.node[29].core_layer 	interests[29] 	13149
scalar tree_4_3_u06_r15_network.node[29].core_layer 	data[29] 	10103
scalar tree_4_3_u06_r15_network.node[29].content_store 	p_hit[29] 	0.23165259715568
scalar tree_4_3_u06_r15_network.node[29].content_store 	hits[29] 	3046
scalar tree_4_3_u06_r15_network.node[29].content_store 	misses[29] 	10103
scalar tree_4_3_u06_r15_network.node[29].content_store 	decision_yes[29] 	10103
scalar tree_4_3_u06_r15_network.node[29].content_store 	decision_no[29] 	0
scalar tree_4_3_u06_r15_network.node[29].content_store 	decision_ratio[29] 	1
scalar tree_4_3_u06_r15_network.node[30].core_layer 	interests[30] 	13232
scalar tree_4_3_u06_r15_network.node[30].core_layer 	data[30] 	10108
scalar tree_4_3_u06_r15_network.node[30].content_store 	p_hit[30] 	0.23594316807739
scalar tree_4_3_u06_r15_network.node[30].content_store 	hits[30] 	3122
scalar tree_4_3_u06_r15_network.node[30].content_store 	misses[30] 	10110
scalar tree_4_3_u06_r15_network.node[30].content_store 	decision_yes[30] 	10108
scalar tree_4_3_u06_r15_network.node[30].content_store 	decision_no[30] 	0
scalar tree_4_3_u06_r15_network.node[30].content_store 	decision_ratio[30] 	1
scalar tree_4_3_u06_r15_network.node[31].core_layer 	interests[31] 	13372
scalar tree_4_3_u06_r15_network.node[31].core_layer 	data[31] 	9965
scalar tree_4_3_u06_r15_network.node[31].content_store 	p_hit[31] 	0.25471133712235
scalar tree_4_3_u06_r15_network.node[31].content_store 	hits[31] 	3406
scalar tree_4_3_u06_r15_network.node[31].content_store 	misses[31] 	9966
scalar tree_4_3_u06_r15_network.node[31].content_store 	decision_yes[31] 	9965
scalar tree_4_3_u06_r15_network.node[31].content_store 	decision_no[31] 	0
scalar tree_4_3_u06_r15_network.node[31].content_store 	decision_ratio[31] 	1
scalar tree_4_3_u06_r15_network.node[32].core_layer 	interests[32] 	14422
scalar tree_4_3_u06_r15_network.node[32].core_layer 	data[32] 	9871
scalar tree_4_3_u06_r15_network.node[32].content_store 	p_hit[32] 	0.31555956178061
scalar tree_4_3_u06_r15_network.node[32].content_store 	hits[32] 	4551
scalar tree_4_3_u06_r15_network.node[32].content_store 	misses[32] 	9871
scalar tree_4_3_u06_r15_network.node[32].content_store 	decision_yes[32] 	9871
scalar tree_4_3_u06_r15_network.node[32].content_store 	decision_no[32] 	0
scalar tree_4_3_u06_r15_network.node[32].content_store 	decision_ratio[32] 	1
scalar tree_4_3_u06_r15_network.node[33].core_layer 	interests[33] 	14303
scalar tree_4_3_u06_r15_network.node[33].core_layer 	data[33] 	9823
scalar tree_4_3_u06_r15_network.node[33].content_store 	p_hit[33] 	0.31329091798923
scalar tree_4_3_u06_r15_network.node[33].content_store 	hits[33] 	4481
scalar tree_4_3_u06_r15_network.node[33].content_store 	misses[33] 	9822
scalar tree_4_3_u06_r15_network.node[33].content_store 	decision_yes[33] 	9823
scalar tree_4_3_u06_r15_network.node[33].content_store 	decision_no[33] 	0
scalar tree_4_3_u06_r15_network.node[33].content_store 	decision_ratio[33] 	1
scalar tree_4_3_u06_r15_network.node[34].core_layer 	interests[34] 	14239
scalar tree_4_3_u06_r15_network.node[34].core_layer 	data[34] 	9955
scalar tree_4_3_u06_r15_network.node[34].content_store 	p_hit[34] 	0.30086382470679
scalar tree_4_3_u06_r15_network.node[34].content_store 	hits[34] 	4284
scalar tree_4_3_u06_r15_network.node[34].content_store 	misses[34] 	9955
scalar tree_4_3_u06_r15_network.node[34].content_store 	decision_yes[34] 	9955
scalar tree_4_3_u06_r15_network.node[34].content_store 	decision_no[34] 	0
scalar tree_4_3_u06_r15_network.node[34].content_store 	decision_ratio[34] 	1
scalar tree_4_3_u06_r15_network.node[35].core_layer 	interests[35] 	13287
scalar tree_4_3_u06_r15_network.node[35].core_layer 	data[35] 	10207
scalar tree_4_3_u06_r15_network.node[35].content_store 	p_hit[35] 	0.23180552419658
scalar tree_4_3_u06_r15_network.node[35].content_store 	hits[35] 	3080
scalar tree_4_3_u06_r15_network.node[35].content_store 	misses[35] 	10207
scalar tree_4_3_u06_r15_network.node[35].content_store 	decision_yes[35] 	10207
scalar tree_4_3_u06_r15_network.node[35].content_store 	decision_no[35] 	0
scalar tree_4_3_u06_r15_network.node[35].content_store 	decision_ratio[35] 	1
scalar tree_4_3_u06_r15_network.node[36].core_layer 	interests[36] 	13021
scalar tree_4_3_u06_r15_network.node[36].core_layer 	data[36] 	10053
scalar tree_4_3_u06_r15_network.node[36].content_store 	p_hit[36] 	0.22793948237463
scalar tree_4_3_u06_r15_network.node[36].content_store 	hits[36] 	2968
scalar tree_4_3_u06_r15_network.node[36].content_store 	misses[36] 	10053
scalar tree_4_3_u06_r15_network.node[36].content_store 	decision_yes[36] 	10053
scalar tree_4_3_u06_r15_network.node[36].content_store 	decision_no[36] 	0
scalar tree_4_3_u06_r15_network.node[36].content_store 	decision_ratio[36] 	1
scalar tree_4_3_u06_r15_network.node[37].core_layer 	interests[37] 	12777
scalar tree_4_3_u06_r15_network.node[37].core_layer 	data[37] 	10123
scalar tree_4_3_u06_r15_network.node[37].content_store 	p_hit[37] 	0.20763872583549
scalar tree_4_3_u06_r15_network.node[37].content_store 	hits[37] 	2653
scalar tree_4_3_u06_r15_network.node[37].content_store 	misses[37] 	10124
scalar tree_4_3_u06_r15_network.node[37].content_store 	decision_yes[37] 	10123
scalar tree_4_3_u06_r15_network.node[37].content_store 	decision_no[37] 	0
scalar tree_4_3_u06_r15_network.node[37].content_store 	decision_ratio[37] 	1
scalar tree_4_3_u06_r15_network.node[38].core_layer 	interests[38] 	14125
scalar tree_4_3_u06_r15_network.node[38].core_layer 	data[38] 	9943
scalar tree_4_3_u06_r15_network.node[38].content_store 	p_hit[38] 	0.296
scalar tree_4_3_u06_r15_network.node[38].content_store 	hits[38] 	4181
scalar tree_4_3_u06_r15_network.node[38].content_store 	misses[38] 	9944
scalar tree_4_3_u06_r15_network.node[38].content_store 	decision_yes[38] 	9943
scalar tree_4_3_u06_r15_network.node[38].content_store 	decision_no[38] 	0
scalar tree_4_3_u06_r15_network.node[38].content_store 	decision_ratio[38] 	1
scalar tree_4_3_u06_r15_network.node[39].core_layer 	interests[39] 	12571
scalar tree_4_3_u06_r15_network.node[39].core_layer 	data[39] 	9982
scalar tree_4_3_u06_r15_network.node[39].content_store 	p_hit[39] 	0.20595020284782
scalar tree_4_3_u06_r15_network.node[39].content_store 	hits[39] 	2589
scalar tree_4_3_u06_r15_network.node[39].content_store 	misses[39] 	9982
scalar tree_4_3_u06_r15_network.node[39].content_store 	decision_yes[39] 	9982
scalar tree_4_3_u06_r15_network.node[39].content_store 	decision_no[39] 	0
scalar tree_4_3_u06_r15_network.node[39].content_store 	decision_ratio[39] 	1
scalar tree_4_3_u06_r15_network.client[13] 	hdistance[13] 	3.0298071303331
scalar tree_4_3_u06_r15_network.client[13] 	downloads[13] 	11977
scalar tree_4_3_u06_r15_network.client[13] 	avg_time[13] 	0.004821548601
scalar tree_4_3_u06_r15_network.client[14] 	hdistance[14] 	3.0366522606383
scalar tree_4_3_u06_r15_network.client[14] 	downloads[14] 	12032
scalar tree_4_3_u06_r15_network.client[14] 	avg_time[14] 	0.004823204312
scalar tree_4_3_u06_r15_network.client[15] 	hdistance[15] 	3.0638067471887
scalar tree_4_3_u06_r15_network.client[15] 	downloads[15] 	12005
scalar tree_4_3_u06_r15_network.client[15] 	avg_time[15] 	0.004868135273
scalar tree_4_3_u06_r15_network.client[16] 	hdistance[16] 	2.976222038111
scalar tree_4_3_u06_r15_network.client[16] 	downloads[16] 	12070
scalar tree_4_3_u06_r15_network.client[16] 	avg_time[16] 	0.004727481229
scalar tree_4_3_u06_r15_network.client[17] 	hdistance[17] 	3.0829037437674
scalar tree_4_3_u06_r15_network.client[17] 	downloads[17] 	11833
scalar tree_4_3_u06_r15_network.client[17] 	avg_time[17] 	0.004960935395
scalar tree_4_3_u06_r15_network.client[18] 	hdistance[18] 	2.9339258762368
scalar tree_4_3_u06_r15_network.client[18] 	downloads[18] 	11926
scalar tree_4_3_u06_r15_network.client[18] 	avg_time[18] 	0.004695592949
scalar tree_4_3_u06_r15_network.client[19] 	hdistance[19] 	2.9419882654326
scalar tree_4_3_u06_r15_network.client[19] 	downloads[19] 	12101
scalar tree_4_3_u06_r15_network.client[19] 	avg_time[19] 	0.00468242115
scalar tree_4_3_u06_r15_network.client[20] 	hdistance[20] 	3.0543551088777
scalar tree_4_3_u06_r15_network.client[20] 	downloads[20] 	11940
scalar tree_4_3_u06_r15_network.client[20] 	avg_time[20] 	0.004898991997
scalar tree_4_3_u06_r15_network.client[21] 	hdistance[21] 	3.0436688445952
scalar tree_4_3_u06_r15_network.client[21] 	downloads[21] 	12091
scalar tree_4_3_u06_r15_network.client[21] 	avg_time[21] 	0.004883917203
scalar tree_4_3_u06_r15_network.client[22] 	hdistance[22] 	3.037337527941
scalar tree_4_3_u06_r15_network.client[22] 	downloads[22] 	12079
scalar tree_4_3_u06_r15_network.client[22] 	avg_time[22] 	0.004870606186
scalar tree_4_3_u06_r15_network.client[23] 	hdistance[23] 	2.9946362722092
scalar tree_4_3_u06_r15_network.client[23] 	downloads[23] 	11932
scalar tree_4_3_u06_r15_network.client[23] 	avg_time[23] 	0.004761814004
scalar tree_4_3_u06_r15_network.client[24] 	hdistance[24] 	3.0222424342649
scalar tree_4_3_u06_r15_network.client[24] 	downloads[24] 	12094
scalar tree_4_3_u06_r15_network.client[24] 	avg_time[24] 	0.004835871609
scalar tree_4_3_u06_r15_network.client[25] 	hdistance[25] 	3.0855672669931
scalar tree_4_3_u06_r15_network.client[25] 	downloads[25] 	12049
scalar tree_4_3_u06_r15_network.client[25] 	avg_time[25] 	0.004857163538
scalar tree_4_3_u06_r15_network.client[26] 	hdistance[26] 	3.1342941924544
scalar tree_4_3_u06_r15_network.client[26] 	downloads[26] 	11795
scalar tree_4_3_u06_r15_network.client[26] 	avg_time[26] 	0.004937682519
scalar tree_4_3_u06_r15_network.client[27] 	hdistance[27] 	2.9389546922886
scalar tree_4_3_u06_r15_network.client[27] 	downloads[27] 	12073
scalar tree_4_3_u06_r15_network.client[27] 	avg_time[27] 	0.004684875196
scalar tree_4_3_u06_r15_network.client[28] 	hdistance[28] 	2.9347359735974
scalar tree_4_3_u06_r15_network.client[28] 	downloads[28] 	12120
scalar tree_4_3_u06_r15_network.client[28] 	avg_time[28] 	0.004680771597
scalar tree_4_3_u06_r15_network.client[29] 	hdistance[29] 	3.055648256299
scalar tree_4_3_u06_r15_network.client[29] 	downloads[29] 	11986
scalar tree_4_3_u06_r15_network.client[29] 	avg_time[29] 	0.004905949572
scalar tree_4_3_u06_r15_network.client[30] 	hdistance[30] 	3.03479199535
scalar tree_4_3_u06_r15_network.client[30] 	downloads[30] 	12043
scalar tree_4_3_u06_r15_network.client[30] 	avg_time[30] 	0.004871102367
scalar tree_4_3_u06_r15_network.client[31] 	hdistance[31] 	3.0329855267587
scalar tree_4_3_u06_r15_network.client[31] 	downloads[31] 	11884
scalar tree_4_3_u06_r15_network.client[31] 	avg_time[31] 	0.004869273784
scalar tree_4_3_u06_r15_network.client[32] 	hdistance[32] 	2.9169864842316
scalar tree_4_3_u06_r15_network.client[32] 	downloads[32] 	11986
scalar tree_4_3_u06_r15_network.client[32] 	avg_time[32] 	0.004656726698
scalar tree_4_3_u06_r15_network.client[33] 	hdistance[33] 	2.9161409706451
scalar tree_4_3_u06_r15_network.client[33] 	downloads[33] 	11889
scalar tree_4_3_u06_r15_network.client[33] 	avg_time[33] 	0.004653253135
scalar tree_4_3_u06_r15_network.client[34] 	hdistance[34] 	2.9708312257629
scalar tree_4_3_u06_r15_network.client[34] 	downloads[34] 	11862
scalar tree_4_3_u06_r15_network.client[34] 	avg_time[34] 	0.004743848341
scalar tree_4_3_u06_r15_network.client[35] 	hdistance[35] 	3.0440586356564
scalar tree_4_3_u06_r15_network.client[35] 	downloads[35] 	12211
scalar tree_4_3_u06_r15_network.client[35] 	avg_time[35] 	0.00483236119
scalar tree_4_3_u06_r15_network.client[36] 	hdistance[36] 	3.0666554875493
scalar tree_4_3_u06_r15_network.client[36] 	downloads[36] 	11927
scalar tree_4_3_u06_r15_network.client[36] 	avg_time[36] 	0.004872471232
scalar tree_4_3_u06_r15_network.client[37] 	hdistance[37] 	3.0861224150818
scalar tree_4_3_u06_r15_network.client[37] 	downloads[37] 	12041
scalar tree_4_3_u06_r15_network.client[37] 	avg_time[37] 	0.004911400225
scalar tree_4_3_u06_r15_network.client[38] 	hdistance[38] 	2.9535291173035
scalar tree_4_3_u06_r15_network.client[38] 	downloads[38] 	11986
scalar tree_4_3_u06_r15_network.client[38] 	avg_time[38] 	0.004655698493
scalar tree_4_3_u06_r15_network.client[39] 	hdistance[39] 	3.0986535693115
scalar tree_4_3_u06_r15_network.client[39] 	downloads[39] 	11809
scalar tree_4_3_u06_r15_network.client[39] 	avg_time[39] 	0.004933522296
