version 2
run General-132-20160819-17:02:18-23511
attr a 0.9
attr cd lce
attr configname General
attr cr lru
attr datetime 20160819-17:02:18
attr experiment General
attr fsize 1
attr inifile hw5115/scenario_A/NRR-LCE.ini
attr iterationvars "$name=tree_4_3, $un=06, $rep=13, $cd=lce, $cr=lru, $fsize=1, $a=0.9, $sl=nrr, $ttl=1000, $variance=0.05"
attr iterationvars2 "$name=tree_4_3, $un=06, $rep=13, $cd=lce, $cr=lru, $fsize=1, $a=0.9, $sl=nrr, $ttl=1000, $variance=0.05, $repetition=0"
attr measurement "$name=tree_4_3, $un=06, $rep=13, $cd=lce, $cr=lru, $fsize=1, $a=0.9, $sl=nrr, $ttl=1000, $variance=0.05"
attr name tree_4_3
attr network networks.${name}_u${un}_r${rep}_network
attr processid 23511
attr rep 13
attr repetition 0
attr replication #0
attr resultdir results
attr runnumber 132
attr seedset 13
attr sl nrr
attr ttl 1000
attr un 06
attr variance 0.05

scalar . 	a 	0.9
scalar . 	fsize 	1
scalar . 	rep 	13
scalar . 	ttl 	1000
scalar . 	un 	06
scalar . 	variance 	0.05
scalar tree_4_3_u06_r13_network.content_distribution 	repo-0 	0
scalar tree_4_3_u06_r13_network.content_distribution 	client-0 	13
scalar tree_4_3_u06_r13_network.content_distribution 	client-1 	14
scalar tree_4_3_u06_r13_network.content_distribution 	client-2 	15
scalar tree_4_3_u06_r13_network.content_distribution 	client-3 	16
scalar tree_4_3_u06_r13_network.content_distribution 	client-4 	17
scalar tree_4_3_u06_r13_network.content_distribution 	client-5 	18
scalar tree_4_3_u06_r13_network.content_distribution 	client-6 	19
scalar tree_4_3_u06_r13_network.content_distribution 	client-7 	20
scalar tree_4_3_u06_r13_network.content_distribution 	client-8 	21
scalar tree_4_3_u06_r13_network.content_distribution 	client-9 	22
scalar tree_4_3_u06_r13_network.content_distribution 	client-10 	23
scalar tree_4_3_u06_r13_network.content_distribution 	client-11 	24
scalar tree_4_3_u06_r13_network.content_distribution 	client-12 	25
scalar tree_4_3_u06_r13_network.content_distribution 	client-13 	26
scalar tree_4_3_u06_r13_network.content_distribution 	client-14 	27
scalar tree_4_3_u06_r13_network.content_distribution 	client-15 	28
scalar tree_4_3_u06_r13_network.content_distribution 	client-16 	29
scalar tree_4_3_u06_r13_network.content_distribution 	client-17 	30
scalar tree_4_3_u06_r13_network.content_distribution 	client-18 	31
scalar tree_4_3_u06_r13_network.content_distribution 	client-19 	32
scalar tree_4_3_u06_r13_network.content_distribution 	client-20 	33
scalar tree_4_3_u06_r13_network.content_distribution 	client-21 	34
scalar tree_4_3_u06_r13_network.content_distribution 	client-22 	35
scalar tree_4_3_u06_r13_network.content_distribution 	client-23 	36
scalar tree_4_3_u06_r13_network.content_distribution 	client-24 	37
scalar tree_4_3_u06_r13_network.content_distribution 	client-25 	38
scalar tree_4_3_u06_r13_network.content_distribution 	client-26 	39
scalar tree_4_3_u06_r13_network.content_distribution 	repo-0_card 	100000
scalar tree_4_3_u06_r13_network.content_distribution 	repo-0_price 	0
scalar tree_4_3_u06_r13_network.statistics 	stabilization_time 	485
scalar tree_4_3_u06_r13_network.statistics 	p_hit 	0.19224873784532
scalar tree_4_3_u06_r13_network.statistics 	interests 	27544.225
scalar tree_4_3_u06_r13_network.statistics 	data 	19443.975
scalar tree_4_3_u06_r13_network.statistics 	hdistance 	3.0292839529525
scalar tree_4_3_u06_r13_network.statistics 	avg_time 	0.004800646758
scalar tree_4_3_u06_r13_network.statistics 	downloads 	323996
scalar tree_4_3_u06_r13_network.statistics 	total_cost 	0
scalar tree_4_3_u06_r13_network.statistics 	total_replicas 	100000
scalar tree_4_3_u06_r13_network.statistics 	inner_hit 	0.37100766676132
scalar tree_4_3_u06_r13_network.node[0].core_layer 	interests[0] 	204605
scalar tree_4_3_u06_r13_network.node[0].core_layer 	repo_load[0] 	203791
scalar tree_4_3_u06_r13_network.node[0].core_layer 	data[0] 	0
scalar tree_4_3_u06_r13_network.node[0].core_layer 	repo_int[0] 	203791
scalar tree_4_3_u06_r13_network.node[0].content_store 	p_hit[0] 	0.003978397399868
scalar tree_4_3_u06_r13_network.node[0].content_store 	hits[0] 	814
scalar tree_4_3_u06_r13_network.node[0].content_store 	misses[0] 	203791
scalar tree_4_3_u06_r13_network.node[0].content_store 	decision_yes[0] 	203791
scalar tree_4_3_u06_r13_network.node[0].content_store 	decision_no[0] 	0
scalar tree_4_3_u06_r13_network.node[0].content_store 	decision_ratio[0] 	1
scalar tree_4_3_u06_r13_network.node[1].core_layer 	interests[1] 	142313
scalar tree_4_3_u06_r13_network.node[1].core_layer 	data[1] 	141060
scalar tree_4_3_u06_r13_network.node[1].content_store 	p_hit[1] 	0.0087623758897641
scalar tree_4_3_u06_r13_network.node[1].content_store 	hits[1] 	1247
scalar tree_4_3_u06_r13_network.node[1].content_store 	misses[1] 	141066
scalar tree_4_3_u06_r13_network.node[1].content_store 	decision_yes[1] 	141039
scalar tree_4_3_u06_r13_network.node[1].content_store 	decision_no[1] 	0
scalar tree_4_3_u06_r13_network.node[1].content_store 	decision_ratio[1] 	1
scalar tree_4_3_u06_r13_network.node[2].core_layer 	interests[2] 	33940
scalar tree_4_3_u06_r13_network.node[2].core_layer 	data[2] 	33451
scalar tree_4_3_u06_r13_network.node[2].content_store 	p_hit[2] 	0.014378314672952
scalar tree_4_3_u06_r13_network.node[2].content_store 	hits[2] 	488
scalar tree_4_3_u06_r13_network.node[2].content_store 	misses[2] 	33452
scalar tree_4_3_u06_r13_network.node[2].content_store 	decision_yes[2] 	33447
scalar tree_4_3_u06_r13_network.node[2].content_store 	decision_no[2] 	0
scalar tree_4_3_u06_r13_network.node[2].content_store 	decision_ratio[2] 	1
scalar tree_4_3_u06_r13_network.node[3].core_layer 	interests[3] 	56874
scalar tree_4_3_u06_r13_network.node[3].core_layer 	data[3] 	55574
scalar tree_4_3_u06_r13_network.node[3].content_store 	p_hit[3] 	0.022752048387664
scalar tree_4_3_u06_r13_network.node[3].content_store 	hits[3] 	1294
scalar tree_4_3_u06_r13_network.node[3].content_store 	misses[3] 	55580
scalar tree_4_3_u06_r13_network.node[3].content_store 	decision_yes[3] 	55566
scalar tree_4_3_u06_r13_network.node[3].content_store 	decision_no[3] 	0
scalar tree_4_3_u06_r13_network.node[3].content_store 	decision_ratio[3] 	1
scalar tree_4_3_u06_r13_network.node[4].core_layer 	interests[4] 	50472
scalar tree_4_3_u06_r13_network.node[4].core_layer 	data[4] 	48583
scalar tree_4_3_u06_r13_network.node[4].content_store 	p_hit[4] 	0.037426692027263
scalar tree_4_3_u06_r13_network.node[4].content_store 	hits[4] 	1889
scalar tree_4_3_u06_r13_network.node[4].content_store 	misses[4] 	48583
scalar tree_4_3_u06_r13_network.node[4].content_store 	decision_yes[4] 	48583
scalar tree_4_3_u06_r13_network.node[4].content_store 	decision_no[4] 	0
scalar tree_4_3_u06_r13_network.node[4].content_store 	decision_ratio[4] 	1
scalar tree_4_3_u06_r13_network.node[5].core_layer 	interests[5] 	22223
scalar tree_4_3_u06_r13_network.node[5].core_layer 	data[5] 	20090
scalar tree_4_3_u06_r13_network.node[5].content_store 	p_hit[5] 	0.095981640642578
scalar tree_4_3_u06_r13_network.node[5].content_store 	hits[5] 	2133
scalar tree_4_3_u06_r13_network.node[5].content_store 	misses[5] 	20090
scalar tree_4_3_u06_r13_network.node[5].content_store 	decision_yes[5] 	20089
scalar tree_4_3_u06_r13_network.node[5].content_store 	decision_no[5] 	0
scalar tree_4_3_u06_r13_network.node[5].content_store 	decision_ratio[5] 	1
scalar tree_4_3_u06_r13_network.node[6].core_layer 	interests[6] 	24611
scalar tree_4_3_u06_r13_network.node[6].core_layer 	data[6] 	21374
scalar tree_4_3_u06_r13_network.node[6].content_store 	p_hit[6] 	0.13152655316728
scalar tree_4_3_u06_r13_network.node[6].content_store 	hits[6] 	3237
scalar tree_4_3_u06_r13_network.node[6].content_store 	misses[6] 	21374
scalar tree_4_3_u06_r13_network.node[6].content_store 	decision_yes[6] 	21373
scalar tree_4_3_u06_r13_network.node[6].content_store 	decision_no[6] 	0
scalar tree_4_3_u06_r13_network.node[6].content_store 	decision_ratio[6] 	1
scalar tree_4_3_u06_r13_network.node[7].core_layer 	interests[7] 	53309
scalar tree_4_3_u06_r13_network.node[7].core_layer 	data[7] 	50506
scalar tree_4_3_u06_r13_network.node[7].content_store 	p_hit[7] 	0.052542722617194
scalar tree_4_3_u06_r13_network.node[7].content_store 	hits[7] 	2801
scalar tree_4_3_u06_r13_network.node[7].content_store 	misses[7] 	50508
scalar tree_4_3_u06_r13_network.node[7].content_store 	decision_yes[7] 	50500
scalar tree_4_3_u06_r13_network.node[7].content_store 	decision_no[7] 	0
scalar tree_4_3_u06_r13_network.node[7].content_store 	decision_ratio[7] 	1
scalar tree_4_3_u06_r13_network.node[8].core_layer 	interests[8] 	20325
scalar tree_4_3_u06_r13_network.node[8].core_layer 	data[8] 	19206
scalar tree_4_3_u06_r13_network.node[8].content_store 	p_hit[8] 	0.055055350553506
scalar tree_4_3_u06_r13_network.node[8].content_store 	hits[8] 	1119
scalar tree_4_3_u06_r13_network.node[8].content_store 	misses[8] 	19206
scalar tree_4_3_u06_r13_network.node[8].content_store 	decision_yes[8] 	19205
scalar tree_4_3_u06_r13_network.node[8].content_store 	decision_no[8] 	0
scalar tree_4_3_u06_r13_network.node[8].content_store 	decision_ratio[8] 	1
scalar tree_4_3_u06_r13_network.node[9].core_layer 	interests[9] 	26983
scalar tree_4_3_u06_r13_network.node[9].core_layer 	data[9] 	23852
scalar tree_4_3_u06_r13_network.node[9].content_store 	p_hit[9] 	0.11607308305229
scalar tree_4_3_u06_r13_network.node[9].content_store 	hits[9] 	3132
scalar tree_4_3_u06_r13_network.node[9].content_store 	misses[9] 	23851
scalar tree_4_3_u06_r13_network.node[9].content_store 	decision_yes[9] 	23849
scalar tree_4_3_u06_r13_network.node[9].content_store 	decision_no[9] 	0
scalar tree_4_3_u06_r13_network.node[9].content_store 	decision_ratio[9] 	1
scalar tree_4_3_u06_r13_network.node[10].core_layer 	interests[10] 	33754
scalar tree_4_3_u06_r13_network.node[10].core_layer 	data[10] 	30796
scalar tree_4_3_u06_r13_network.node[10].content_store 	p_hit[10] 	0.087604432067311
scalar tree_4_3_u06_r13_network.node[10].content_store 	hits[10] 	2957
scalar tree_4_3_u06_r13_network.node[10].content_store 	misses[10] 	30797
scalar tree_4_3_u06_r13_network.node[10].content_store 	decision_yes[10] 	30792
scalar tree_4_3_u06_r13_network.node[10].content_store 	decision_no[10] 	0
scalar tree_4_3_u06_r13_network.node[10].content_store 	decision_ratio[10] 	1
scalar tree_4_3_u06_r13_network.node[11].core_layer 	interests[11] 	31615
scalar tree_4_3_u06_r13_network.node[11].core_layer 	data[11] 	30056
scalar tree_4_3_u06_r13_network.node[11].content_store 	p_hit[11] 	0.049185513205757
scalar tree_4_3_u06_r13_network.node[11].content_store 	hits[11] 	1555
scalar tree_4_3_u06_r13_network.node[11].content_store 	misses[11] 	30060
scalar tree_4_3_u06_r13_network.node[11].content_store 	decision_yes[11] 	30051
scalar tree_4_3_u06_r13_network.node[11].content_store 	decision_no[11] 	0
scalar tree_4_3_u06_r13_network.node[11].content_store 	decision_ratio[11] 	1
scalar tree_4_3_u06_r13_network.node[12].core_layer 	interests[12] 	33912
scalar tree_4_3_u06_r13_network.node[12].core_layer 	data[12] 	31486
scalar tree_4_3_u06_r13_network.node[12].content_store 	p_hit[12] 	0.071420146260911
scalar tree_4_3_u06_r13_network.node[12].content_store 	hits[12] 	2422
scalar tree_4_3_u06_r13_network.node[12].content_store 	misses[12] 	31490
scalar tree_4_3_u06_r13_network.node[12].content_store 	decision_yes[12] 	31483
scalar tree_4_3_u06_r13_network.node[12].content_store 	decision_no[12] 	0
scalar tree_4_3_u06_r13_network.node[12].content_store 	decision_ratio[12] 	1
scalar tree_4_3_u06_r13_network.node[13].core_layer 	interests[13] 	13276
scalar tree_4_3_u06_r13_network.node[13].core_layer 	data[13] 	10153
scalar tree_4_3_u06_r13_network.node[13].content_store 	p_hit[13] 	0.23516119313046
scalar tree_4_3_u06_r13_network.node[13].content_store 	hits[13] 	3122
scalar tree_4_3_u06_r13_network.node[13].content_store 	misses[13] 	10154
scalar tree_4_3_u06_r13_network.node[13].content_store 	decision_yes[13] 	10153
scalar tree_4_3_u06_r13_network.node[13].content_store 	decision_no[13] 	0
scalar tree_4_3_u06_r13_network.node[13].content_store 	decision_ratio[13] 	1
scalar tree_4_3_u06_r13_network.node[14].core_layer 	interests[14] 	13708
scalar tree_4_3_u06_r13_network.node[14].core_layer 	data[14] 	10042
scalar tree_4_3_u06_r13_network.node[14].content_store 	p_hit[14] 	0.2674350744091
scalar tree_4_3_u06_r13_network.node[14].content_store 	hits[14] 	3666
scalar tree_4_3_u06_r13_network.node[14].content_store 	misses[14] 	10042
scalar tree_4_3_u06_r13_network.node[14].content_store 	decision_yes[14] 	10042
scalar tree_4_3_u06_r13_network.node[14].content_store 	decision_no[14] 	0
scalar tree_4_3_u06_r13_network.node[14].content_store 	decision_ratio[14] 	1
scalar tree_4_3_u06_r13_network.node[15].core_layer 	interests[15] 	14149
scalar tree_4_3_u06_r13_network.node[15].core_layer 	data[15] 	10208
scalar tree_4_3_u06_r13_network.node[15].content_store 	p_hit[15] 	0.27853558555375
scalar tree_4_3_u06_r13_network.node[15].content_store 	hits[15] 	3941
scalar tree_4_3_u06_r13_network.node[15].content_store 	misses[15] 	10208
scalar tree_4_3_u06_r13_network.node[15].content_store 	decision_yes[15] 	10208
scalar tree_4_3_u06_r13_network.node[15].content_store 	decision_no[15] 	0
scalar tree_4_3_u06_r13_network.node[15].content_store 	decision_ratio[15] 	1
scalar tree_4_3_u06_r13_network.node[16].core_layer 	interests[16] 	13821
scalar tree_4_3_u06_r13_network.node[16].core_layer 	data[16] 	10036
scalar tree_4_3_u06_r13_network.node[16].content_store 	p_hit[16] 	0.27385862093915
scalar tree_4_3_u06_r13_network.node[16].content_store 	hits[16] 	3785
scalar tree_4_3_u06_r13_network.node[16].content_store 	misses[16] 	10036
scalar tree_4_3_u06_r13_network.node[16].content_store 	decision_yes[16] 	10036
scalar tree_4_3_u06_r13_network.node[16].content_store 	decision_no[16] 	0
scalar tree_4_3_u06_r13_network.node[16].content_store 	decision_ratio[16] 	1
scalar tree_4_3_u06_r13_network.node[17].core_layer 	interests[17] 	12925
scalar tree_4_3_u06_r13_network.node[17].core_layer 	data[17] 	10313
scalar tree_4_3_u06_r13_network.node[17].content_store 	p_hit[17] 	0.20208897485493
scalar tree_4_3_u06_r13_network.node[17].content_store 	hits[17] 	2612
scalar tree_4_3_u06_r13_network.node[17].content_store 	misses[17] 	10313
scalar tree_4_3_u06_r13_network.node[17].content_store 	decision_yes[17] 	10313
scalar tree_4_3_u06_r13_network.node[17].content_store 	decision_no[17] 	0
scalar tree_4_3_u06_r13_network.node[17].content_store 	decision_ratio[17] 	1
scalar tree_4_3_u06_r13_network.node[18].core_layer 	interests[18] 	13828
scalar tree_4_3_u06_r13_network.node[18].core_layer 	data[18] 	9957
scalar tree_4_3_u06_r13_network.node[18].content_store 	p_hit[18] 	0.27993925368817
scalar tree_4_3_u06_r13_network.node[18].content_store 	hits[18] 	3871
scalar tree_4_3_u06_r13_network.node[18].content_store 	misses[18] 	9957
scalar tree_4_3_u06_r13_network.node[18].content_store 	decision_yes[18] 	9957
scalar tree_4_3_u06_r13_network.node[18].content_store 	decision_no[18] 	0
scalar tree_4_3_u06_r13_network.node[18].content_store 	decision_ratio[18] 	1
scalar tree_4_3_u06_r13_network.node[19].core_layer 	interests[19] 	13939
scalar tree_4_3_u06_r13_network.node[19].core_layer 	data[19] 	9948
scalar tree_4_3_u06_r13_network.node[19].content_store 	p_hit[19] 	0.28624722003013
scalar tree_4_3_u06_r13_network.node[19].content_store 	hits[19] 	3990
scalar tree_4_3_u06_r13_network.node[19].content_store 	misses[19] 	9949
scalar tree_4_3_u06_r13_network.node[19].content_store 	decision_yes[19] 	9948
scalar tree_4_3_u06_r13_network.node[19].content_store 	decision_no[19] 	0
scalar tree_4_3_u06_r13_network.node[19].content_store 	decision_ratio[19] 	1
scalar tree_4_3_u06_r13_network.node[20].core_layer 	interests[20] 	12702
scalar tree_4_3_u06_r13_network.node[20].core_layer 	data[20] 	9988
scalar tree_4_3_u06_r13_network.node[20].content_store 	p_hit[20] 	0.21358841127382
scalar tree_4_3_u06_r13_network.node[20].content_store 	hits[20] 	2713
scalar tree_4_3_u06_r13_network.node[20].content_store 	misses[20] 	9989
scalar tree_4_3_u06_r13_network.node[20].content_store 	decision_yes[20] 	9988
scalar tree_4_3_u06_r13_network.node[20].content_store 	decision_no[20] 	0
scalar tree_4_3_u06_r13_network.node[20].content_store 	decision_ratio[20] 	1
scalar tree_4_3_u06_r13_network.node[21].core_layer 	interests[21] 	12628
scalar tree_4_3_u06_r13_network.node[21].core_layer 	data[21] 	9900
scalar tree_4_3_u06_r13_network.node[21].content_store 	p_hit[21] 	0.21594868546088
scalar tree_4_3_u06_r13_network.node[21].content_store 	hits[21] 	2727
scalar tree_4_3_u06_r13_network.node[21].content_store 	misses[21] 	9901
scalar tree_4_3_u06_r13_network.node[21].content_store 	decision_yes[21] 	9900
scalar tree_4_3_u06_r13_network.node[21].content_store 	decision_no[21] 	0
scalar tree_4_3_u06_r13_network.node[21].content_store 	decision_ratio[21] 	1
scalar tree_4_3_u06_r13_network.node[22].core_layer 	interests[22] 	13640
scalar tree_4_3_u06_r13_network.node[22].core_layer 	data[22] 	10102
scalar tree_4_3_u06_r13_network.node[22].content_store 	p_hit[22] 	0.25931085043988
scalar tree_4_3_u06_r13_network.node[22].content_store 	hits[22] 	3537
scalar tree_4_3_u06_r13_network.node[22].content_store 	misses[22] 	10103
scalar tree_4_3_u06_r13_network.node[22].content_store 	decision_yes[22] 	10102
scalar tree_4_3_u06_r13_network.node[22].content_store 	decision_no[22] 	0
scalar tree_4_3_u06_r13_network.node[22].content_store 	decision_ratio[22] 	1
scalar tree_4_3_u06_r13_network.node[23].core_layer 	interests[23] 	14294
scalar tree_4_3_u06_r13_network.node[23].core_layer 	data[23] 	9940
scalar tree_4_3_u06_r13_network.node[23].content_store 	p_hit[23] 	0.30460333006856
scalar tree_4_3_u06_r13_network.node[23].content_store 	hits[23] 	4354
scalar tree_4_3_u06_r13_network.node[23].content_store 	misses[23] 	9940
scalar tree_4_3_u06_r13_network.node[23].content_store 	decision_yes[23] 	9940
scalar tree_4_3_u06_r13_network.node[23].content_store 	decision_no[23] 	0
scalar tree_4_3_u06_r13_network.node[23].content_store 	decision_ratio[23] 	1
scalar tree_4_3_u06_r13_network.node[24].core_layer 	interests[24] 	13651
scalar tree_4_3_u06_r13_network.node[24].core_layer 	data[24] 	10100
scalar tree_4_3_u06_r13_network.node[24].content_store 	p_hit[24] 	0.26012746318951
scalar tree_4_3_u06_r13_network.node[24].content_store 	hits[24] 	3551
scalar tree_4_3_u06_r13_network.node[24].content_store 	misses[24] 	10100
scalar tree_4_3_u06_r13_network.node[24].content_store 	decision_yes[24] 	10100
scalar tree_4_3_u06_r13_network.node[24].content_store 	decision_no[24] 	0
scalar tree_4_3_u06_r13_network.node[24].content_store 	decision_ratio[24] 	1
scalar tree_4_3_u06_r13_network.node[25].core_layer 	interests[25] 	14134
scalar tree_4_3_u06_r13_network.node[25].core_layer 	data[25] 	9868
scalar tree_4_3_u06_r13_network.node[25].content_store 	p_hit[25] 	0.30189613697467
scalar tree_4_3_u06_r13_network.node[25].content_store 	hits[25] 	4267
scalar tree_4_3_u06_r13_network.node[25].content_store 	misses[25] 	9867
scalar tree_4_3_u06_r13_network.node[25].content_store 	decision_yes[25] 	9868
scalar tree_4_3_u06_r13_network.node[25].content_store 	decision_no[25] 	0
scalar tree_4_3_u06_r13_network.node[25].content_store 	decision_ratio[25] 	1
scalar tree_4_3_u06_r13_network.node[26].core_layer 	interests[26] 	12545
scalar tree_4_3_u06_r13_network.node[26].core_layer 	data[26] 	10191
scalar tree_4_3_u06_r13_network.node[26].content_store 	p_hit[26] 	0.1874850538063
scalar tree_4_3_u06_r13_network.node[26].content_store 	hits[26] 	2352
scalar tree_4_3_u06_r13_network.node[26].content_store 	misses[26] 	10193
scalar tree_4_3_u06_r13_network.node[26].content_store 	decision_yes[26] 	10191
scalar tree_4_3_u06_r13_network.node[26].content_store 	decision_no[26] 	0
scalar tree_4_3_u06_r13_network.node[26].content_store 	decision_ratio[26] 	1
scalar tree_4_3_u06_r13_network.node[27].core_layer 	interests[27] 	14233
scalar tree_4_3_u06_r13_network.node[27].core_layer 	data[27] 	10174
scalar tree_4_3_u06_r13_network.node[27].content_store 	p_hit[27] 	0.28518232277103
scalar tree_4_3_u06_r13_network.node[27].content_store 	hits[27] 	4059
scalar tree_4_3_u06_r13_network.node[27].content_store 	misses[27] 	10174
scalar tree_4_3_u06_r13_network.node[27].content_store 	decision_yes[27] 	10174
scalar tree_4_3_u06_r13_network.node[27].content_store 	decision_no[27] 	0
scalar tree_4_3_u06_r13_network.node[27].content_store 	decision_ratio[27] 	1
scalar tree_4_3_u06_r13_network.node[28].core_layer 	interests[28] 	15378
scalar tree_4_3_u06_r13_network.node[28].core_layer 	data[28] 	9994
scalar tree_4_3_u06_r13_network.node[28].content_store 	p_hit[28] 	0.35004551957342
scalar tree_4_3_u06_r13_network.node[28].content_store 	hits[28] 	5383
scalar tree_4_3_u06_r13_network.node[28].content_store 	misses[28] 	9995
scalar tree_4_3_u06_r13_network.node[28].content_store 	decision_yes[28] 	9994
scalar tree_4_3_u06_r13_network.node[28].content_store 	decision_no[28] 	0
scalar tree_4_3_u06_r13_network.node[28].content_store 	decision_ratio[28] 	1
scalar tree_4_3_u06_r13_network.node[29].core_layer 	interests[29] 	13146
scalar tree_4_3_u06_r13_network.node[29].core_layer 	data[29] 	10143
scalar tree_4_3_u06_r13_network.node[29].content_store 	p_hit[29] 	0.22843450479233
scalar tree_4_3_u06_r13_network.node[29].content_store 	hits[29] 	3003
scalar tree_4_3_u06_r13_network.node[29].content_store 	misses[29] 	10143
scalar tree_4_3_u06_r13_network.node[29].content_store 	decision_yes[29] 	10143
scalar tree_4_3_u06_r13_network.node[29].content_store 	decision_no[29] 	0
scalar tree_4_3_u06_r13_network.node[29].content_store 	decision_ratio[29] 	1
scalar tree_4_3_u06_r13_network.node[30].core_layer 	interests[30] 	12943
scalar tree_4_3_u06_r13_network.node[30].core_layer 	data[30] 	10048
scalar tree_4_3_u06_r13_network.node[30].content_store 	p_hit[30] 	0.22359576605115
scalar tree_4_3_u06_r13_network.node[30].content_store 	hits[30] 	2894
scalar tree_4_3_u06_r13_network.node[30].content_store 	misses[30] 	10049
scalar tree_4_3_u06_r13_network.node[30].content_store 	decision_yes[30] 	10048
scalar tree_4_3_u06_r13_network.node[30].content_store 	decision_no[30] 	0
scalar tree_4_3_u06_r13_network.node[30].content_store 	decision_ratio[30] 	1
scalar tree_4_3_u06_r13_network.node[31].core_layer 	interests[31] 	13438
scalar tree_4_3_u06_r13_network.node[31].core_layer 	data[31] 	10051
scalar tree_4_3_u06_r13_network.node[31].content_store 	p_hit[31] 	0.25204643548147
scalar tree_4_3_u06_r13_network.node[31].content_store 	hits[31] 	3387
scalar tree_4_3_u06_r13_network.node[31].content_store 	misses[31] 	10051
scalar tree_4_3_u06_r13_network.node[31].content_store 	decision_yes[31] 	10051
scalar tree_4_3_u06_r13_network.node[31].content_store 	decision_no[31] 	0
scalar tree_4_3_u06_r13_network.node[31].content_store 	decision_ratio[31] 	1
scalar tree_4_3_u06_r13_network.node[32].core_layer 	interests[32] 	14492
scalar tree_4_3_u06_r13_network.node[32].core_layer 	data[32] 	10178
scalar tree_4_3_u06_r13_network.node[32].content_store 	p_hit[32] 	0.29761247584874
scalar tree_4_3_u06_r13_network.node[32].content_store 	hits[32] 	4313
scalar tree_4_3_u06_r13_network.node[32].content_store 	misses[32] 	10179
scalar tree_4_3_u06_r13_network.node[32].content_store 	decision_yes[32] 	10178
scalar tree_4_3_u06_r13_network.node[32].content_store 	decision_no[32] 	0
scalar tree_4_3_u06_r13_network.node[32].content_store 	decision_ratio[32] 	1
scalar tree_4_3_u06_r13_network.node[33].core_layer 	interests[33] 	14824
scalar tree_4_3_u06_r13_network.node[33].core_layer 	data[33] 	10009
scalar tree_4_3_u06_r13_network.node[33].content_store 	p_hit[33] 	0.32481111710739
scalar tree_4_3_u06_r13_network.node[33].content_store 	hits[33] 	4815
scalar tree_4_3_u06_r13_network.node[33].content_store 	misses[33] 	10009
scalar tree_4_3_u06_r13_network.node[33].content_store 	decision_yes[33] 	10009
scalar tree_4_3_u06_r13_network.node[33].content_store 	decision_no[33] 	0
scalar tree_4_3_u06_r13_network.node[33].content_store 	decision_ratio[33] 	1
scalar tree_4_3_u06_r13_network.node[34].core_layer 	interests[34] 	12839
scalar tree_4_3_u06_r13_network.node[34].core_layer 	data[34] 	10032
scalar tree_4_3_u06_r13_network.node[34].content_store 	p_hit[34] 	0.21863073448088
scalar tree_4_3_u06_r13_network.node[34].content_store 	hits[34] 	2807
scalar tree_4_3_u06_r13_network.node[34].content_store 	misses[34] 	10032
scalar tree_4_3_u06_r13_network.node[34].content_store 	decision_yes[34] 	10032
scalar tree_4_3_u06_r13_network.node[34].content_store 	decision_no[34] 	0
scalar tree_4_3_u06_r13_network.node[34].content_store 	decision_ratio[34] 	1
scalar tree_4_3_u06_r13_network.node[35].core_layer 	interests[35] 	12991
scalar tree_4_3_u06_r13_network.node[35].core_layer 	data[35] 	10181
scalar tree_4_3_u06_r13_network.node[35].content_store 	p_hit[35] 	0.21614964205989
scalar tree_4_3_u06_r13_network.node[35].content_store 	hits[35] 	2808
scalar tree_4_3_u06_r13_network.node[35].content_store 	misses[35] 	10183
scalar tree_4_3_u06_r13_network.node[35].content_store 	decision_yes[35] 	10181
scalar tree_4_3_u06_r13_network.node[35].content_store 	decision_no[35] 	0
scalar tree_4_3_u06_r13_network.node[35].content_store 	decision_ratio[35] 	1
scalar tree_4_3_u06_r13_network.node[36].core_layer 	interests[36] 	14268
scalar tree_4_3_u06_r13_network.node[36].core_layer 	data[36] 	9998
scalar tree_4_3_u06_r13_network.node[36].content_store 	p_hit[36] 	0.29927109615924
scalar tree_4_3_u06_r13_network.node[36].content_store 	hits[36] 	4270
scalar tree_4_3_u06_r13_network.node[36].content_store 	misses[36] 	9998
scalar tree_4_3_u06_r13_network.node[36].content_store 	decision_yes[36] 	9998
scalar tree_4_3_u06_r13_network.node[36].content_store 	decision_no[36] 	0
scalar tree_4_3_u06_r13_network.node[36].content_store 	decision_ratio[36] 	1
scalar tree_4_3_u06_r13_network.node[37].core_layer 	interests[37] 	12938
scalar tree_4_3_u06_r13_network.node[37].core_layer 	data[37] 	10034
scalar tree_4_3_u06_r13_network.node[37].content_store 	p_hit[37] 	0.22430051012521
scalar tree_4_3_u06_r13_network.node[37].content_store 	hits[37] 	2902
scalar tree_4_3_u06_r13_network.node[37].content_store 	misses[37] 	10036
scalar tree_4_3_u06_r13_network.node[37].content_store 	decision_yes[37] 	10034
scalar tree_4_3_u06_r13_network.node[37].content_store 	decision_no[37] 	0
scalar tree_4_3_u06_r13_network.node[37].content_store 	decision_ratio[37] 	1
scalar tree_4_3_u06_r13_network.node[38].core_layer 	interests[38] 	13027
scalar tree_4_3_u06_r13_network.node[38].core_layer 	data[38] 	10060
scalar tree_4_3_u06_r13_network.node[38].content_store 	p_hit[38] 	0.22775773393721
scalar tree_4_3_u06_r13_network.node[38].content_store 	hits[38] 	2967
scalar tree_4_3_u06_r13_network.node[38].content_store 	misses[38] 	10060
scalar tree_4_3_u06_r13_network.node[38].content_store 	decision_yes[38] 	10060
scalar tree_4_3_u06_r13_network.node[38].content_store 	decision_no[38] 	0
scalar tree_4_3_u06_r13_network.node[38].content_store 	decision_ratio[38] 	1
scalar tree_4_3_u06_r13_network.node[39].core_layer 	interests[39] 	13076
scalar tree_4_3_u06_r13_network.node[39].core_layer 	data[39] 	10077
scalar tree_4_3_u06_r13_network.node[39].content_store 	p_hit[39] 	0.22919853166106
scalar tree_4_3_u06_r13_network.node[39].content_store 	hits[39] 	2997
scalar tree_4_3_u06_r13_network.node[39].content_store 	misses[39] 	10079
scalar tree_4_3_u06_r13_network.node[39].content_store 	decision_yes[39] 	10077
scalar tree_4_3_u06_r13_network.node[39].content_store 	decision_no[39] 	0
scalar tree_4_3_u06_r13_network.node[39].content_store 	decision_ratio[39] 	1
scalar tree_4_3_u06_r13_network.client[13] 	hdistance[13] 	3.0756469807565
scalar tree_4_3_u06_r13_network.client[13] 	downloads[13] 	12056
scalar tree_4_3_u06_r13_network.client[13] 	avg_time[13] 	0.004877818577
scalar tree_4_3_u06_r13_network.client[14] 	hdistance[14] 	3.0167504187605
scalar tree_4_3_u06_r13_network.client[14] 	downloads[14] 	11940
scalar tree_4_3_u06_r13_network.client[14] 	avg_time[14] 	0.004758455979
scalar tree_4_3_u06_r13_network.client[15] 	hdistance[15] 	2.9808859721083
scalar tree_4_3_u06_r13_network.client[15] 	downloads[15] 	12190
scalar tree_4_3_u06_r13_network.client[15] 	avg_time[15] 	0.00471008716
scalar tree_4_3_u06_r13_network.client[16] 	hdistance[16] 	3.0033361134279
scalar tree_4_3_u06_r13_network.client[16] 	downloads[16] 	11990
scalar tree_4_3_u06_r13_network.client[16] 	avg_time[16] 	0.004740947809
scalar tree_4_3_u06_r13_network.client[17] 	hdistance[17] 	3.108070462925
scalar tree_4_3_u06_r13_network.client[17] 	downloads[17] 	12205
scalar tree_4_3_u06_r13_network.client[17] 	avg_time[17] 	0.004948624531
scalar tree_4_3_u06_r13_network.client[18] 	hdistance[18] 	2.9693630520077
scalar tree_4_3_u06_r13_network.client[18] 	downloads[18] 	11979
scalar tree_4_3_u06_r13_network.client[18] 	avg_time[18] 	0.004684948553
scalar tree_4_3_u06_r13_network.client[19] 	hdistance[19] 	2.9649785840262
scalar tree_4_3_u06_r13_network.client[19] 	downloads[19] 	11907
scalar tree_4_3_u06_r13_network.client[19] 	avg_time[19] 	0.004670254132
scalar tree_4_3_u06_r13_network.client[20] 	hdistance[20] 	3.0660544275002
scalar tree_4_3_u06_r13_network.client[20] 	downloads[20] 	11869
scalar tree_4_3_u06_r13_network.client[20] 	avg_time[20] 	0.004876066325
scalar tree_4_3_u06_r13_network.client[21] 	hdistance[21] 	3.064209274673
scalar tree_4_3_u06_r13_network.client[21] 	downloads[21] 	11774
scalar tree_4_3_u06_r13_network.client[21] 	avg_time[21] 	0.004862722207
scalar tree_4_3_u06_r13_network.client[22] 	hdistance[22] 	3.041134751773
scalar tree_4_3_u06_r13_network.client[22] 	downloads[22] 	11985
scalar tree_4_3_u06_r13_network.client[22] 	avg_time[22] 	0.004841822731
scalar tree_4_3_u06_r13_network.client[23] 	hdistance[23] 	2.9622926093514
scalar tree_4_3_u06_r13_network.client[23] 	downloads[23] 	11934
scalar tree_4_3_u06_r13_network.client[23] 	avg_time[23] 	0.004707220053
scalar tree_4_3_u06_r13_network.client[24] 	hdistance[24] 	3.0379249853813
scalar tree_4_3_u06_r13_network.client[24] 	downloads[24] 	11971
scalar tree_4_3_u06_r13_network.client[24] 	avg_time[24] 	0.004848547656
scalar tree_4_3_u06_r13_network.client[25] 	hdistance[25] 	2.9531606042704
scalar tree_4_3_u06_r13_network.client[25] 	downloads[25] 	11849
scalar tree_4_3_u06_r13_network.client[25] 	avg_time[25] 	0.004689145803
scalar tree_4_3_u06_r13_network.client[26] 	hdistance[26] 	3.123305785124
scalar tree_4_3_u06_r13_network.client[26] 	downloads[26] 	12100
scalar tree_4_3_u06_r13_network.client[26] 	avg_time[26] 	0.004891238957
scalar tree_4_3_u06_r13_network.client[27] 	hdistance[27] 	2.9897187037342
scalar tree_4_3_u06_r13_network.client[27] 	downloads[27] 	12158
scalar tree_4_3_u06_r13_network.client[27] 	avg_time[27] 	0.00471557517
scalar tree_4_3_u06_r13_network.client[28] 	hdistance[28] 	2.9265786835951
scalar tree_4_3_u06_r13_network.client[28] 	downloads[28] 	11972
scalar tree_4_3_u06_r13_network.client[28] 	avg_time[28] 	0.004661459617
scalar tree_4_3_u06_r13_network.client[29] 	hdistance[29] 	3.0513945212282
scalar tree_4_3_u06_r13_network.client[29] 	downloads[29] 	12083
scalar tree_4_3_u06_r13_network.client[29] 	avg_time[29] 	0.004855343363
scalar tree_4_3_u06_r13_network.client[30] 	hdistance[30] 	3.073959032908
scalar tree_4_3_u06_r13_network.client[30] 	downloads[30] 	11912
scalar tree_4_3_u06_r13_network.client[30] 	avg_time[30] 	0.004903717042
scalar tree_4_3_u06_r13_network.client[31] 	hdistance[31] 	3.0691928887405
scalar tree_4_3_u06_r13_network.client[31] 	downloads[31] 	11981
scalar tree_4_3_u06_r13_network.client[31] 	avg_time[31] 	0.004947831071
scalar tree_4_3_u06_r13_network.client[32] 	hdistance[32] 	3.0016535758578
scalar tree_4_3_u06_r13_network.client[32] 	downloads[32] 	12095
scalar tree_4_3_u06_r13_network.client[32] 	avg_time[32] 	0.004804855569
scalar tree_4_3_u06_r13_network.client[33] 	hdistance[33] 	2.9441999501785
scalar tree_4_3_u06_r13_network.client[33] 	downloads[33] 	12043
scalar tree_4_3_u06_r13_network.client[33] 	avg_time[33] 	0.004700532243
scalar tree_4_3_u06_r13_network.client[34] 	hdistance[34] 	3.1125482949773
scalar tree_4_3_u06_r13_network.client[34] 	downloads[34] 	11906
scalar tree_4_3_u06_r13_network.client[34] 	avg_time[34] 	0.004915136421
scalar tree_4_3_u06_r13_network.client[35] 	hdistance[35] 	3.0939591769275
scalar tree_4_3_u06_r13_network.client[35] 	downloads[35] 	12101
scalar tree_4_3_u06_r13_network.client[35] 	avg_time[35] 	0.004891408932
scalar tree_4_3_u06_r13_network.client[36] 	hdistance[36] 	2.9636123056566
scalar tree_4_3_u06_r13_network.client[36] 	downloads[36] 	12092
scalar tree_4_3_u06_r13_network.client[36] 	avg_time[36] 	0.004629669493
scalar tree_4_3_u06_r13_network.client[37] 	hdistance[37] 	3.0642378559464
scalar tree_4_3_u06_r13_network.client[37] 	downloads[37] 	11940
scalar tree_4_3_u06_r13_network.client[37] 	avg_time[37] 	0.004822402958
scalar tree_4_3_u06_r13_network.client[38] 	hdistance[38] 	3.0751527324462
scalar tree_4_3_u06_r13_network.client[38] 	downloads[38] 	11949
scalar tree_4_3_u06_r13_network.client[38] 	avg_time[38] 	0.004849473611
scalar tree_4_3_u06_r13_network.client[39] 	hdistance[39] 	3.0573449854349
scalar tree_4_3_u06_r13_network.client[39] 	downloads[39] 	12015
scalar tree_4_3_u06_r13_network.client[39] 	avg_time[39] 	0.004812156525
