version 2
run General-71-20160902-20:10:53-4279
attr a 0.9
attr cd ffc0.2
attr configname General
attr cr lru
attr datetime 20160902-20:10:53
attr experiment General
attr fsize 1
attr inifile hw5115/scenario_Y/omnetp.ini
attr iterationvars "$name=tree_4_3, $un=03, $rep=12, $cd=ffc0.2, $cr=lru, $fsize=1, $a=0.9, $sl=nrr, $ttl=1000, $variance=0.05"
attr iterationvars2 "$name=tree_4_3, $un=03, $rep=12, $cd=ffc0.2, $cr=lru, $fsize=1, $a=0.9, $sl=nrr, $ttl=1000, $variance=0.05, $repetition=0"
attr measurement "$name=tree_4_3, $un=03, $rep=12, $cd=ffc0.2, $cr=lru, $fsize=1, $a=0.9, $sl=nrr, $ttl=1000, $variance=0.05"
attr name tree_4_3
attr network networks.${name}_u${un}_r${rep}_network
attr processid 4279
attr rep 12
attr repetition 0
attr replication #0
attr resultdir results
attr runnumber 71
attr seedset 12
attr sl nrr
attr ttl 1000
attr un 03
attr variance 0.05

scalar . 	a 	0.9
scalar . 	fsize 	1
scalar . 	rep 	12
scalar . 	ttl 	1000
scalar . 	un 	03
scalar . 	variance 	0.05
scalar tree_4_3_u03_r12_network.content_distribution 	repo-0 	0
scalar tree_4_3_u03_r12_network.content_distribution 	client-0 	13
scalar tree_4_3_u03_r12_network.content_distribution 	client-1 	14
scalar tree_4_3_u03_r12_network.content_distribution 	client-2 	15
scalar tree_4_3_u03_r12_network.content_distribution 	client-3 	16
scalar tree_4_3_u03_r12_network.content_distribution 	client-4 	17
scalar tree_4_3_u03_r12_network.content_distribution 	client-5 	18
scalar tree_4_3_u03_r12_network.content_distribution 	client-6 	19
scalar tree_4_3_u03_r12_network.content_distribution 	client-7 	20
scalar tree_4_3_u03_r12_network.content_distribution 	client-8 	21
scalar tree_4_3_u03_r12_network.content_distribution 	client-9 	22
scalar tree_4_3_u03_r12_network.content_distribution 	client-10 	23
scalar tree_4_3_u03_r12_network.content_distribution 	client-11 	24
scalar tree_4_3_u03_r12_network.content_distribution 	client-12 	25
scalar tree_4_3_u03_r12_network.content_distribution 	client-13 	26
scalar tree_4_3_u03_r12_network.content_distribution 	client-14 	27
scalar tree_4_3_u03_r12_network.content_distribution 	client-15 	28
scalar tree_4_3_u03_r12_network.content_distribution 	client-16 	29
scalar tree_4_3_u03_r12_network.content_distribution 	client-17 	30
scalar tree_4_3_u03_r12_network.content_distribution 	client-18 	31
scalar tree_4_3_u03_r12_network.content_distribution 	client-19 	32
scalar tree_4_3_u03_r12_network.content_distribution 	client-20 	33
scalar tree_4_3_u03_r12_network.content_distribution 	client-21 	34
scalar tree_4_3_u03_r12_network.content_distribution 	client-22 	35
scalar tree_4_3_u03_r12_network.content_distribution 	client-23 	36
scalar tree_4_3_u03_r12_network.content_distribution 	client-24 	37
scalar tree_4_3_u03_r12_network.content_distribution 	client-25 	38
scalar tree_4_3_u03_r12_network.content_distribution 	client-26 	39
scalar tree_4_3_u03_r12_network.content_distribution 	repo-0_card 	100000
scalar tree_4_3_u03_r12_network.content_distribution 	repo-0_price 	0
scalar tree_4_3_u03_r12_network.statistics 	stabilization_time 	2021.9
scalar tree_4_3_u03_r12_network.statistics 	p_hit 	0.22888544170362
scalar tree_4_3_u03_r12_network.statistics 	interests 	24687.55
scalar tree_4_3_u03_r12_network.statistics 	data 	16595.3
scalar tree_4_3_u03_r12_network.statistics 	hdistance 	2.6317554807927
scalar tree_4_3_u03_r12_network.statistics 	avg_time 	0.004101545621
scalar tree_4_3_u03_r12_network.statistics 	downloads 	323693
scalar tree_4_3_u03_r12_network.statistics 	total_cost 	0
scalar tree_4_3_u03_r12_network.statistics 	total_replicas 	100000
scalar tree_4_3_u03_r12_network.statistics 	inner_hit 	0.41905447445573
scalar tree_4_3_u03_r12_network.node[0].core_layer 	interests[0] 	191694
scalar tree_4_3_u03_r12_network.node[0].core_layer 	repo_load[0] 	188048
scalar tree_4_3_u03_r12_network.node[0].core_layer 	data[0] 	0
scalar tree_4_3_u03_r12_network.node[0].core_layer 	repo_int[0] 	188048
scalar tree_4_3_u03_r12_network.node[0].content_store 	p_hit[0] 	0.01901989629305
scalar tree_4_3_u03_r12_network.node[0].content_store 	hits[0] 	3646
scalar tree_4_3_u03_r12_network.node[0].content_store 	misses[0] 	188048
scalar tree_4_3_u03_r12_network.node[0].content_store 	decision_yes[0] 	169
scalar tree_4_3_u03_r12_network.node[0].content_store 	decision_no[0] 	187879
scalar tree_4_3_u03_r12_network.node[0].content_store 	decision_ratio[0] 	0.00089870671317961
scalar tree_4_3_u03_r12_network.node[1].core_layer 	interests[1] 	68206
scalar tree_4_3_u03_r12_network.node[1].core_layer 	data[1] 	66195
scalar tree_4_3_u03_r12_network.node[1].content_store 	p_hit[1] 	0.029484209600328
scalar tree_4_3_u03_r12_network.node[1].content_store 	hits[1] 	2011
scalar tree_4_3_u03_r12_network.node[1].content_store 	misses[1] 	66195
scalar tree_4_3_u03_r12_network.node[1].content_store 	decision_yes[1] 	80
scalar tree_4_3_u03_r12_network.node[1].content_store 	decision_no[1] 	66115
scalar tree_4_3_u03_r12_network.node[1].content_store 	decision_ratio[1] 	0.0012085504947504
scalar tree_4_3_u03_r12_network.node[2].core_layer 	interests[2] 	69790
scalar tree_4_3_u03_r12_network.node[2].core_layer 	data[2] 	67617
scalar tree_4_3_u03_r12_network.node[2].content_store 	p_hit[2] 	0.031136265940679
scalar tree_4_3_u03_r12_network.node[2].content_store 	hits[2] 	2173
scalar tree_4_3_u03_r12_network.node[2].content_store 	misses[2] 	67617
scalar tree_4_3_u03_r12_network.node[2].content_store 	decision_yes[2] 	99
scalar tree_4_3_u03_r12_network.node[2].content_store 	decision_no[2] 	67518
scalar tree_4_3_u03_r12_network.node[2].content_store 	decision_ratio[2] 	0.0014641288433382
scalar tree_4_3_u03_r12_network.node[3].core_layer 	interests[3] 	72344
scalar tree_4_3_u03_r12_network.node[3].core_layer 	data[3] 	69034
scalar tree_4_3_u03_r12_network.node[3].content_store 	p_hit[3] 	0.045767444432157
scalar tree_4_3_u03_r12_network.node[3].content_store 	hits[3] 	3311
scalar tree_4_3_u03_r12_network.node[3].content_store 	misses[3] 	69033
scalar tree_4_3_u03_r12_network.node[3].content_store 	decision_yes[3] 	81
scalar tree_4_3_u03_r12_network.node[3].content_store 	decision_no[3] 	68953
scalar tree_4_3_u03_r12_network.node[3].content_store 	decision_ratio[3] 	0.0011733348784657
scalar tree_4_3_u03_r12_network.node[4].core_layer 	interests[4] 	25901
scalar tree_4_3_u03_r12_network.node[4].core_layer 	data[4] 	23993
scalar tree_4_3_u03_r12_network.node[4].content_store 	p_hit[4] 	0.073665109455233
scalar tree_4_3_u03_r12_network.node[4].content_store 	hits[4] 	1908
scalar tree_4_3_u03_r12_network.node[4].content_store 	misses[4] 	23993
scalar tree_4_3_u03_r12_network.node[4].content_store 	decision_yes[4] 	40
scalar tree_4_3_u03_r12_network.node[4].content_store 	decision_no[4] 	23953
scalar tree_4_3_u03_r12_network.node[4].content_store 	decision_ratio[4] 	0.0016671529196016
scalar tree_4_3_u03_r12_network.node[5].core_layer 	interests[5] 	26028
scalar tree_4_3_u03_r12_network.node[5].core_layer 	data[5] 	24132
scalar tree_4_3_u03_r12_network.node[5].content_store 	p_hit[5] 	0.072844628861226
scalar tree_4_3_u03_r12_network.node[5].content_store 	hits[5] 	1896
scalar tree_4_3_u03_r12_network.node[5].content_store 	misses[5] 	24132
scalar tree_4_3_u03_r12_network.node[5].content_store 	decision_yes[5] 	34
scalar tree_4_3_u03_r12_network.node[5].content_store 	decision_no[5] 	24098
scalar tree_4_3_u03_r12_network.node[5].content_store 	decision_ratio[5] 	0.001408917619758
scalar tree_4_3_u03_r12_network.node[6].core_layer 	interests[6] 	31492
scalar tree_4_3_u03_r12_network.node[6].core_layer 	data[6] 	27640
scalar tree_4_3_u03_r12_network.node[6].content_store 	p_hit[6] 	0.12225327067192
scalar tree_4_3_u03_r12_network.node[6].content_store 	hits[6] 	3850
scalar tree_4_3_u03_r12_network.node[6].content_store 	misses[6] 	27642
scalar tree_4_3_u03_r12_network.node[6].content_store 	decision_yes[6] 	82
scalar tree_4_3_u03_r12_network.node[6].content_store 	decision_no[6] 	27558
scalar tree_4_3_u03_r12_network.node[6].content_store 	decision_ratio[6] 	0.0029667149059334
scalar tree_4_3_u03_r12_network.node[7].core_layer 	interests[7] 	34759
scalar tree_4_3_u03_r12_network.node[7].core_layer 	data[7] 	32170
scalar tree_4_3_u03_r12_network.node[7].content_store 	p_hit[7] 	0.074455536695532
scalar tree_4_3_u03_r12_network.node[7].content_store 	hits[7] 	2588
scalar tree_4_3_u03_r12_network.node[7].content_store 	misses[7] 	32171
scalar tree_4_3_u03_r12_network.node[7].content_store 	decision_yes[7] 	65
scalar tree_4_3_u03_r12_network.node[7].content_store 	decision_no[7] 	32105
scalar tree_4_3_u03_r12_network.node[7].content_store 	decision_ratio[7] 	0.0020205160087038
scalar tree_4_3_u03_r12_network.node[8].core_layer 	interests[8] 	18953
scalar tree_4_3_u03_r12_network.node[8].core_layer 	data[8] 	16717
scalar tree_4_3_u03_r12_network.node[8].content_store 	p_hit[8] 	0.11802880810426
scalar tree_4_3_u03_r12_network.node[8].content_store 	hits[8] 	2237
scalar tree_4_3_u03_r12_network.node[8].content_store 	misses[8] 	16716
scalar tree_4_3_u03_r12_network.node[8].content_store 	decision_yes[8] 	45
scalar tree_4_3_u03_r12_network.node[8].content_store 	decision_no[8] 	16672
scalar tree_4_3_u03_r12_network.node[8].content_store 	decision_ratio[8] 	0.0026918705509362
scalar tree_4_3_u03_r12_network.node[9].core_layer 	interests[9] 	27743
scalar tree_4_3_u03_r12_network.node[9].core_layer 	data[9] 	25152
scalar tree_4_3_u03_r12_network.node[9].content_store 	p_hit[9] 	0.093356882817287
scalar tree_4_3_u03_r12_network.node[9].content_store 	hits[9] 	2590
scalar tree_4_3_u03_r12_network.node[9].content_store 	misses[9] 	25153
scalar tree_4_3_u03_r12_network.node[9].content_store 	decision_yes[9] 	58
scalar tree_4_3_u03_r12_network.node[9].content_store 	decision_no[9] 	25094
scalar tree_4_3_u03_r12_network.node[9].content_store 	decision_ratio[9] 	0.0023059796437659
scalar tree_4_3_u03_r12_network.node[10].core_layer 	interests[10] 	35957
scalar tree_4_3_u03_r12_network.node[10].core_layer 	data[10] 	33205
scalar tree_4_3_u03_r12_network.node[10].content_store 	p_hit[10] 	0.076563673276413
scalar tree_4_3_u03_r12_network.node[10].content_store 	hits[10] 	2753
scalar tree_4_3_u03_r12_network.node[10].content_store 	misses[10] 	33204
scalar tree_4_3_u03_r12_network.node[10].content_store 	decision_yes[10] 	68
scalar tree_4_3_u03_r12_network.node[10].content_store 	decision_no[10] 	33137
scalar tree_4_3_u03_r12_network.node[10].content_store 	decision_ratio[10] 	0.0020478843547658
scalar tree_4_3_u03_r12_network.node[11].core_layer 	interests[11] 	35451
scalar tree_4_3_u03_r12_network.node[11].core_layer 	data[11] 	32672
scalar tree_4_3_u03_r12_network.node[11].content_store 	p_hit[11] 	0.078389890271078
scalar tree_4_3_u03_r12_network.node[11].content_store 	hits[11] 	2779
scalar tree_4_3_u03_r12_network.node[11].content_store 	misses[11] 	32672
scalar tree_4_3_u03_r12_network.node[11].content_store 	decision_yes[11] 	58
scalar tree_4_3_u03_r12_network.node[11].content_store 	decision_no[11] 	32614
scalar tree_4_3_u03_r12_network.node[11].content_store 	decision_ratio[11] 	0.0017752203721841
scalar tree_4_3_u03_r12_network.node[12].core_layer 	interests[12] 	11409
scalar tree_4_3_u03_r12_network.node[12].core_layer 	data[12] 	8743
scalar tree_4_3_u03_r12_network.node[12].content_store 	p_hit[12] 	0.23367516872644
scalar tree_4_3_u03_r12_network.node[12].content_store 	hits[12] 	2666
scalar tree_4_3_u03_r12_network.node[12].content_store 	misses[12] 	8743
scalar tree_4_3_u03_r12_network.node[12].content_store 	decision_yes[12] 	29
scalar tree_4_3_u03_r12_network.node[12].content_store 	decision_no[12] 	8714
scalar tree_4_3_u03_r12_network.node[12].content_store 	decision_ratio[12] 	0.0033169392656983
scalar tree_4_3_u03_r12_network.node[13].core_layer 	interests[13] 	12375
scalar tree_4_3_u03_r12_network.node[13].core_layer 	data[13] 	8738
scalar tree_4_3_u03_r12_network.node[13].content_store 	p_hit[13] 	0.29389898989899
scalar tree_4_3_u03_r12_network.node[13].content_store 	hits[13] 	3637
scalar tree_4_3_u03_r12_network.node[13].content_store 	misses[13] 	8738
scalar tree_4_3_u03_r12_network.node[13].content_store 	decision_yes[13] 	24
scalar tree_4_3_u03_r12_network.node[13].content_store 	decision_no[13] 	8714
scalar tree_4_3_u03_r12_network.node[13].content_store 	decision_ratio[13] 	0.0027466239414054
scalar tree_4_3_u03_r12_network.node[14].core_layer 	interests[14] 	12440
scalar tree_4_3_u03_r12_network.node[14].core_layer 	data[14] 	8888
scalar tree_4_3_u03_r12_network.node[14].content_store 	p_hit[14] 	0.28553054662379
scalar tree_4_3_u03_r12_network.node[14].content_store 	hits[14] 	3552
scalar tree_4_3_u03_r12_network.node[14].content_store 	misses[14] 	8888
scalar tree_4_3_u03_r12_network.node[14].content_store 	decision_yes[14] 	19
scalar tree_4_3_u03_r12_network.node[14].content_store 	decision_no[14] 	8869
scalar tree_4_3_u03_r12_network.node[14].content_store 	decision_ratio[14] 	0.0021377137713771
scalar tree_4_3_u03_r12_network.node[15].core_layer 	interests[15] 	12896
scalar tree_4_3_u03_r12_network.node[15].core_layer 	data[15] 	8677
scalar tree_4_3_u03_r12_network.node[15].content_store 	p_hit[15] 	0.32715570719603
scalar tree_4_3_u03_r12_network.node[15].content_store 	hits[15] 	4219
scalar tree_4_3_u03_r12_network.node[15].content_store 	misses[15] 	8677
scalar tree_4_3_u03_r12_network.node[15].content_store 	decision_yes[15] 	22
scalar tree_4_3_u03_r12_network.node[15].content_store 	decision_no[15] 	8655
scalar tree_4_3_u03_r12_network.node[15].content_store 	decision_ratio[15] 	0.002535438515616
scalar tree_4_3_u03_r12_network.node[16].core_layer 	interests[16] 	12297
scalar tree_4_3_u03_r12_network.node[16].core_layer 	data[16] 	8808
scalar tree_4_3_u03_r12_network.node[16].content_store 	p_hit[16] 	0.2837277384728
scalar tree_4_3_u03_r12_network.node[16].content_store 	hits[16] 	3489
scalar tree_4_3_u03_r12_network.node[16].content_store 	misses[16] 	8808
scalar tree_4_3_u03_r12_network.node[16].content_store 	decision_yes[16] 	24
scalar tree_4_3_u03_r12_network.node[16].content_store 	decision_no[16] 	8784
scalar tree_4_3_u03_r12_network.node[16].content_store 	decision_ratio[16] 	0.002724795640327
scalar tree_4_3_u03_r12_network.node[17].core_layer 	interests[17] 	12192
scalar tree_4_3_u03_r12_network.node[17].core_layer 	data[17] 	8652
scalar tree_4_3_u03_r12_network.node[17].content_store 	p_hit[17] 	0.29035433070866
scalar tree_4_3_u03_r12_network.node[17].content_store 	hits[17] 	3540
scalar tree_4_3_u03_r12_network.node[17].content_store 	misses[17] 	8652
scalar tree_4_3_u03_r12_network.node[17].content_store 	decision_yes[17] 	24
scalar tree_4_3_u03_r12_network.node[17].content_store 	decision_no[17] 	8628
scalar tree_4_3_u03_r12_network.node[17].content_store 	decision_ratio[17] 	0.0027739251040222
scalar tree_4_3_u03_r12_network.node[18].core_layer 	interests[18] 	13085
scalar tree_4_3_u03_r12_network.node[18].core_layer 	data[18] 	8991
scalar tree_4_3_u03_r12_network.node[18].content_store 	p_hit[18] 	0.31287734046618
scalar tree_4_3_u03_r12_network.node[18].content_store 	hits[18] 	4094
scalar tree_4_3_u03_r12_network.node[18].content_store 	misses[18] 	8991
scalar tree_4_3_u03_r12_network.node[18].content_store 	decision_yes[18] 	18
scalar tree_4_3_u03_r12_network.node[18].content_store 	decision_no[18] 	8973
scalar tree_4_3_u03_r12_network.node[18].content_store 	decision_ratio[18] 	0.002002002002002
scalar tree_4_3_u03_r12_network.node[19].core_layer 	interests[19] 	12728
scalar tree_4_3_u03_r12_network.node[19].core_layer 	data[19] 	8907
scalar tree_4_3_u03_r12_network.node[19].content_store 	p_hit[19] 	0.30020427404148
scalar tree_4_3_u03_r12_network.node[19].content_store 	hits[19] 	3821
scalar tree_4_3_u03_r12_network.node[19].content_store 	misses[19] 	8907
scalar tree_4_3_u03_r12_network.node[19].content_store 	decision_yes[19] 	24
scalar tree_4_3_u03_r12_network.node[19].content_store 	decision_no[19] 	8883
scalar tree_4_3_u03_r12_network.node[19].content_store 	decision_ratio[19] 	0.0026945099360054
scalar tree_4_3_u03_r12_network.node[20].core_layer 	interests[20] 	12701
scalar tree_4_3_u03_r12_network.node[20].core_layer 	data[20] 	8681
scalar tree_4_3_u03_r12_network.node[20].content_store 	p_hit[20] 	0.31651051098339
scalar tree_4_3_u03_r12_network.node[20].content_store 	hits[20] 	4020
scalar tree_4_3_u03_r12_network.node[20].content_store 	misses[20] 	8681
scalar tree_4_3_u03_r12_network.node[20].content_store 	decision_yes[20] 	27
scalar tree_4_3_u03_r12_network.node[20].content_store 	decision_no[20] 	8654
scalar tree_4_3_u03_r12_network.node[20].content_store 	decision_ratio[20] 	0.0031102407556733
scalar tree_4_3_u03_r12_network.node[21].core_layer 	interests[21] 	12854
scalar tree_4_3_u03_r12_network.node[21].core_layer 	data[21] 	8952
scalar tree_4_3_u03_r12_network.node[21].content_store 	p_hit[21] 	0.30356309320056
scalar tree_4_3_u03_r12_network.node[21].content_store 	hits[21] 	3902
scalar tree_4_3_u03_r12_network.node[21].content_store 	misses[21] 	8952
scalar tree_4_3_u03_r12_network.node[21].content_store 	decision_yes[21] 	27
scalar tree_4_3_u03_r12_network.node[21].content_store 	decision_no[21] 	8925
scalar tree_4_3_u03_r12_network.node[21].content_store 	decision_ratio[21] 	0.0030160857908847
scalar tree_4_3_u03_r12_network.node[22].core_layer 	interests[22] 	12255
scalar tree_4_3_u03_r12_network.node[22].core_layer 	data[22] 	8677
scalar tree_4_3_u03_r12_network.node[22].content_store 	p_hit[22] 	0.29196246430029
scalar tree_4_3_u03_r12_network.node[22].content_store 	hits[22] 	3578
scalar tree_4_3_u03_r12_network.node[22].content_store 	misses[22] 	8677
scalar tree_4_3_u03_r12_network.node[22].content_store 	decision_yes[22] 	14
scalar tree_4_3_u03_r12_network.node[22].content_store 	decision_no[22] 	8663
scalar tree_4_3_u03_r12_network.node[22].content_store 	decision_ratio[22] 	0.0016134608735738
scalar tree_4_3_u03_r12_network.node[23].core_layer 	interests[23] 	12145
scalar tree_4_3_u03_r12_network.node[23].core_layer 	data[23] 	8584
scalar tree_4_3_u03_r12_network.node[23].content_store 	p_hit[23] 	0.29320708110333
scalar tree_4_3_u03_r12_network.node[23].content_store 	hits[23] 	3561
scalar tree_4_3_u03_r12_network.node[23].content_store 	misses[23] 	8584
scalar tree_4_3_u03_r12_network.node[23].content_store 	decision_yes[23] 	16
scalar tree_4_3_u03_r12_network.node[23].content_store 	decision_no[23] 	8568
scalar tree_4_3_u03_r12_network.node[23].content_store 	decision_ratio[23] 	0.0018639328984157
scalar tree_4_3_u03_r12_network.node[24].core_layer 	interests[24] 	12836
scalar tree_4_3_u03_r12_network.node[24].core_layer 	data[24] 	8747
scalar tree_4_3_u03_r12_network.node[24].content_store 	p_hit[24] 	0.31855718292303
scalar tree_4_3_u03_r12_network.node[24].content_store 	hits[24] 	4089
scalar tree_4_3_u03_r12_network.node[24].content_store 	misses[24] 	8747
scalar tree_4_3_u03_r12_network.node[24].content_store 	decision_yes[24] 	27
scalar tree_4_3_u03_r12_network.node[24].content_store 	decision_no[24] 	8720
scalar tree_4_3_u03_r12_network.node[24].content_store 	decision_ratio[24] 	0.0030867726077512
scalar tree_4_3_u03_r12_network.node[25].core_layer 	interests[25] 	12717
scalar tree_4_3_u03_r12_network.node[25].core_layer 	data[25] 	8872
scalar tree_4_3_u03_r12_network.node[25].content_store 	p_hit[25] 	0.30227254855705
scalar tree_4_3_u03_r12_network.node[25].content_store 	hits[25] 	3844
scalar tree_4_3_u03_r12_network.node[25].content_store 	misses[25] 	8873
scalar tree_4_3_u03_r12_network.node[25].content_store 	decision_yes[25] 	28
scalar tree_4_3_u03_r12_network.node[25].content_store 	decision_no[25] 	8844
scalar tree_4_3_u03_r12_network.node[25].content_store 	decision_ratio[25] 	0.003155996393147
scalar tree_4_3_u03_r12_network.node[26].core_layer 	interests[26] 	12286
scalar tree_4_3_u03_r12_network.node[26].core_layer 	data[26] 	8643
scalar tree_4_3_u03_r12_network.node[26].content_store 	p_hit[26] 	0.29659775354062
scalar tree_4_3_u03_r12_network.node[26].content_store 	hits[26] 	3644
scalar tree_4_3_u03_r12_network.node[26].content_store 	misses[26] 	8642
scalar tree_4_3_u03_r12_network.node[26].content_store 	decision_yes[26] 	31
scalar tree_4_3_u03_r12_network.node[26].content_store 	decision_no[26] 	8612
scalar tree_4_3_u03_r12_network.node[26].content_store 	decision_ratio[26] 	0.0035867175749161
scalar tree_4_3_u03_r12_network.node[27].core_layer 	interests[27] 	12295
scalar tree_4_3_u03_r12_network.node[27].core_layer 	data[27] 	8705
scalar tree_4_3_u03_r12_network.node[27].content_store 	p_hit[27] 	0.29198861325742
scalar tree_4_3_u03_r12_network.node[27].content_store 	hits[27] 	3590
scalar tree_4_3_u03_r12_network.node[27].content_store 	misses[27] 	8705
scalar tree_4_3_u03_r12_network.node[27].content_store 	decision_yes[27] 	19
scalar tree_4_3_u03_r12_network.node[27].content_store 	decision_no[27] 	8686
scalar tree_4_3_u03_r12_network.node[27].content_store 	decision_ratio[27] 	0.0021826536473291
scalar tree_4_3_u03_r12_network.node[28].core_layer 	interests[28] 	12418
scalar tree_4_3_u03_r12_network.node[28].core_layer 	data[28] 	8794
scalar tree_4_3_u03_r12_network.node[28].content_store 	p_hit[28] 	0.29183443388629
scalar tree_4_3_u03_r12_network.node[28].content_store 	hits[28] 	3624
scalar tree_4_3_u03_r12_network.node[28].content_store 	misses[28] 	8794
scalar tree_4_3_u03_r12_network.node[28].content_store 	decision_yes[28] 	22
scalar tree_4_3_u03_r12_network.node[28].content_store 	decision_no[28] 	8772
scalar tree_4_3_u03_r12_network.node[28].content_store 	decision_ratio[28] 	0.0025017057084376
scalar tree_4_3_u03_r12_network.node[29].core_layer 	interests[29] 	12328
scalar tree_4_3_u03_r12_network.node[29].core_layer 	data[29] 	8622
scalar tree_4_3_u03_r12_network.node[29].content_store 	p_hit[29] 	0.30053536664504
scalar tree_4_3_u03_r12_network.node[29].content_store 	hits[29] 	3705
scalar tree_4_3_u03_r12_network.node[29].content_store 	misses[29] 	8623
scalar tree_4_3_u03_r12_network.node[29].content_store 	decision_yes[29] 	18
scalar tree_4_3_u03_r12_network.node[29].content_store 	decision_no[29] 	8604
scalar tree_4_3_u03_r12_network.node[29].content_store 	decision_ratio[29] 	0.0020876826722338
scalar tree_4_3_u03_r12_network.node[30].core_layer 	interests[30] 	12319
scalar tree_4_3_u03_r12_network.node[30].core_layer 	data[30] 	8772
scalar tree_4_3_u03_r12_network.node[30].content_store 	p_hit[30] 	0.28792921503369
scalar tree_4_3_u03_r12_network.node[30].content_store 	hits[30] 	3547
scalar tree_4_3_u03_r12_network.node[30].content_store 	misses[30] 	8772
scalar tree_4_3_u03_r12_network.node[30].content_store 	decision_yes[30] 	18
scalar tree_4_3_u03_r12_network.node[30].content_store 	decision_no[30] 	8754
scalar tree_4_3_u03_r12_network.node[30].content_store 	decision_ratio[30] 	0.0020519835841313
scalar tree_4_3_u03_r12_network.node[31].core_layer 	interests[31] 	12556
scalar tree_4_3_u03_r12_network.node[31].core_layer 	data[31] 	8775
scalar tree_4_3_u03_r12_network.node[31].content_store 	p_hit[31] 	0.30121057661676
scalar tree_4_3_u03_r12_network.node[31].content_store 	hits[31] 	3782
scalar tree_4_3_u03_r12_network.node[31].content_store 	misses[31] 	8774
scalar tree_4_3_u03_r12_network.node[31].content_store 	decision_yes[31] 	20
scalar tree_4_3_u03_r12_network.node[31].content_store 	decision_no[31] 	8755
scalar tree_4_3_u03_r12_network.node[31].content_store 	decision_ratio[31] 	0.0022792022792023
scalar tree_4_3_u03_r12_network.node[32].core_layer 	interests[32] 	12467
scalar tree_4_3_u03_r12_network.node[32].core_layer 	data[32] 	8806
scalar tree_4_3_u03_r12_network.node[32].content_store 	p_hit[32] 	0.29365524985963
scalar tree_4_3_u03_r12_network.node[32].content_store 	hits[32] 	3661
scalar tree_4_3_u03_r12_network.node[32].content_store 	misses[32] 	8806
scalar tree_4_3_u03_r12_network.node[32].content_store 	decision_yes[32] 	25
scalar tree_4_3_u03_r12_network.node[32].content_store 	decision_no[32] 	8781
scalar tree_4_3_u03_r12_network.node[32].content_store 	decision_ratio[32] 	0.0028389734272087
scalar tree_4_3_u03_r12_network.node[33].core_layer 	interests[33] 	12414
scalar tree_4_3_u03_r12_network.node[33].core_layer 	data[33] 	8699
scalar tree_4_3_u03_r12_network.node[33].content_store 	p_hit[33] 	0.29925890124053
scalar tree_4_3_u03_r12_network.node[33].content_store 	hits[33] 	3715
scalar tree_4_3_u03_r12_network.node[33].content_store 	misses[33] 	8699
scalar tree_4_3_u03_r12_network.node[33].content_store 	decision_yes[33] 	33
scalar tree_4_3_u03_r12_network.node[33].content_store 	decision_no[33] 	8666
scalar tree_4_3_u03_r12_network.node[33].content_store 	decision_ratio[33] 	0.0037935394872974
scalar tree_4_3_u03_r12_network.node[34].core_layer 	interests[34] 	12374
scalar tree_4_3_u03_r12_network.node[34].core_layer 	data[34] 	8739
scalar tree_4_3_u03_r12_network.node[34].content_store 	p_hit[34] 	0.29376111200905
scalar tree_4_3_u03_r12_network.node[34].content_store 	hits[34] 	3635
scalar tree_4_3_u03_r12_network.node[34].content_store 	misses[34] 	8739
scalar tree_4_3_u03_r12_network.node[34].content_store 	decision_yes[34] 	19
scalar tree_4_3_u03_r12_network.node[34].content_store 	decision_no[34] 	8720
scalar tree_4_3_u03_r12_network.node[34].content_store 	decision_ratio[34] 	0.00217416180341
scalar tree_4_3_u03_r12_network.node[35].core_layer 	interests[35] 	12343
scalar tree_4_3_u03_r12_network.node[35].core_layer 	data[35] 	8728
scalar tree_4_3_u03_r12_network.node[35].content_store 	p_hit[35] 	0.29287855464636
scalar tree_4_3_u03_r12_network.node[35].content_store 	hits[35] 	3615
scalar tree_4_3_u03_r12_network.node[35].content_store 	misses[35] 	8728
scalar tree_4_3_u03_r12_network.node[35].content_store 	decision_yes[35] 	18
scalar tree_4_3_u03_r12_network.node[35].content_store 	decision_no[35] 	8710
scalar tree_4_3_u03_r12_network.node[35].content_store 	decision_ratio[35] 	0.0020623281393217
scalar tree_4_3_u03_r12_network.node[36].core_layer 	interests[36] 	12880
scalar tree_4_3_u03_r12_network.node[36].core_layer 	data[36] 	8945
scalar tree_4_3_u03_r12_network.node[36].content_store 	p_hit[36] 	0.30551242236025
scalar tree_4_3_u03_r12_network.node[36].content_store 	hits[36] 	3935
scalar tree_4_3_u03_r12_network.node[36].content_store 	misses[36] 	8945
scalar tree_4_3_u03_r12_network.node[36].content_store 	decision_yes[36] 	20
scalar tree_4_3_u03_r12_network.node[36].content_store 	decision_no[36] 	8925
scalar tree_4_3_u03_r12_network.node[36].content_store 	decision_ratio[36] 	0.0022358859698155
scalar tree_4_3_u03_r12_network.node[37].core_layer 	interests[37] 	12985
scalar tree_4_3_u03_r12_network.node[37].core_layer 	data[37] 	8872
scalar tree_4_3_u03_r12_network.node[37].content_store 	p_hit[37] 	0.31675009626492
scalar tree_4_3_u03_r12_network.node[37].content_store 	hits[37] 	4113
scalar tree_4_3_u03_r12_network.node[37].content_store 	misses[37] 	8872
scalar tree_4_3_u03_r12_network.node[37].content_store 	decision_yes[37] 	20
scalar tree_4_3_u03_r12_network.node[37].content_store 	decision_no[37] 	8852
scalar tree_4_3_u03_r12_network.node[37].content_store 	decision_ratio[37] 	0.0022542831379621
scalar tree_4_3_u03_r12_network.node[38].core_layer 	interests[38] 	12525
scalar tree_4_3_u03_r12_network.node[38].core_layer 	data[38] 	8656
scalar tree_4_3_u03_r12_network.node[38].content_store 	p_hit[38] 	0.30890219560878
scalar tree_4_3_u03_r12_network.node[38].content_store 	hits[38] 	3869
scalar tree_4_3_u03_r12_network.node[38].content_store 	misses[38] 	8656
scalar tree_4_3_u03_r12_network.node[38].content_store 	decision_yes[38] 	17
scalar tree_4_3_u03_r12_network.node[38].content_store 	decision_no[38] 	8639
scalar tree_4_3_u03_r12_network.node[38].content_store 	decision_ratio[38] 	0.0019639556377079
scalar tree_4_3_u03_r12_network.node[39].core_layer 	interests[39] 	12064
scalar tree_4_3_u03_r12_network.node[39].core_layer 	data[39] 	8612
scalar tree_4_3_u03_r12_network.node[39].content_store 	p_hit[39] 	0.28614058355438
scalar tree_4_3_u03_r12_network.node[39].content_store 	hits[39] 	3452
scalar tree_4_3_u03_r12_network.node[39].content_store 	misses[39] 	8612
scalar tree_4_3_u03_r12_network.node[39].content_store 	decision_yes[39] 	21
scalar tree_4_3_u03_r12_network.node[39].content_store 	decision_no[39] 	8591
scalar tree_4_3_u03_r12_network.node[39].content_store 	decision_ratio[39] 	0.0024384579656294
scalar tree_4_3_u03_r12_network.client[13] 	hdistance[13] 	2.6400033087931
scalar tree_4_3_u03_r12_network.client[13] 	downloads[13] 	12089
scalar tree_4_3_u03_r12_network.client[13] 	avg_time[13] 	0.00410869083
scalar tree_4_3_u03_r12_network.client[14] 	hdistance[14] 	2.6746493889937
scalar tree_4_3_u03_r12_network.client[14] 	downloads[14] 	12193
scalar tree_4_3_u03_r12_network.client[14] 	avg_time[14] 	0.004152215437
scalar tree_4_3_u03_r12_network.client[15] 	hdistance[15] 	2.5482868659725
scalar tree_4_3_u03_r12_network.client[15] 	downloads[15] 	11908
scalar tree_4_3_u03_r12_network.client[15] 	avg_time[15] 	0.003981354073
scalar tree_4_3_u03_r12_network.client[16] 	hdistance[16] 	2.6732015284931
scalar tree_4_3_u03_r12_network.client[16] 	downloads[16] 	12038
scalar tree_4_3_u03_r12_network.client[16] 	avg_time[16] 	0.004158162841
scalar tree_4_3_u03_r12_network.client[17] 	hdistance[17] 	2.6644543392422
scalar tree_4_3_u03_r12_network.client[17] 	downloads[17] 	11903
scalar tree_4_3_u03_r12_network.client[17] 	avg_time[17] 	0.004140633872
scalar tree_4_3_u03_r12_network.client[18] 	hdistance[18] 	2.6086275156714
scalar tree_4_3_u03_r12_network.client[18] 	downloads[18] 	12124
scalar tree_4_3_u03_r12_network.client[18] 	avg_time[18] 	0.004072745205
scalar tree_4_3_u03_r12_network.client[19] 	hdistance[19] 	2.6351463739188
scalar tree_4_3_u03_r12_network.client[19] 	downloads[19] 	12024
scalar tree_4_3_u03_r12_network.client[19] 	avg_time[19] 	0.00413981769
scalar tree_4_3_u03_r12_network.client[20] 	hdistance[20] 	2.5749958381888
scalar tree_4_3_u03_r12_network.client[20] 	downloads[20] 	12014
scalar tree_4_3_u03_r12_network.client[20] 	avg_time[20] 	0.004040283345
scalar tree_4_3_u03_r12_network.client[21] 	hdistance[21] 	2.6226523415074
scalar tree_4_3_u03_r12_network.client[21] 	downloads[21] 	12193
scalar tree_4_3_u03_r12_network.client[21] 	avg_time[21] 	0.00411374855
scalar tree_4_3_u03_r12_network.client[22] 	hdistance[22] 	2.6599193683857
scalar tree_4_3_u03_r12_network.client[22] 	downloads[22] 	11906
scalar tree_4_3_u03_r12_network.client[22] 	avg_time[22] 	0.004130687448
scalar tree_4_3_u03_r12_network.client[23] 	hdistance[23] 	2.653685911062
scalar tree_4_3_u03_r12_network.client[23] 	downloads[23] 	11761
scalar tree_4_3_u03_r12_network.client[23] 	avg_time[23] 	0.004122945785
scalar tree_4_3_u03_r12_network.client[24] 	hdistance[24] 	2.5968214136345
scalar tree_4_3_u03_r12_network.client[24] 	downloads[24] 	11955
scalar tree_4_3_u03_r12_network.client[24] 	avg_time[24] 	0.004012711376
scalar tree_4_3_u03_r12_network.client[25] 	hdistance[25] 	2.6210666889241
scalar tree_4_3_u03_r12_network.client[25] 	downloads[25] 	11981
scalar tree_4_3_u03_r12_network.client[25] 	avg_time[25] 	0.004052914118
scalar tree_4_3_u03_r12_network.client[26] 	hdistance[26] 	2.6524001342732
scalar tree_4_3_u03_r12_network.client[26] 	downloads[26] 	11916
scalar tree_4_3_u03_r12_network.client[26] 	avg_time[26] 	0.00412369626
scalar tree_4_3_u03_r12_network.client[27] 	hdistance[27] 	2.6275684219283
scalar tree_4_3_u03_r12_network.client[27] 	downloads[27] 	12021
scalar tree_4_3_u03_r12_network.client[27] 	avg_time[27] 	0.004089340621
scalar tree_4_3_u03_r12_network.client[28] 	hdistance[28] 	2.6697124654204
scalar tree_4_3_u03_r12_network.client[28] 	downloads[28] 	11929
scalar tree_4_3_u03_r12_network.client[28] 	avg_time[28] 	0.004156087232
scalar tree_4_3_u03_r12_network.client[29] 	hdistance[29] 	2.6009868696161
scalar tree_4_3_u03_r12_network.client[29] 	downloads[29] 	11957
scalar tree_4_3_u03_r12_network.client[29] 	avg_time[29] 	0.00405536207
scalar tree_4_3_u03_r12_network.client[30] 	hdistance[30] 	2.6747735659175
scalar tree_4_3_u03_r12_network.client[30] 	downloads[30] 	11924
scalar tree_4_3_u03_r12_network.client[30] 	avg_time[30] 	0.004158165402
scalar tree_4_3_u03_r12_network.client[31] 	hdistance[31] 	2.6489503498834
scalar tree_4_3_u03_r12_network.client[31] 	downloads[31] 	12004
scalar tree_4_3_u03_r12_network.client[31] 	avg_time[31] 	0.004138950693
scalar tree_4_3_u03_r12_network.client[32] 	hdistance[32] 	2.6522935779817
scalar tree_4_3_u03_r12_network.client[32] 	downloads[32] 	11990
scalar tree_4_3_u03_r12_network.client[32] 	avg_time[32] 	0.004149288064
scalar tree_4_3_u03_r12_network.client[33] 	hdistance[33] 	2.6239052464759
scalar tree_4_3_u03_r12_network.client[33] 	downloads[33] 	11989
scalar tree_4_3_u03_r12_network.client[33] 	avg_time[33] 	0.004107262004
scalar tree_4_3_u03_r12_network.client[34] 	hdistance[34] 	2.6613389121339
scalar tree_4_3_u03_r12_network.client[34] 	downloads[34] 	11950
scalar tree_4_3_u03_r12_network.client[34] 	avg_time[34] 	0.00415999701
scalar tree_4_3_u03_r12_network.client[35] 	hdistance[35] 	2.6438539316454
scalar tree_4_3_u03_r12_network.client[35] 	downloads[35] 	11967
scalar tree_4_3_u03_r12_network.client[35] 	avg_time[35] 	0.004135369286
scalar tree_4_3_u03_r12_network.client[36] 	hdistance[36] 	2.5932719197237
scalar tree_4_3_u03_r12_network.client[36] 	downloads[36] 	12158
scalar tree_4_3_u03_r12_network.client[36] 	avg_time[36] 	0.004040793165
scalar tree_4_3_u03_r12_network.client[37] 	hdistance[37] 	2.5836225417286
scalar tree_4_3_u03_r12_network.client[37] 	downloads[37] 	12102
scalar tree_4_3_u03_r12_network.client[37] 	avg_time[37] 	0.004022803138
scalar tree_4_3_u03_r12_network.client[38] 	hdistance[38] 	2.5925239939384
scalar tree_4_3_u03_r12_network.client[38] 	downloads[38] 	11878
scalar tree_4_3_u03_r12_network.client[38] 	avg_time[38] 	0.004027442713
scalar tree_4_3_u03_r12_network.client[39] 	hdistance[39] 	2.6586851679499
scalar tree_4_3_u03_r12_network.client[39] 	downloads[39] 	11819
scalar tree_4_3_u03_r12_network.client[39] 	avg_time[39] 	0.004150263547
