version 2
run General-66-20160902-20:00:05-4279
attr a 0.9
attr cd ffc0.2
attr configname General
attr cr lru
attr datetime 20160902-20:00:05
attr experiment General
attr fsize 1
attr inifile hw5115/scenario_Y/omnetp.ini
attr iterationvars "$name=tree_4_3, $un=03, $rep=7, $cd=ffc0.2, $cr=lru, $fsize=1, $a=0.9, $sl=nrr, $ttl=1000, $variance=0.05"
attr iterationvars2 "$name=tree_4_3, $un=03, $rep=7, $cd=ffc0.2, $cr=lru, $fsize=1, $a=0.9, $sl=nrr, $ttl=1000, $variance=0.05, $repetition=0"
attr measurement "$name=tree_4_3, $un=03, $rep=7, $cd=ffc0.2, $cr=lru, $fsize=1, $a=0.9, $sl=nrr, $ttl=1000, $variance=0.05"
attr name tree_4_3
attr network networks.${name}_u${un}_r${rep}_network
attr processid 4279
attr rep 7
attr repetition 0
attr replication #0
attr resultdir results
attr runnumber 66
attr seedset 7
attr sl nrr
attr ttl 1000
attr un 03
attr variance 0.05

scalar . 	a 	0.9
scalar . 	fsize 	1
scalar . 	rep 	7
scalar . 	ttl 	1000
scalar . 	un 	03
scalar . 	variance 	0.05
scalar tree_4_3_u03_r7_network.content_distribution 	repo-0 	0
scalar tree_4_3_u03_r7_network.content_distribution 	client-0 	13
scalar tree_4_3_u03_r7_network.content_distribution 	client-1 	14
scalar tree_4_3_u03_r7_network.content_distribution 	client-2 	15
scalar tree_4_3_u03_r7_network.content_distribution 	client-3 	16
scalar tree_4_3_u03_r7_network.content_distribution 	client-4 	17
scalar tree_4_3_u03_r7_network.content_distribution 	client-5 	18
scalar tree_4_3_u03_r7_network.content_distribution 	client-6 	19
scalar tree_4_3_u03_r7_network.content_distribution 	client-7 	20
scalar tree_4_3_u03_r7_network.content_distribution 	client-8 	21
scalar tree_4_3_u03_r7_network.content_distribution 	client-9 	22
scalar tree_4_3_u03_r7_network.content_distribution 	client-10 	23
scalar tree_4_3_u03_r7_network.content_distribution 	client-11 	24
scalar tree_4_3_u03_r7_network.content_distribution 	client-12 	25
scalar tree_4_3_u03_r7_network.content_distribution 	client-13 	26
scalar tree_4_3_u03_r7_network.content_distribution 	client-14 	27
scalar tree_4_3_u03_r7_network.content_distribution 	client-15 	28
scalar tree_4_3_u03_r7_network.content_distribution 	client-16 	29
scalar tree_4_3_u03_r7_network.content_distribution 	client-17 	30
scalar tree_4_3_u03_r7_network.content_distribution 	client-18 	31
scalar tree_4_3_u03_r7_network.content_distribution 	client-19 	32
scalar tree_4_3_u03_r7_network.content_distribution 	client-20 	33
scalar tree_4_3_u03_r7_network.content_distribution 	client-21 	34
scalar tree_4_3_u03_r7_network.content_distribution 	client-22 	35
scalar tree_4_3_u03_r7_network.content_distribution 	client-23 	36
scalar tree_4_3_u03_r7_network.content_distribution 	client-24 	37
scalar tree_4_3_u03_r7_network.content_distribution 	client-25 	38
scalar tree_4_3_u03_r7_network.content_distribution 	client-26 	39
scalar tree_4_3_u03_r7_network.content_distribution 	repo-0_card 	100000
scalar tree_4_3_u03_r7_network.content_distribution 	repo-0_price 	0
scalar tree_4_3_u03_r7_network.statistics 	stabilization_time 	2128.8
scalar tree_4_3_u03_r7_network.statistics 	p_hit 	0.22869971483734
scalar tree_4_3_u03_r7_network.statistics 	interests 	24709.375
scalar tree_4_3_u03_r7_network.statistics 	data 	16617.45
scalar tree_4_3_u03_r7_network.statistics 	hdistance 	2.6270452268893
scalar tree_4_3_u03_r7_network.statistics 	avg_time 	0.00410713951
scalar tree_4_3_u03_r7_network.statistics 	downloads 	323675
scalar tree_4_3_u03_r7_network.statistics 	total_cost 	0
scalar tree_4_3_u03_r7_network.statistics 	total_replicas 	100000
scalar tree_4_3_u03_r7_network.statistics 	inner_hit 	0.42654514559357
scalar tree_4_3_u03_r7_network.node[0].core_layer 	interests[0] 	189413
scalar tree_4_3_u03_r7_network.node[0].core_layer 	repo_load[0] 	185613
scalar tree_4_3_u03_r7_network.node[0].core_layer 	data[0] 	0
scalar tree_4_3_u03_r7_network.node[0].core_layer 	repo_int[0] 	185613
scalar tree_4_3_u03_r7_network.node[0].content_store 	p_hit[0] 	0.020061980962236
scalar tree_4_3_u03_r7_network.node[0].content_store 	hits[0] 	3800
scalar tree_4_3_u03_r7_network.node[0].content_store 	misses[0] 	185613
scalar tree_4_3_u03_r7_network.node[0].content_store 	decision_yes[0] 	167
scalar tree_4_3_u03_r7_network.node[0].content_store 	decision_no[0] 	185446
scalar tree_4_3_u03_r7_network.node[0].content_store 	decision_ratio[0] 	0.00089972146347508
scalar tree_4_3_u03_r7_network.node[1].core_layer 	interests[1] 	68449
scalar tree_4_3_u03_r7_network.node[1].core_layer 	data[1] 	66243
scalar tree_4_3_u03_r7_network.node[1].content_store 	p_hit[1] 	0.032228374410145
scalar tree_4_3_u03_r7_network.node[1].content_store 	hits[1] 	2206
scalar tree_4_3_u03_r7_network.node[1].content_store 	misses[1] 	66243
scalar tree_4_3_u03_r7_network.node[1].content_store 	decision_yes[1] 	90
scalar tree_4_3_u03_r7_network.node[1].content_store 	decision_no[1] 	66153
scalar tree_4_3_u03_r7_network.node[1].content_store 	decision_ratio[1] 	0.0013586341198315
scalar tree_4_3_u03_r7_network.node[2].core_layer 	interests[2] 	99550
scalar tree_4_3_u03_r7_network.node[2].core_layer 	data[2] 	96519
scalar tree_4_3_u03_r7_network.node[2].content_store 	p_hit[2] 	0.030436966348569
scalar tree_4_3_u03_r7_network.node[2].content_store 	hits[2] 	3030
scalar tree_4_3_u03_r7_network.node[2].content_store 	misses[2] 	96520
scalar tree_4_3_u03_r7_network.node[2].content_store 	decision_yes[2] 	98
scalar tree_4_3_u03_r7_network.node[2].content_store 	decision_no[2] 	96421
scalar tree_4_3_u03_r7_network.node[2].content_store 	decision_ratio[2] 	0.0010153441291352
scalar tree_4_3_u03_r7_network.node[3].core_layer 	interests[3] 	43264
scalar tree_4_3_u03_r7_network.node[3].core_layer 	data[3] 	39858
scalar tree_4_3_u03_r7_network.node[3].content_store 	p_hit[3] 	0.078725961538462
scalar tree_4_3_u03_r7_network.node[3].content_store 	hits[3] 	3406
scalar tree_4_3_u03_r7_network.node[3].content_store 	misses[3] 	39858
scalar tree_4_3_u03_r7_network.node[3].content_store 	decision_yes[3] 	82
scalar tree_4_3_u03_r7_network.node[3].content_store 	decision_no[3] 	39776
scalar tree_4_3_u03_r7_network.node[3].content_store 	decision_ratio[3] 	0.0020573034271664
scalar tree_4_3_u03_r7_network.node[4].core_layer 	interests[4] 	34233
scalar tree_4_3_u03_r7_network.node[4].core_layer 	data[4] 	31970
scalar tree_4_3_u03_r7_network.node[4].content_store 	p_hit[4] 	0.066076592761371
scalar tree_4_3_u03_r7_network.node[4].content_store 	hits[4] 	2262
scalar tree_4_3_u03_r7_network.node[4].content_store 	misses[4] 	31971
scalar tree_4_3_u03_r7_network.node[4].content_store 	decision_yes[4] 	44
scalar tree_4_3_u03_r7_network.node[4].content_store 	decision_no[4] 	31926
scalar tree_4_3_u03_r7_network.node[4].content_store 	decision_ratio[4] 	0.0013762902721301
scalar tree_4_3_u03_r7_network.node[5].core_layer 	interests[5] 	18785
scalar tree_4_3_u03_r7_network.node[5].core_layer 	data[5] 	16939
scalar tree_4_3_u03_r7_network.node[5].content_store 	p_hit[5] 	0.098269896193772
scalar tree_4_3_u03_r7_network.node[5].content_store 	hits[5] 	1846
scalar tree_4_3_u03_r7_network.node[5].content_store 	misses[5] 	16939
scalar tree_4_3_u03_r7_network.node[5].content_store 	decision_yes[5] 	41
scalar tree_4_3_u03_r7_network.node[5].content_store 	decision_no[5] 	16898
scalar tree_4_3_u03_r7_network.node[5].content_store 	decision_ratio[5] 	0.0024204498494598
scalar tree_4_3_u03_r7_network.node[6].core_layer 	interests[6] 	29687
scalar tree_4_3_u03_r7_network.node[6].core_layer 	data[6] 	26428
scalar tree_4_3_u03_r7_network.node[6].content_store 	p_hit[6] 	0.10977869100953
scalar tree_4_3_u03_r7_network.node[6].content_store 	hits[6] 	3259
scalar tree_4_3_u03_r7_network.node[6].content_store 	misses[6] 	26428
scalar tree_4_3_u03_r7_network.node[6].content_store 	decision_yes[6] 	63
scalar tree_4_3_u03_r7_network.node[6].content_store 	decision_no[6] 	26365
scalar tree_4_3_u03_r7_network.node[6].content_store 	decision_ratio[6] 	0.0023838353261692
scalar tree_4_3_u03_r7_network.node[7].core_layer 	interests[7] 	27158
scalar tree_4_3_u03_r7_network.node[7].core_layer 	data[7] 	24748
scalar tree_4_3_u03_r7_network.node[7].content_store 	p_hit[7] 	0.088739966124162
scalar tree_4_3_u03_r7_network.node[7].content_store 	hits[7] 	2410
scalar tree_4_3_u03_r7_network.node[7].content_store 	misses[7] 	24748
scalar tree_4_3_u03_r7_network.node[7].content_store 	decision_yes[7] 	54
scalar tree_4_3_u03_r7_network.node[7].content_store 	decision_no[7] 	24694
scalar tree_4_3_u03_r7_network.node[7].content_store 	decision_ratio[7] 	0.0021819945046064
scalar tree_4_3_u03_r7_network.node[8].core_layer 	interests[8] 	27769
scalar tree_4_3_u03_r7_network.node[8].core_layer 	data[8] 	24905
scalar tree_4_3_u03_r7_network.node[8].content_store 	p_hit[8] 	0.10306456840362
scalar tree_4_3_u03_r7_network.node[8].content_store 	hits[8] 	2862
scalar tree_4_3_u03_r7_network.node[8].content_store 	misses[8] 	24907
scalar tree_4_3_u03_r7_network.node[8].content_store 	decision_yes[8] 	55
scalar tree_4_3_u03_r7_network.node[8].content_store 	decision_no[8] 	24850
scalar tree_4_3_u03_r7_network.node[8].content_store 	decision_ratio[8] 	0.0022083918891789
scalar tree_4_3_u03_r7_network.node[9].core_layer 	interests[9] 	28515
scalar tree_4_3_u03_r7_network.node[9].core_layer 	data[9] 	25596
scalar tree_4_3_u03_r7_network.node[9].content_store 	p_hit[9] 	0.10233210590917
scalar tree_4_3_u03_r7_network.node[9].content_store 	hits[9] 	2918
scalar tree_4_3_u03_r7_network.node[9].content_store 	misses[9] 	25597
scalar tree_4_3_u03_r7_network.node[9].content_store 	decision_yes[9] 	50
scalar tree_4_3_u03_r7_network.node[9].content_store 	decision_no[9] 	25546
scalar tree_4_3_u03_r7_network.node[9].content_store 	decision_ratio[9] 	0.0019534302234724
scalar tree_4_3_u03_r7_network.node[10].core_layer 	interests[10] 	26953
scalar tree_4_3_u03_r7_network.node[10].core_layer 	data[10] 	24839
scalar tree_4_3_u03_r7_network.node[10].content_store 	p_hit[10] 	0.078432827514562
scalar tree_4_3_u03_r7_network.node[10].content_store 	hits[10] 	2114
scalar tree_4_3_u03_r7_network.node[10].content_store 	misses[10] 	24839
scalar tree_4_3_u03_r7_network.node[10].content_store 	decision_yes[10] 	55
scalar tree_4_3_u03_r7_network.node[10].content_store 	decision_no[10] 	24784
scalar tree_4_3_u03_r7_network.node[10].content_store 	decision_ratio[10] 	0.0022142598333266
scalar tree_4_3_u03_r7_network.node[11].core_layer 	interests[11] 	37297
scalar tree_4_3_u03_r7_network.node[11].core_layer 	data[11] 	33440
scalar tree_4_3_u03_r7_network.node[11].content_store 	p_hit[11] 	0.10341314314824
scalar tree_4_3_u03_r7_network.node[11].content_store 	hits[11] 	3857
scalar tree_4_3_u03_r7_network.node[11].content_store 	misses[11] 	33440
scalar tree_4_3_u03_r7_network.node[11].content_store 	decision_yes[11] 	77
scalar tree_4_3_u03_r7_network.node[11].content_store 	decision_no[11] 	33363
scalar tree_4_3_u03_r7_network.node[11].content_store 	decision_ratio[11] 	0.0023026315789474
scalar tree_4_3_u03_r7_network.node[12].core_layer 	interests[12] 	19362
scalar tree_4_3_u03_r7_network.node[12].core_layer 	data[12] 	16662
scalar tree_4_3_u03_r7_network.node[12].content_store 	p_hit[12] 	0.13944840409049
scalar tree_4_3_u03_r7_network.node[12].content_store 	hits[12] 	2700
scalar tree_4_3_u03_r7_network.node[12].content_store 	misses[12] 	16662
scalar tree_4_3_u03_r7_network.node[12].content_store 	decision_yes[12] 	35
scalar tree_4_3_u03_r7_network.node[12].content_store 	decision_no[12] 	16627
scalar tree_4_3_u03_r7_network.node[12].content_store 	decision_ratio[12] 	0.0021005881646861
scalar tree_4_3_u03_r7_network.node[13].core_layer 	interests[13] 	12470
scalar tree_4_3_u03_r7_network.node[13].core_layer 	data[13] 	8906
scalar tree_4_3_u03_r7_network.node[13].content_store 	p_hit[13] 	0.28580593424218
scalar tree_4_3_u03_r7_network.node[13].content_store 	hits[13] 	3564
scalar tree_4_3_u03_r7_network.node[13].content_store 	misses[13] 	8906
scalar tree_4_3_u03_r7_network.node[13].content_store 	decision_yes[13] 	20
scalar tree_4_3_u03_r7_network.node[13].content_store 	decision_no[13] 	8886
scalar tree_4_3_u03_r7_network.node[13].content_store 	decision_ratio[13] 	0.0022456770716371
scalar tree_4_3_u03_r7_network.node[14].core_layer 	interests[14] 	12411
scalar tree_4_3_u03_r7_network.node[14].core_layer 	data[14] 	8746
scalar tree_4_3_u03_r7_network.node[14].content_store 	p_hit[14] 	0.2953025541858
scalar tree_4_3_u03_r7_network.node[14].content_store 	hits[14] 	3665
scalar tree_4_3_u03_r7_network.node[14].content_store 	misses[14] 	8746
scalar tree_4_3_u03_r7_network.node[14].content_store 	decision_yes[14] 	15
scalar tree_4_3_u03_r7_network.node[14].content_store 	decision_no[14] 	8731
scalar tree_4_3_u03_r7_network.node[14].content_store 	decision_ratio[14] 	0.0017150697461697
scalar tree_4_3_u03_r7_network.node[15].core_layer 	interests[15] 	12914
scalar tree_4_3_u03_r7_network.node[15].core_layer 	data[15] 	8789
scalar tree_4_3_u03_r7_network.node[15].content_store 	p_hit[15] 	0.31949821898715
scalar tree_4_3_u03_r7_network.node[15].content_store 	hits[15] 	4126
scalar tree_4_3_u03_r7_network.node[15].content_store 	misses[15] 	8788
scalar tree_4_3_u03_r7_network.node[15].content_store 	decision_yes[15] 	25
scalar tree_4_3_u03_r7_network.node[15].content_store 	decision_no[15] 	8764
scalar tree_4_3_u03_r7_network.node[15].content_store 	decision_ratio[15] 	0.0028444646717488
scalar tree_4_3_u03_r7_network.node[16].core_layer 	interests[16] 	12686
scalar tree_4_3_u03_r7_network.node[16].core_layer 	data[16] 	8700
scalar tree_4_3_u03_r7_network.node[16].content_store 	p_hit[16] 	0.31428346208419
scalar tree_4_3_u03_r7_network.node[16].content_store 	hits[16] 	3987
scalar tree_4_3_u03_r7_network.node[16].content_store 	misses[16] 	8699
scalar tree_4_3_u03_r7_network.node[16].content_store 	decision_yes[16] 	27
scalar tree_4_3_u03_r7_network.node[16].content_store 	decision_no[16] 	8673
scalar tree_4_3_u03_r7_network.node[16].content_store 	decision_ratio[16] 	0.0031034482758621
scalar tree_4_3_u03_r7_network.node[17].core_layer 	interests[17] 	12285
scalar tree_4_3_u03_r7_network.node[17].core_layer 	data[17] 	8766
scalar tree_4_3_u03_r7_network.node[17].content_store 	p_hit[17] 	0.28652828652829
scalar tree_4_3_u03_r7_network.node[17].content_store 	hits[17] 	3520
scalar tree_4_3_u03_r7_network.node[17].content_store 	misses[17] 	8765
scalar tree_4_3_u03_r7_network.node[17].content_store 	decision_yes[17] 	20
scalar tree_4_3_u03_r7_network.node[17].content_store 	decision_no[17] 	8746
scalar tree_4_3_u03_r7_network.node[17].content_store 	decision_ratio[17] 	0.0022815423226101
scalar tree_4_3_u03_r7_network.node[18].core_layer 	interests[18] 	12467
scalar tree_4_3_u03_r7_network.node[18].core_layer 	data[18] 	8776
scalar tree_4_3_u03_r7_network.node[18].content_store 	p_hit[18] 	0.29606160263095
scalar tree_4_3_u03_r7_network.node[18].content_store 	hits[18] 	3691
scalar tree_4_3_u03_r7_network.node[18].content_store 	misses[18] 	8776
scalar tree_4_3_u03_r7_network.node[18].content_store 	decision_yes[18] 	28
scalar tree_4_3_u03_r7_network.node[18].content_store 	decision_no[18] 	8748
scalar tree_4_3_u03_r7_network.node[18].content_store 	decision_ratio[18] 	0.0031905195989061
scalar tree_4_3_u03_r7_network.node[19].core_layer 	interests[19] 	12607
scalar tree_4_3_u03_r7_network.node[19].core_layer 	data[19] 	8841
scalar tree_4_3_u03_r7_network.node[19].content_store 	p_hit[19] 	0.29872293170461
scalar tree_4_3_u03_r7_network.node[19].content_store 	hits[19] 	3766
scalar tree_4_3_u03_r7_network.node[19].content_store 	misses[19] 	8841
scalar tree_4_3_u03_r7_network.node[19].content_store 	decision_yes[19] 	13
scalar tree_4_3_u03_r7_network.node[19].content_store 	decision_no[19] 	8828
scalar tree_4_3_u03_r7_network.node[19].content_store 	decision_ratio[19] 	0.0014704218979753
scalar tree_4_3_u03_r7_network.node[20].core_layer 	interests[20] 	12697
scalar tree_4_3_u03_r7_network.node[20].core_layer 	data[20] 	8836
scalar tree_4_3_u03_r7_network.node[20].content_store 	p_hit[20] 	0.30408757974325
scalar tree_4_3_u03_r7_network.node[20].content_store 	hits[20] 	3861
scalar tree_4_3_u03_r7_network.node[20].content_store 	misses[20] 	8836
scalar tree_4_3_u03_r7_network.node[20].content_store 	decision_yes[20] 	24
scalar tree_4_3_u03_r7_network.node[20].content_store 	decision_no[20] 	8812
scalar tree_4_3_u03_r7_network.node[20].content_store 	decision_ratio[20] 	0.0027161611588954
scalar tree_4_3_u03_r7_network.node[21].core_layer 	interests[21] 	12605
scalar tree_4_3_u03_r7_network.node[21].core_layer 	data[21] 	8734
scalar tree_4_3_u03_r7_network.node[21].content_store 	p_hit[21] 	0.30710035700119
scalar tree_4_3_u03_r7_network.node[21].content_store 	hits[21] 	3871
scalar tree_4_3_u03_r7_network.node[21].content_store 	misses[21] 	8734
scalar tree_4_3_u03_r7_network.node[21].content_store 	decision_yes[21] 	23
scalar tree_4_3_u03_r7_network.node[21].content_store 	decision_no[21] 	8711
scalar tree_4_3_u03_r7_network.node[21].content_store 	decision_ratio[21] 	0.0026333867643691
scalar tree_4_3_u03_r7_network.node[22].core_layer 	interests[22] 	12179
scalar tree_4_3_u03_r7_network.node[22].core_layer 	data[22] 	8657
scalar tree_4_3_u03_r7_network.node[22].content_store 	p_hit[22] 	0.28918630429428
scalar tree_4_3_u03_r7_network.node[22].content_store 	hits[22] 	3522
scalar tree_4_3_u03_r7_network.node[22].content_store 	misses[22] 	8657
scalar tree_4_3_u03_r7_network.node[22].content_store 	decision_yes[22] 	14
scalar tree_4_3_u03_r7_network.node[22].content_store 	decision_no[22] 	8643
scalar tree_4_3_u03_r7_network.node[22].content_store 	decision_ratio[22] 	0.0016171884024489
scalar tree_4_3_u03_r7_network.node[23].core_layer 	interests[23] 	13040
scalar tree_4_3_u03_r7_network.node[23].core_layer 	data[23] 	8919
scalar tree_4_3_u03_r7_network.node[23].content_store 	p_hit[23] 	0.31602760736196
scalar tree_4_3_u03_r7_network.node[23].content_store 	hits[23] 	4121
scalar tree_4_3_u03_r7_network.node[23].content_store 	misses[23] 	8919
scalar tree_4_3_u03_r7_network.node[23].content_store 	decision_yes[23] 	18
scalar tree_4_3_u03_r7_network.node[23].content_store 	decision_no[23] 	8901
scalar tree_4_3_u03_r7_network.node[23].content_store 	decision_ratio[23] 	0.0020181634712412
scalar tree_4_3_u03_r7_network.node[24].core_layer 	interests[24] 	12413
scalar tree_4_3_u03_r7_network.node[24].core_layer 	data[24] 	8820
scalar tree_4_3_u03_r7_network.node[24].content_store 	p_hit[24] 	0.28945460404415
scalar tree_4_3_u03_r7_network.node[24].content_store 	hits[24] 	3593
scalar tree_4_3_u03_r7_network.node[24].content_store 	misses[24] 	8820
scalar tree_4_3_u03_r7_network.node[24].content_store 	decision_yes[24] 	20
scalar tree_4_3_u03_r7_network.node[24].content_store 	decision_no[24] 	8800
scalar tree_4_3_u03_r7_network.node[24].content_store 	decision_ratio[24] 	0.0022675736961451
scalar tree_4_3_u03_r7_network.node[25].core_layer 	interests[25] 	12391
scalar tree_4_3_u03_r7_network.node[25].core_layer 	data[25] 	8739
scalar tree_4_3_u03_r7_network.node[25].content_store 	p_hit[25] 	0.29473004600113
scalar tree_4_3_u03_r7_network.node[25].content_store 	hits[25] 	3652
scalar tree_4_3_u03_r7_network.node[25].content_store 	misses[25] 	8739
scalar tree_4_3_u03_r7_network.node[25].content_store 	decision_yes[25] 	20
scalar tree_4_3_u03_r7_network.node[25].content_store 	decision_no[25] 	8719
scalar tree_4_3_u03_r7_network.node[25].content_store 	decision_ratio[25] 	0.0022885913720105
scalar tree_4_3_u03_r7_network.node[26].core_layer 	interests[26] 	12517
scalar tree_4_3_u03_r7_network.node[26].core_layer 	data[26] 	8874
scalar tree_4_3_u03_r7_network.node[26].content_store 	p_hit[26] 	0.29088439721978
scalar tree_4_3_u03_r7_network.node[26].content_store 	hits[26] 	3641
scalar tree_4_3_u03_r7_network.node[26].content_store 	misses[26] 	8876
scalar tree_4_3_u03_r7_network.node[26].content_store 	decision_yes[26] 	17
scalar tree_4_3_u03_r7_network.node[26].content_store 	decision_no[26] 	8857
scalar tree_4_3_u03_r7_network.node[26].content_store 	decision_ratio[26] 	0.0019157088122605
scalar tree_4_3_u03_r7_network.node[27].core_layer 	interests[27] 	12734
scalar tree_4_3_u03_r7_network.node[27].core_layer 	data[27] 	8758
scalar tree_4_3_u03_r7_network.node[27].content_store 	p_hit[27] 	0.31223496152034
scalar tree_4_3_u03_r7_network.node[27].content_store 	hits[27] 	3976
scalar tree_4_3_u03_r7_network.node[27].content_store 	misses[27] 	8758
scalar tree_4_3_u03_r7_network.node[27].content_store 	decision_yes[27] 	32
scalar tree_4_3_u03_r7_network.node[27].content_store 	decision_no[27] 	8726
scalar tree_4_3_u03_r7_network.node[27].content_store 	decision_ratio[27] 	0.0036538022379539
scalar tree_4_3_u03_r7_network.node[28].core_layer 	interests[28] 	12481
scalar tree_4_3_u03_r7_network.node[28].core_layer 	data[28] 	8679
scalar tree_4_3_u03_r7_network.node[28].content_store 	p_hit[28] 	0.30462302700104
scalar tree_4_3_u03_r7_network.node[28].content_store 	hits[28] 	3802
scalar tree_4_3_u03_r7_network.node[28].content_store 	misses[28] 	8679
scalar tree_4_3_u03_r7_network.node[28].content_store 	decision_yes[28] 	22
scalar tree_4_3_u03_r7_network.node[28].content_store 	decision_no[28] 	8657
scalar tree_4_3_u03_r7_network.node[28].content_store 	decision_ratio[28] 	0.0025348542458809
scalar tree_4_3_u03_r7_network.node[29].core_layer 	interests[29] 	12585
scalar tree_4_3_u03_r7_network.node[29].core_layer 	data[29] 	8876
scalar tree_4_3_u03_r7_network.node[29].content_store 	p_hit[29] 	0.29471593166468
scalar tree_4_3_u03_r7_network.node[29].content_store 	hits[29] 	3709
scalar tree_4_3_u03_r7_network.node[29].content_store 	misses[29] 	8876
scalar tree_4_3_u03_r7_network.node[29].content_store 	decision_yes[29] 	24
scalar tree_4_3_u03_r7_network.node[29].content_store 	decision_no[29] 	8852
scalar tree_4_3_u03_r7_network.node[29].content_store 	decision_ratio[29] 	0.0027039206849932
scalar tree_4_3_u03_r7_network.node[30].core_layer 	interests[30] 	12558
scalar tree_4_3_u03_r7_network.node[30].core_layer 	data[30] 	8930
scalar tree_4_3_u03_r7_network.node[30].content_store 	p_hit[30] 	0.2888198757764
scalar tree_4_3_u03_r7_network.node[30].content_store 	hits[30] 	3627
scalar tree_4_3_u03_r7_network.node[30].content_store 	misses[30] 	8931
scalar tree_4_3_u03_r7_network.node[30].content_store 	decision_yes[30] 	26
scalar tree_4_3_u03_r7_network.node[30].content_store 	decision_no[30] 	8904
scalar tree_4_3_u03_r7_network.node[30].content_store 	decision_ratio[30] 	0.0029115341545353
scalar tree_4_3_u03_r7_network.node[31].core_layer 	interests[31] 	12310
scalar tree_4_3_u03_r7_network.node[31].core_layer 	data[31] 	8690
scalar tree_4_3_u03_r7_network.node[31].content_store 	p_hit[31] 	0.29406986190089
scalar tree_4_3_u03_r7_network.node[31].content_store 	hits[31] 	3620
scalar tree_4_3_u03_r7_network.node[31].content_store 	misses[31] 	8690
scalar tree_4_3_u03_r7_network.node[31].content_store 	decision_yes[31] 	25
scalar tree_4_3_u03_r7_network.node[31].content_store 	decision_no[31] 	8665
scalar tree_4_3_u03_r7_network.node[31].content_store 	decision_ratio[31] 	0.0028768699654776
scalar tree_4_3_u03_r7_network.node[32].core_layer 	interests[32] 	12209
scalar tree_4_3_u03_r7_network.node[32].core_layer 	data[32] 	8616
scalar tree_4_3_u03_r7_network.node[32].content_store 	p_hit[32] 	0.29429109673192
scalar tree_4_3_u03_r7_network.node[32].content_store 	hits[32] 	3593
scalar tree_4_3_u03_r7_network.node[32].content_store 	misses[32] 	8616
scalar tree_4_3_u03_r7_network.node[32].content_store 	decision_yes[32] 	19
scalar tree_4_3_u03_r7_network.node[32].content_store 	decision_no[32] 	8597
scalar tree_4_3_u03_r7_network.node[32].content_store 	decision_ratio[32] 	0.002205199628598
scalar tree_4_3_u03_r7_network.node[33].core_layer 	interests[33] 	12188
scalar tree_4_3_u03_r7_network.node[33].core_layer 	data[33] 	8620
scalar tree_4_3_u03_r7_network.node[33].content_store 	p_hit[33] 	0.29274696422711
scalar tree_4_3_u03_r7_network.node[33].content_store 	hits[33] 	3568
scalar tree_4_3_u03_r7_network.node[33].content_store 	misses[33] 	8620
scalar tree_4_3_u03_r7_network.node[33].content_store 	decision_yes[33] 	25
scalar tree_4_3_u03_r7_network.node[33].content_store 	decision_no[33] 	8595
scalar tree_4_3_u03_r7_network.node[33].content_store 	decision_ratio[33] 	0.0029002320185615
scalar tree_4_3_u03_r7_network.node[34].core_layer 	interests[34] 	12370
scalar tree_4_3_u03_r7_network.node[34].core_layer 	data[34] 	8587
scalar tree_4_3_u03_r7_network.node[34].content_store 	p_hit[34] 	0.30573969280517
scalar tree_4_3_u03_r7_network.node[34].content_store 	hits[34] 	3782
scalar tree_4_3_u03_r7_network.node[34].content_store 	misses[34] 	8588
scalar tree_4_3_u03_r7_network.node[34].content_store 	decision_yes[34] 	18
scalar tree_4_3_u03_r7_network.node[34].content_store 	decision_no[34] 	8569
scalar tree_4_3_u03_r7_network.node[34].content_store 	decision_ratio[34] 	0.0020961919180156
scalar tree_4_3_u03_r7_network.node[35].core_layer 	interests[35] 	12747
scalar tree_4_3_u03_r7_network.node[35].core_layer 	data[35] 	8911
scalar tree_4_3_u03_r7_network.node[35].content_store 	p_hit[35] 	0.30093355299286
scalar tree_4_3_u03_r7_network.node[35].content_store 	hits[35] 	3836
scalar tree_4_3_u03_r7_network.node[35].content_store 	misses[35] 	8911
scalar tree_4_3_u03_r7_network.node[35].content_store 	decision_yes[35] 	12
scalar tree_4_3_u03_r7_network.node[35].content_store 	decision_no[35] 	8899
scalar tree_4_3_u03_r7_network.node[35].content_store 	decision_ratio[35] 	0.0013466502076086
scalar tree_4_3_u03_r7_network.node[36].core_layer 	interests[36] 	12897
scalar tree_4_3_u03_r7_network.node[36].core_layer 	data[36] 	8878
scalar tree_4_3_u03_r7_network.node[36].content_store 	p_hit[36] 	0.311622858029
scalar tree_4_3_u03_r7_network.node[36].content_store 	hits[36] 	4019
scalar tree_4_3_u03_r7_network.node[36].content_store 	misses[36] 	8878
scalar tree_4_3_u03_r7_network.node[36].content_store 	decision_yes[36] 	24
scalar tree_4_3_u03_r7_network.node[36].content_store 	decision_no[36] 	8854
scalar tree_4_3_u03_r7_network.node[36].content_store 	decision_ratio[36] 	0.0027033115566569
scalar tree_4_3_u03_r7_network.node[37].core_layer 	interests[37] 	12200
scalar tree_4_3_u03_r7_network.node[37].core_layer 	data[37] 	8492
scalar tree_4_3_u03_r7_network.node[37].content_store 	p_hit[37] 	0.30393442622951
scalar tree_4_3_u03_r7_network.node[37].content_store 	hits[37] 	3708
scalar tree_4_3_u03_r7_network.node[37].content_store 	misses[37] 	8492
scalar tree_4_3_u03_r7_network.node[37].content_store 	decision_yes[37] 	13
scalar tree_4_3_u03_r7_network.node[37].content_store 	decision_no[37] 	8479
scalar tree_4_3_u03_r7_network.node[37].content_store 	decision_ratio[37] 	0.001530852567122
scalar tree_4_3_u03_r7_network.node[38].core_layer 	interests[38] 	12746
scalar tree_4_3_u03_r7_network.node[38].core_layer 	data[38] 	8770
scalar tree_4_3_u03_r7_network.node[38].content_store 	p_hit[38] 	0.31194100109838
scalar tree_4_3_u03_r7_network.node[38].content_store 	hits[38] 	3976
scalar tree_4_3_u03_r7_network.node[38].content_store 	misses[38] 	8770
scalar tree_4_3_u03_r7_network.node[38].content_store 	decision_yes[38] 	34
scalar tree_4_3_u03_r7_network.node[38].content_store 	decision_no[38] 	8736
scalar tree_4_3_u03_r7_network.node[38].content_store 	decision_ratio[38] 	0.0038768529076397
scalar tree_4_3_u03_r7_network.node[39].core_layer 	interests[39] 	12233
scalar tree_4_3_u03_r7_network.node[39].core_layer 	data[39] 	8641
scalar tree_4_3_u03_r7_network.node[39].content_store 	p_hit[39] 	0.293631979073
scalar tree_4_3_u03_r7_network.node[39].content_store 	hits[39] 	3592
scalar tree_4_3_u03_r7_network.node[39].content_store 	misses[39] 	8641
scalar tree_4_3_u03_r7_network.node[39].content_store 	decision_yes[39] 	33
scalar tree_4_3_u03_r7_network.node[39].content_store 	decision_no[39] 	8608
scalar tree_4_3_u03_r7_network.node[39].content_store 	decision_ratio[39] 	0.0038190024302743
scalar tree_4_3_u03_r7_network.client[13] 	hdistance[13] 	2.6834312184631
scalar tree_4_3_u03_r7_network.client[13] 	downloads[13] 	12089
scalar tree_4_3_u03_r7_network.client[13] 	avg_time[13] 	0.00417089612
scalar tree_4_3_u03_r7_network.client[14] 	hdistance[14] 	2.6464838896712
scalar tree_4_3_u03_r7_network.client[14] 	downloads[14] 	12073
scalar tree_4_3_u03_r7_network.client[14] 	avg_time[14] 	0.004110160154
scalar tree_4_3_u03_r7_network.client[15] 	hdistance[15] 	2.5632422556266
scalar tree_4_3_u03_r7_network.client[15] 	downloads[15] 	12041
scalar tree_4_3_u03_r7_network.client[15] 	avg_time[15] 	0.004004306696
scalar tree_4_3_u03_r7_network.client[16] 	hdistance[16] 	2.5894551255142
scalar tree_4_3_u03_r7_network.client[16] 	downloads[16] 	11911
scalar tree_4_3_u03_r7_network.client[16] 	avg_time[16] 	0.004007616283
scalar tree_4_3_u03_r7_network.client[17] 	hdistance[17] 	2.6665829145729
scalar tree_4_3_u03_r7_network.client[17] 	downloads[17] 	11940
scalar tree_4_3_u03_r7_network.client[17] 	avg_time[17] 	0.004146730711
scalar tree_4_3_u03_r7_network.client[18] 	hdistance[18] 	2.6441125505405
scalar tree_4_3_u03_r7_network.client[18] 	downloads[18] 	12119
scalar tree_4_3_u03_r7_network.client[18] 	avg_time[18] 	0.00410528618
scalar tree_4_3_u03_r7_network.client[19] 	hdistance[19] 	2.614795287915
scalar tree_4_3_u03_r7_network.client[19] 	downloads[19] 	12139
scalar tree_4_3_u03_r7_network.client[19] 	avg_time[19] 	0.004103794658
scalar tree_4_3_u03_r7_network.client[20] 	hdistance[20] 	2.6035605373774
scalar tree_4_3_u03_r7_network.client[20] 	downloads[20] 	12133
scalar tree_4_3_u03_r7_network.client[20] 	avg_time[20] 	0.004092966528
scalar tree_4_3_u03_r7_network.client[21] 	hdistance[21] 	2.6021246576479
scalar tree_4_3_u03_r7_network.client[21] 	downloads[21] 	12049
scalar tree_4_3_u03_r7_network.client[21] 	avg_time[21] 	0.004082161451
scalar tree_4_3_u03_r7_network.client[22] 	hdistance[22] 	2.6608409321175
scalar tree_4_3_u03_r7_network.client[22] 	downloads[22] 	11844
scalar tree_4_3_u03_r7_network.client[22] 	avg_time[22] 	0.00416885891
scalar tree_4_3_u03_r7_network.client[23] 	hdistance[23] 	2.5969468182195
scalar tree_4_3_u03_r7_network.client[23] 	downloads[23] 	12053
scalar tree_4_3_u03_r7_network.client[23] 	avg_time[23] 	0.004046956246
scalar tree_4_3_u03_r7_network.client[24] 	hdistance[24] 	2.6509018369213
scalar tree_4_3_u03_r7_network.client[24] 	downloads[24] 	12031
scalar tree_4_3_u03_r7_network.client[24] 	avg_time[24] 	0.004157922361
scalar tree_4_3_u03_r7_network.client[25] 	hdistance[25] 	2.640768588137
scalar tree_4_3_u03_r7_network.client[25] 	downloads[25] 	11970
scalar tree_4_3_u03_r7_network.client[25] 	avg_time[25] 	0.004139846647
scalar tree_4_3_u03_r7_network.client[26] 	hdistance[26] 	2.6562345169281
scalar tree_4_3_u03_r7_network.client[26] 	downloads[26] 	12110
scalar tree_4_3_u03_r7_network.client[26] 	avg_time[26] 	0.004151276911
scalar tree_4_3_u03_r7_network.client[27] 	hdistance[27] 	2.5840499072669
scalar tree_4_3_u03_r7_network.client[27] 	downloads[27] 	11862
scalar tree_4_3_u03_r7_network.client[27] 	avg_time[27] 	0.004026819104
scalar tree_4_3_u03_r7_network.client[28] 	hdistance[28] 	2.6290174471993
scalar tree_4_3_u03_r7_network.client[28] 	downloads[28] 	11979
scalar tree_4_3_u03_r7_network.client[28] 	avg_time[28] 	0.004113862926
scalar tree_4_3_u03_r7_network.client[29] 	hdistance[29] 	2.6567275747508
scalar tree_4_3_u03_r7_network.client[29] 	downloads[29] 	12040
scalar tree_4_3_u03_r7_network.client[29] 	avg_time[29] 	0.004158967135
scalar tree_4_3_u03_r7_network.client[30] 	hdistance[30] 	2.6681009515929
scalar tree_4_3_u03_r7_network.client[30] 	downloads[30] 	12085
scalar tree_4_3_u03_r7_network.client[30] 	avg_time[30] 	0.00417178015
scalar tree_4_3_u03_r7_network.client[31] 	hdistance[31] 	2.6373009220453
scalar tree_4_3_u03_r7_network.client[31] 	downloads[31] 	11930
scalar tree_4_3_u03_r7_network.client[31] 	avg_time[31] 	0.004124892235
scalar tree_4_3_u03_r7_network.client[32] 	hdistance[32] 	2.6501859364435
scalar tree_4_3_u03_r7_network.client[32] 	downloads[32] 	11832
scalar tree_4_3_u03_r7_network.client[32] 	avg_time[32] 	0.004136575791
scalar tree_4_3_u03_r7_network.client[33] 	hdistance[33] 	2.6655075905352
scalar tree_4_3_u03_r7_network.client[33] 	downloads[33] 	11791
scalar tree_4_3_u03_r7_network.client[33] 	avg_time[33] 	0.004166395175
scalar tree_4_3_u03_r7_network.client[34] 	hdistance[34] 	2.5937762825904
scalar tree_4_3_u03_r7_network.client[34] 	downloads[34] 	11890
scalar tree_4_3_u03_r7_network.client[34] 	avg_time[34] 	0.004084101323
scalar tree_4_3_u03_r7_network.client[35] 	hdistance[35] 	2.6318636289133
scalar tree_4_3_u03_r7_network.client[35] 	downloads[35] 	12202
scalar tree_4_3_u03_r7_network.client[35] 	avg_time[35] 	0.004147513748
scalar tree_4_3_u03_r7_network.client[36] 	hdistance[36] 	2.5885524678557
scalar tree_4_3_u03_r7_network.client[36] 	downloads[36] 	12055
scalar tree_4_3_u03_r7_network.client[36] 	avg_time[36] 	0.004049271101
scalar tree_4_3_u03_r7_network.client[37] 	hdistance[37] 	2.6094107672743
scalar tree_4_3_u03_r7_network.client[37] 	downloads[37] 	11795
scalar tree_4_3_u03_r7_network.client[37] 	avg_time[37] 	0.004076470134
scalar tree_4_3_u03_r7_network.client[38] 	hdistance[38] 	2.5690091001011
scalar tree_4_3_u03_r7_network.client[38] 	downloads[38] 	11868
scalar tree_4_3_u03_r7_network.client[38] 	avg_time[38] 	0.004035723362
scalar tree_4_3_u03_r7_network.client[39] 	hdistance[39] 	2.6272374197906
scalar tree_4_3_u03_r7_network.client[39] 	downloads[39] 	11844
scalar tree_4_3_u03_r7_network.client[39] 	avg_time[39] 	0.004111614749
