version 2
run General-8-20160830-14:07:13-31327
attr a 0.9
attr branch 3
attr cd ffc0.1
attr configname General
attr cr lru
attr datetime 20160830-14:07:13
attr experiment General
attr fsize 1
attr inifile hw5115/scenario_E/omnetp.ini
attr iterationvars "$name=tree, $levels=5, $branch=3, $un=10, $rep=1, $cd=ffc0.1, $cr=lru, $fsize=1, $a=0.9, $sl=nrr, $ttl=1000, $variance=0.05"
attr iterationvars2 "$name=tree, $levels=5, $branch=3, $un=10, $rep=1, $cd=ffc0.1, $cr=lru, $fsize=1, $a=0.9, $sl=nrr, $ttl=1000, $variance=0.05, $repetition=0"
attr levels 5
attr measurement "$name=tree, $levels=5, $branch=3, $un=10, $rep=1, $cd=ffc0.1, $cr=lru, $fsize=1, $a=0.9, $sl=nrr, $ttl=1000, $variance=0.05"
attr name tree
attr network networks.${name}_${levels}_${branch}_u${un}_r${rep}_network
attr processid 31327
attr rep 1
attr repetition 0
attr replication #0
attr resultdir results
attr runnumber 8
attr seedset 1
attr sl nrr
attr ttl 1000
attr un 10
attr variance 0.05

scalar . 	a 	0.9
scalar . 	branch 	3
scalar . 	fsize 	1
scalar . 	levels 	5
scalar . 	rep 	1
scalar . 	ttl 	1000
scalar . 	un 	10
scalar . 	variance 	0.05
scalar tree_5_3_u10_r1_network.content_distribution 	repo-0 	0
scalar tree_5_3_u10_r1_network.content_distribution 	client-0 	120
scalar tree_5_3_u10_r1_network.content_distribution 	client-1 	119
scalar tree_5_3_u10_r1_network.content_distribution 	client-2 	118
scalar tree_5_3_u10_r1_network.content_distribution 	client-3 	117
scalar tree_5_3_u10_r1_network.content_distribution 	client-4 	116
scalar tree_5_3_u10_r1_network.content_distribution 	client-5 	115
scalar tree_5_3_u10_r1_network.content_distribution 	client-6 	114
scalar tree_5_3_u10_r1_network.content_distribution 	client-7 	113
scalar tree_5_3_u10_r1_network.content_distribution 	client-8 	112
scalar tree_5_3_u10_r1_network.content_distribution 	client-9 	111
scalar tree_5_3_u10_r1_network.content_distribution 	client-10 	110
scalar tree_5_3_u10_r1_network.content_distribution 	client-11 	109
scalar tree_5_3_u10_r1_network.content_distribution 	client-12 	108
scalar tree_5_3_u10_r1_network.content_distribution 	client-13 	107
scalar tree_5_3_u10_r1_network.content_distribution 	client-14 	106
scalar tree_5_3_u10_r1_network.content_distribution 	client-15 	105
scalar tree_5_3_u10_r1_network.content_distribution 	client-16 	104
scalar tree_5_3_u10_r1_network.content_distribution 	client-17 	103
scalar tree_5_3_u10_r1_network.content_distribution 	client-18 	102
scalar tree_5_3_u10_r1_network.content_distribution 	client-19 	101
scalar tree_5_3_u10_r1_network.content_distribution 	client-20 	100
scalar tree_5_3_u10_r1_network.content_distribution 	client-21 	99
scalar tree_5_3_u10_r1_network.content_distribution 	client-22 	98
scalar tree_5_3_u10_r1_network.content_distribution 	client-23 	97
scalar tree_5_3_u10_r1_network.content_distribution 	client-24 	96
scalar tree_5_3_u10_r1_network.content_distribution 	client-25 	95
scalar tree_5_3_u10_r1_network.content_distribution 	client-26 	94
scalar tree_5_3_u10_r1_network.content_distribution 	client-27 	93
scalar tree_5_3_u10_r1_network.content_distribution 	client-28 	92
scalar tree_5_3_u10_r1_network.content_distribution 	client-29 	91
scalar tree_5_3_u10_r1_network.content_distribution 	client-30 	90
scalar tree_5_3_u10_r1_network.content_distribution 	client-31 	89
scalar tree_5_3_u10_r1_network.content_distribution 	client-32 	88
scalar tree_5_3_u10_r1_network.content_distribution 	client-33 	87
scalar tree_5_3_u10_r1_network.content_distribution 	client-34 	86
scalar tree_5_3_u10_r1_network.content_distribution 	client-35 	85
scalar tree_5_3_u10_r1_network.content_distribution 	client-36 	84
scalar tree_5_3_u10_r1_network.content_distribution 	client-37 	83
scalar tree_5_3_u10_r1_network.content_distribution 	client-38 	82
scalar tree_5_3_u10_r1_network.content_distribution 	client-39 	81
scalar tree_5_3_u10_r1_network.content_distribution 	client-40 	80
scalar tree_5_3_u10_r1_network.content_distribution 	client-41 	79
scalar tree_5_3_u10_r1_network.content_distribution 	client-42 	78
scalar tree_5_3_u10_r1_network.content_distribution 	client-43 	77
scalar tree_5_3_u10_r1_network.content_distribution 	client-44 	76
scalar tree_5_3_u10_r1_network.content_distribution 	client-45 	75
scalar tree_5_3_u10_r1_network.content_distribution 	client-46 	74
scalar tree_5_3_u10_r1_network.content_distribution 	client-47 	73
scalar tree_5_3_u10_r1_network.content_distribution 	client-48 	72
scalar tree_5_3_u10_r1_network.content_distribution 	client-49 	71
scalar tree_5_3_u10_r1_network.content_distribution 	client-50 	70
scalar tree_5_3_u10_r1_network.content_distribution 	client-51 	69
scalar tree_5_3_u10_r1_network.content_distribution 	client-52 	68
scalar tree_5_3_u10_r1_network.content_distribution 	client-53 	67
scalar tree_5_3_u10_r1_network.content_distribution 	client-54 	66
scalar tree_5_3_u10_r1_network.content_distribution 	client-55 	65
scalar tree_5_3_u10_r1_network.content_distribution 	client-56 	64
scalar tree_5_3_u10_r1_network.content_distribution 	client-57 	63
scalar tree_5_3_u10_r1_network.content_distribution 	client-58 	62
scalar tree_5_3_u10_r1_network.content_distribution 	client-59 	61
scalar tree_5_3_u10_r1_network.content_distribution 	client-60 	60
scalar tree_5_3_u10_r1_network.content_distribution 	client-61 	59
scalar tree_5_3_u10_r1_network.content_distribution 	client-62 	58
scalar tree_5_3_u10_r1_network.content_distribution 	client-63 	57
scalar tree_5_3_u10_r1_network.content_distribution 	client-64 	56
scalar tree_5_3_u10_r1_network.content_distribution 	client-65 	55
scalar tree_5_3_u10_r1_network.content_distribution 	client-66 	54
scalar tree_5_3_u10_r1_network.content_distribution 	client-67 	53
scalar tree_5_3_u10_r1_network.content_distribution 	client-68 	52
scalar tree_5_3_u10_r1_network.content_distribution 	client-69 	51
scalar tree_5_3_u10_r1_network.content_distribution 	client-70 	50
scalar tree_5_3_u10_r1_network.content_distribution 	client-71 	49
scalar tree_5_3_u10_r1_network.content_distribution 	client-72 	48
scalar tree_5_3_u10_r1_network.content_distribution 	client-73 	47
scalar tree_5_3_u10_r1_network.content_distribution 	client-74 	46
scalar tree_5_3_u10_r1_network.content_distribution 	client-75 	45
scalar tree_5_3_u10_r1_network.content_distribution 	client-76 	44
scalar tree_5_3_u10_r1_network.content_distribution 	client-77 	43
scalar tree_5_3_u10_r1_network.content_distribution 	client-78 	42
scalar tree_5_3_u10_r1_network.content_distribution 	client-79 	41
scalar tree_5_3_u10_r1_network.content_distribution 	client-80 	40
scalar tree_5_3_u10_r1_network.content_distribution 	repo-0_card 	100000
scalar tree_5_3_u10_r1_network.content_distribution 	repo-0_price 	0
scalar tree_5_3_u10_r1_network.statistics 	stabilization_time 	2545.8
scalar tree_5_3_u10_r1_network.statistics 	p_hit 	0.25226206304889
scalar tree_5_3_u10_r1_network.statistics 	interests 	28767.669421488
scalar tree_5_3_u10_r1_network.statistics 	data 	20739.58677686
scalar tree_5_3_u10_r1_network.statistics 	hdistance 	3.0826651130223
scalar tree_5_3_u10_r1_network.statistics 	avg_time 	0.005166855301
scalar tree_5_3_u10_r1_network.statistics 	downloads 	971394
scalar tree_5_3_u10_r1_network.statistics 	total_cost 	0
scalar tree_5_3_u10_r1_network.statistics 	total_replicas 	100000
scalar tree_5_3_u10_r1_network.statistics 	inner_hit 	0.50081944092716
scalar tree_5_3_u10_r1_network.node[0].core_layer 	interests[0] 	490917
scalar tree_5_3_u10_r1_network.node[0].core_layer 	repo_load[0] 	484901
scalar tree_5_3_u10_r1_network.node[0].core_layer 	data[0] 	0
scalar tree_5_3_u10_r1_network.node[0].core_layer 	repo_int[0] 	484901
scalar tree_5_3_u10_r1_network.node[0].content_store 	p_hit[0] 	0.012254617379313
scalar tree_5_3_u10_r1_network.node[0].content_store 	hits[0] 	6016
scalar tree_5_3_u10_r1_network.node[0].content_store 	misses[0] 	484901
scalar tree_5_3_u10_r1_network.node[0].content_store 	decision_yes[0] 	135
scalar tree_5_3_u10_r1_network.node[0].content_store 	decision_no[0] 	484766
scalar tree_5_3_u10_r1_network.node[0].content_store 	decision_ratio[0] 	0.00027840734500444
scalar tree_5_3_u10_r1_network.node[1].core_layer 	interests[1] 	419984
scalar tree_5_3_u10_r1_network.node[1].core_layer 	data[1] 	413131
scalar tree_5_3_u10_r1_network.node[1].content_store 	p_hit[1] 	0.016291096803688
scalar tree_5_3_u10_r1_network.node[1].content_store 	hits[1] 	6842
scalar tree_5_3_u10_r1_network.node[1].content_store 	misses[1] 	413142
scalar tree_5_3_u10_r1_network.node[1].content_store 	decision_yes[1] 	141
scalar tree_5_3_u10_r1_network.node[1].content_store 	decision_no[1] 	412990
scalar tree_5_3_u10_r1_network.node[1].content_store 	decision_ratio[1] 	0.00034129610220487
scalar tree_5_3_u10_r1_network.node[2].core_layer 	interests[2] 	109421
scalar tree_5_3_u10_r1_network.node[2].core_layer 	data[2] 	102715
scalar tree_5_3_u10_r1_network.node[2].content_store 	p_hit[2] 	0.061277085751364
scalar tree_5_3_u10_r1_network.node[2].content_store 	hits[2] 	6705
scalar tree_5_3_u10_r1_network.node[2].content_store 	misses[2] 	102716
scalar tree_5_3_u10_r1_network.node[2].content_store 	decision_yes[2] 	45
scalar tree_5_3_u10_r1_network.node[2].content_store 	decision_no[2] 	102670
scalar tree_5_3_u10_r1_network.node[2].content_store 	decision_ratio[2] 	0.00043810543737526
scalar tree_5_3_u10_r1_network.node[3].core_layer 	interests[3] 	18099
scalar tree_5_3_u10_r1_network.node[3].core_layer 	data[3] 	11657
scalar tree_5_3_u10_r1_network.node[3].content_store 	p_hit[3] 	0.35593126692082
scalar tree_5_3_u10_r1_network.node[3].content_store 	hits[3] 	6442
scalar tree_5_3_u10_r1_network.node[3].content_store 	misses[3] 	11657
scalar tree_5_3_u10_r1_network.node[3].content_store 	decision_yes[3] 	63
scalar tree_5_3_u10_r1_network.node[3].content_store 	decision_no[3] 	11594
scalar tree_5_3_u10_r1_network.node[3].content_store 	decision_ratio[3] 	0.0054044779960539
scalar tree_5_3_u10_r1_network.node[4].core_layer 	interests[4] 	136722
scalar tree_5_3_u10_r1_network.node[4].core_layer 	data[4] 	130957
scalar tree_5_3_u10_r1_network.node[4].content_store 	p_hit[4] 	0.042136598352862
scalar tree_5_3_u10_r1_network.node[4].content_store 	hits[4] 	5761
scalar tree_5_3_u10_r1_network.node[4].content_store 	misses[4] 	130961
scalar tree_5_3_u10_r1_network.node[4].content_store 	decision_yes[4] 	59
scalar tree_5_3_u10_r1_network.node[4].content_store 	decision_no[4] 	130898
scalar tree_5_3_u10_r1_network.node[4].content_store 	decision_ratio[4] 	0.00045052956313905
scalar tree_5_3_u10_r1_network.node[5].core_layer 	interests[5] 	63000
scalar tree_5_3_u10_r1_network.node[5].core_layer 	data[5] 	56390
scalar tree_5_3_u10_r1_network.node[5].content_store 	p_hit[5] 	0.10488888888889
scalar tree_5_3_u10_r1_network.node[5].content_store 	hits[5] 	6608
scalar tree_5_3_u10_r1_network.node[5].content_store 	misses[5] 	56392
scalar tree_5_3_u10_r1_network.node[5].content_store 	decision_yes[5] 	73
scalar tree_5_3_u10_r1_network.node[5].content_store 	decision_no[5] 	56317
scalar tree_5_3_u10_r1_network.node[5].content_store 	decision_ratio[5] 	0.0012945557723001
scalar tree_5_3_u10_r1_network.node[6].core_layer 	interests[6] 	18801
scalar tree_5_3_u10_r1_network.node[6].core_layer 	data[6] 	12942
scalar tree_5_3_u10_r1_network.node[6].content_store 	p_hit[6] 	0.31163235998085
scalar tree_5_3_u10_r1_network.node[6].content_store 	hits[6] 	5859
scalar tree_5_3_u10_r1_network.node[6].content_store 	misses[6] 	12942
scalar tree_5_3_u10_r1_network.node[6].content_store 	decision_yes[6] 	68
scalar tree_5_3_u10_r1_network.node[6].content_store 	decision_no[6] 	12874
scalar tree_5_3_u10_r1_network.node[6].content_store 	decision_ratio[6] 	0.0052542110956575
scalar tree_5_3_u10_r1_network.node[7].core_layer 	interests[7] 	143945
scalar tree_5_3_u10_r1_network.node[7].core_layer 	data[7] 	136618
scalar tree_5_3_u10_r1_network.node[7].content_store 	p_hit[7] 	0.050866650456772
scalar tree_5_3_u10_r1_network.node[7].content_store 	hits[7] 	7322
scalar tree_5_3_u10_r1_network.node[7].content_store 	misses[7] 	136623
scalar tree_5_3_u10_r1_network.node[7].content_store 	decision_yes[7] 	71
scalar tree_5_3_u10_r1_network.node[7].content_store 	decision_no[7] 	136547
scalar tree_5_3_u10_r1_network.node[7].content_store 	decision_ratio[7] 	0.00051969725804799
scalar tree_5_3_u10_r1_network.node[8].core_layer 	interests[8] 	56859
scalar tree_5_3_u10_r1_network.node[8].core_layer 	data[8] 	51741
scalar tree_5_3_u10_r1_network.node[8].content_store 	p_hit[8] 	0.090012135282013
scalar tree_5_3_u10_r1_network.node[8].content_store 	hits[8] 	5118
scalar tree_5_3_u10_r1_network.node[8].content_store 	misses[8] 	51741
scalar tree_5_3_u10_r1_network.node[8].content_store 	decision_yes[8] 	39
scalar tree_5_3_u10_r1_network.node[8].content_store 	decision_no[8] 	51702
scalar tree_5_3_u10_r1_network.node[8].content_store 	decision_ratio[8] 	0.00075375427610599
scalar tree_5_3_u10_r1_network.node[9].core_layer 	interests[9] 	19121
scalar tree_5_3_u10_r1_network.node[9].core_layer 	data[9] 	13318
scalar tree_5_3_u10_r1_network.node[9].content_store 	p_hit[9] 	0.30348831128079
scalar tree_5_3_u10_r1_network.node[9].content_store 	hits[9] 	5803
scalar tree_5_3_u10_r1_network.node[9].content_store 	misses[9] 	13318
scalar tree_5_3_u10_r1_network.node[9].content_store 	decision_yes[9] 	75
scalar tree_5_3_u10_r1_network.node[9].content_store 	decision_no[9] 	13243
scalar tree_5_3_u10_r1_network.node[9].content_store 	decision_ratio[9] 	0.0056314761976273
scalar tree_5_3_u10_r1_network.node[10].core_layer 	interests[10] 	141464
scalar tree_5_3_u10_r1_network.node[10].core_layer 	data[10] 	134903
scalar tree_5_3_u10_r1_network.node[10].content_store 	p_hit[10] 	0.046358084035514
scalar tree_5_3_u10_r1_network.node[10].content_store 	hits[10] 	6558
scalar tree_5_3_u10_r1_network.node[10].content_store 	misses[10] 	134906
scalar tree_5_3_u10_r1_network.node[10].content_store 	decision_yes[10] 	70
scalar tree_5_3_u10_r1_network.node[10].content_store 	decision_no[10] 	134833
scalar tree_5_3_u10_r1_network.node[10].content_store 	decision_ratio[10] 	0.00051889135156372
scalar tree_5_3_u10_r1_network.node[11].core_layer 	interests[11] 	60894
scalar tree_5_3_u10_r1_network.node[11].core_layer 	data[11] 	55256
scalar tree_5_3_u10_r1_network.node[11].content_store 	p_hit[11] 	0.092587118599534
scalar tree_5_3_u10_r1_network.node[11].content_store 	hits[11] 	5638
scalar tree_5_3_u10_r1_network.node[11].content_store 	misses[11] 	55256
scalar tree_5_3_u10_r1_network.node[11].content_store 	decision_yes[11] 	58
scalar tree_5_3_u10_r1_network.node[11].content_store 	decision_no[11] 	55198
scalar tree_5_3_u10_r1_network.node[11].content_store 	decision_ratio[11] 	0.0010496597654553
scalar tree_5_3_u10_r1_network.node[12].core_layer 	interests[12] 	14080
scalar tree_5_3_u10_r1_network.node[12].core_layer 	data[12] 	9824
scalar tree_5_3_u10_r1_network.node[12].content_store 	p_hit[12] 	0.30227272727273
scalar tree_5_3_u10_r1_network.node[12].content_store 	hits[12] 	4256
scalar tree_5_3_u10_r1_network.node[12].content_store 	misses[12] 	9824
scalar tree_5_3_u10_r1_network.node[12].content_store 	decision_yes[12] 	41
scalar tree_5_3_u10_r1_network.node[12].content_store 	decision_no[12] 	9783
scalar tree_5_3_u10_r1_network.node[12].content_store 	decision_ratio[12] 	0.0041734527687296
scalar tree_5_3_u10_r1_network.node[13].core_layer 	interests[13] 	41116
scalar tree_5_3_u10_r1_network.node[13].core_layer 	data[13] 	37818
scalar tree_5_3_u10_r1_network.node[13].content_store 	p_hit[13] 	0.080187761455394
scalar tree_5_3_u10_r1_network.node[13].content_store 	hits[13] 	3297
scalar tree_5_3_u10_r1_network.node[13].content_store 	misses[13] 	37819
scalar tree_5_3_u10_r1_network.node[13].content_store 	decision_yes[13] 	28
scalar tree_5_3_u10_r1_network.node[13].content_store 	decision_no[13] 	37790
scalar tree_5_3_u10_r1_network.node[13].content_store 	decision_ratio[13] 	0.00074038817494315
scalar tree_5_3_u10_r1_network.node[14].core_layer 	interests[14] 	29257
scalar tree_5_3_u10_r1_network.node[14].core_layer 	data[14] 	25164
scalar tree_5_3_u10_r1_network.node[14].content_store 	p_hit[14] 	0.13989814403391
scalar tree_5_3_u10_r1_network.node[14].content_store 	hits[14] 	4093
scalar tree_5_3_u10_r1_network.node[14].content_store 	misses[14] 	25164
scalar tree_5_3_u10_r1_network.node[14].content_store 	decision_yes[14] 	39
scalar tree_5_3_u10_r1_network.node[14].content_store 	decision_no[14] 	25125
scalar tree_5_3_u10_r1_network.node[14].content_store 	decision_ratio[14] 	0.0015498330948975
scalar tree_5_3_u10_r1_network.node[15].core_layer 	interests[15] 	14908
scalar tree_5_3_u10_r1_network.node[15].core_layer 	data[15] 	11183
scalar tree_5_3_u10_r1_network.node[15].content_store 	p_hit[15] 	0.24986584384223
scalar tree_5_3_u10_r1_network.node[15].content_store 	hits[15] 	3725
scalar tree_5_3_u10_r1_network.node[15].content_store 	misses[15] 	11183
scalar tree_5_3_u10_r1_network.node[15].content_store 	decision_yes[15] 	44
scalar tree_5_3_u10_r1_network.node[15].content_store 	decision_no[15] 	11139
scalar tree_5_3_u10_r1_network.node[15].content_store 	decision_ratio[15] 	0.0039345435035321
scalar tree_5_3_u10_r1_network.node[16].core_layer 	interests[16] 	44151
scalar tree_5_3_u10_r1_network.node[16].core_layer 	data[16] 	39913
scalar tree_5_3_u10_r1_network.node[16].content_store 	p_hit[16] 	0.095943466739145
scalar tree_5_3_u10_r1_network.node[16].content_store 	hits[16] 	4236
scalar tree_5_3_u10_r1_network.node[16].content_store 	misses[16] 	39915
scalar tree_5_3_u10_r1_network.node[16].content_store 	decision_yes[16] 	38
scalar tree_5_3_u10_r1_network.node[16].content_store 	decision_no[16] 	39875
scalar tree_5_3_u10_r1_network.node[16].content_store 	decision_ratio[16] 	0.00095207075388971
scalar tree_5_3_u10_r1_network.node[17].core_layer 	interests[17] 	27306
scalar tree_5_3_u10_r1_network.node[17].core_layer 	data[17] 	24041
scalar tree_5_3_u10_r1_network.node[17].content_store 	p_hit[17] 	0.1195707903025
scalar tree_5_3_u10_r1_network.node[17].content_store 	hits[17] 	3265
scalar tree_5_3_u10_r1_network.node[17].content_store 	misses[17] 	24041
scalar tree_5_3_u10_r1_network.node[17].content_store 	decision_yes[17] 	24
scalar tree_5_3_u10_r1_network.node[17].content_store 	decision_no[17] 	24017
scalar tree_5_3_u10_r1_network.node[17].content_store 	decision_ratio[17] 	0.00099829458009234
scalar tree_5_3_u10_r1_network.node[18].core_layer 	interests[18] 	14721
scalar tree_5_3_u10_r1_network.node[18].core_layer 	data[18] 	10901
scalar tree_5_3_u10_r1_network.node[18].content_store 	p_hit[18] 	0.25942531078052
scalar tree_5_3_u10_r1_network.node[18].content_store 	hits[18] 	3819
scalar tree_5_3_u10_r1_network.node[18].content_store 	misses[18] 	10902
scalar tree_5_3_u10_r1_network.node[18].content_store 	decision_yes[18] 	29
scalar tree_5_3_u10_r1_network.node[18].content_store 	decision_no[18] 	10872
scalar tree_5_3_u10_r1_network.node[18].content_store 	decision_ratio[18] 	0.0026603063939088
scalar tree_5_3_u10_r1_network.node[19].core_layer 	interests[19] 	43214
scalar tree_5_3_u10_r1_network.node[19].core_layer 	data[19] 	39204
scalar tree_5_3_u10_r1_network.node[19].content_store 	p_hit[19] 	0.092770861294951
scalar tree_5_3_u10_r1_network.node[19].content_store 	hits[19] 	4009
scalar tree_5_3_u10_r1_network.node[19].content_store 	misses[19] 	39205
scalar tree_5_3_u10_r1_network.node[19].content_store 	decision_yes[19] 	40
scalar tree_5_3_u10_r1_network.node[19].content_store 	decision_no[19] 	39164
scalar tree_5_3_u10_r1_network.node[19].content_store 	decision_ratio[19] 	0.0010203040506071
scalar tree_5_3_u10_r1_network.node[20].core_layer 	interests[20] 	29534
scalar tree_5_3_u10_r1_network.node[20].core_layer 	data[20] 	25608
scalar tree_5_3_u10_r1_network.node[20].content_store 	p_hit[20] 	0.13286381797251
scalar tree_5_3_u10_r1_network.node[20].content_store 	hits[20] 	3924
scalar tree_5_3_u10_r1_network.node[20].content_store 	misses[20] 	25610
scalar tree_5_3_u10_r1_network.node[20].content_store 	decision_yes[20] 	32
scalar tree_5_3_u10_r1_network.node[20].content_store 	decision_no[20] 	25576
scalar tree_5_3_u10_r1_network.node[20].content_store 	decision_ratio[20] 	0.0012496094970322
scalar tree_5_3_u10_r1_network.node[21].core_layer 	interests[21] 	11820
scalar tree_5_3_u10_r1_network.node[21].core_layer 	data[21] 	8975
scalar tree_5_3_u10_r1_network.node[21].content_store 	p_hit[21] 	0.2406937394247
scalar tree_5_3_u10_r1_network.node[21].content_store 	hits[21] 	2845
scalar tree_5_3_u10_r1_network.node[21].content_store 	misses[21] 	8975
scalar tree_5_3_u10_r1_network.node[21].content_store 	decision_yes[21] 	23
scalar tree_5_3_u10_r1_network.node[21].content_store 	decision_no[21] 	8952
scalar tree_5_3_u10_r1_network.node[21].content_store 	decision_ratio[21] 	0.0025626740947075
scalar tree_5_3_u10_r1_network.node[22].core_layer 	interests[22] 	41897
scalar tree_5_3_u10_r1_network.node[22].core_layer 	data[22] 	38515
scalar tree_5_3_u10_r1_network.node[22].content_store 	p_hit[22] 	0.080745638112514
scalar tree_5_3_u10_r1_network.node[22].content_store 	hits[22] 	3383
scalar tree_5_3_u10_r1_network.node[22].content_store 	misses[22] 	38514
scalar tree_5_3_u10_r1_network.node[22].content_store 	decision_yes[22] 	32
scalar tree_5_3_u10_r1_network.node[22].content_store 	decision_no[22] 	38483
scalar tree_5_3_u10_r1_network.node[22].content_store 	decision_ratio[22] 	0.00083084512527587
scalar tree_5_3_u10_r1_network.node[23].core_layer 	interests[23] 	29494
scalar tree_5_3_u10_r1_network.node[23].core_layer 	data[23] 	25397
scalar tree_5_3_u10_r1_network.node[23].content_store 	p_hit[23] 	0.13887570353292
scalar tree_5_3_u10_r1_network.node[23].content_store 	hits[23] 	4096
scalar tree_5_3_u10_r1_network.node[23].content_store 	misses[23] 	25398
scalar tree_5_3_u10_r1_network.node[23].content_store 	decision_yes[23] 	37
scalar tree_5_3_u10_r1_network.node[23].content_store 	decision_no[23] 	25360
scalar tree_5_3_u10_r1_network.node[23].content_store 	decision_ratio[23] 	0.0014568649840532
scalar tree_5_3_u10_r1_network.node[24].core_layer 	interests[24] 	14608
scalar tree_5_3_u10_r1_network.node[24].core_layer 	data[24] 	10667
scalar tree_5_3_u10_r1_network.node[24].content_store 	p_hit[24] 	0.26985213581599
scalar tree_5_3_u10_r1_network.node[24].content_store 	hits[24] 	3942
scalar tree_5_3_u10_r1_network.node[24].content_store 	misses[24] 	10666
scalar tree_5_3_u10_r1_network.node[24].content_store 	decision_yes[24] 	44
scalar tree_5_3_u10_r1_network.node[24].content_store 	decision_no[24] 	10623
scalar tree_5_3_u10_r1_network.node[24].content_store 	decision_ratio[24] 	0.0041248710977782
scalar tree_5_3_u10_r1_network.node[25].core_layer 	interests[25] 	44232
scalar tree_5_3_u10_r1_network.node[25].core_layer 	data[25] 	39872
scalar tree_5_3_u10_r1_network.node[25].content_store 	p_hit[25] 	0.098548562126967
scalar tree_5_3_u10_r1_network.node[25].content_store 	hits[25] 	4359
scalar tree_5_3_u10_r1_network.node[25].content_store 	misses[25] 	39873
scalar tree_5_3_u10_r1_network.node[25].content_store 	decision_yes[25] 	35
scalar tree_5_3_u10_r1_network.node[25].content_store 	decision_no[25] 	39837
scalar tree_5_3_u10_r1_network.node[25].content_store 	decision_ratio[25] 	0.00087780898876404
scalar tree_5_3_u10_r1_network.node[26].core_layer 	interests[26] 	26530
scalar tree_5_3_u10_r1_network.node[26].core_layer 	data[26] 	23578
scalar tree_5_3_u10_r1_network.node[26].content_store 	p_hit[26] 	0.11127026008292
scalar tree_5_3_u10_r1_network.node[26].content_store 	hits[26] 	2952
scalar tree_5_3_u10_r1_network.node[26].content_store 	misses[26] 	23578
scalar tree_5_3_u10_r1_network.node[26].content_store 	decision_yes[26] 	19
scalar tree_5_3_u10_r1_network.node[26].content_store 	decision_no[26] 	23559
scalar tree_5_3_u10_r1_network.node[26].content_store 	decision_ratio[26] 	0.0008058359487658
scalar tree_5_3_u10_r1_network.node[27].core_layer 	interests[27] 	15125
scalar tree_5_3_u10_r1_network.node[27].core_layer 	data[27] 	11210
scalar tree_5_3_u10_r1_network.node[27].content_store 	p_hit[27] 	0.25890909090909
scalar tree_5_3_u10_r1_network.node[27].content_store 	hits[27] 	3916
scalar tree_5_3_u10_r1_network.node[27].content_store 	misses[27] 	11209
scalar tree_5_3_u10_r1_network.node[27].content_store 	decision_yes[27] 	42
scalar tree_5_3_u10_r1_network.node[27].content_store 	decision_no[27] 	11168
scalar tree_5_3_u10_r1_network.node[27].content_store 	decision_ratio[27] 	0.0037466547725245
scalar tree_5_3_u10_r1_network.node[28].core_layer 	interests[28] 	43857
scalar tree_5_3_u10_r1_network.node[28].core_layer 	data[28] 	39893
scalar tree_5_3_u10_r1_network.node[28].content_store 	p_hit[28] 	0.090339056479011
scalar tree_5_3_u10_r1_network.node[28].content_store 	hits[28] 	3962
scalar tree_5_3_u10_r1_network.node[28].content_store 	misses[28] 	39895
scalar tree_5_3_u10_r1_network.node[28].content_store 	decision_yes[28] 	42
scalar tree_5_3_u10_r1_network.node[28].content_store 	decision_no[28] 	39851
scalar tree_5_3_u10_r1_network.node[28].content_store 	decision_ratio[28] 	0.0010528162835585
scalar tree_5_3_u10_r1_network.node[29].core_layer 	interests[29] 	29309
scalar tree_5_3_u10_r1_network.node[29].core_layer 	data[29] 	25322
scalar tree_5_3_u10_r1_network.node[29].content_store 	p_hit[29] 	0.1359991811389
scalar tree_5_3_u10_r1_network.node[29].content_store 	hits[29] 	3986
scalar tree_5_3_u10_r1_network.node[29].content_store 	misses[29] 	25323
scalar tree_5_3_u10_r1_network.node[29].content_store 	decision_yes[29] 	26
scalar tree_5_3_u10_r1_network.node[29].content_store 	decision_no[29] 	25296
scalar tree_5_3_u10_r1_network.node[29].content_store 	decision_ratio[29] 	0.0010267751362452
scalar tree_5_3_u10_r1_network.node[30].core_layer 	interests[30] 	11959
scalar tree_5_3_u10_r1_network.node[30].core_layer 	data[30] 	8965
scalar tree_5_3_u10_r1_network.node[30].content_store 	p_hit[30] 	0.25035538088469
scalar tree_5_3_u10_r1_network.node[30].content_store 	hits[30] 	2994
scalar tree_5_3_u10_r1_network.node[30].content_store 	misses[30] 	8965
scalar tree_5_3_u10_r1_network.node[30].content_store 	decision_yes[30] 	21
scalar tree_5_3_u10_r1_network.node[30].content_store 	decision_no[30] 	8944
scalar tree_5_3_u10_r1_network.node[30].content_store 	decision_ratio[30] 	0.0023424428332404
scalar tree_5_3_u10_r1_network.node[31].core_layer 	interests[31] 	41489
scalar tree_5_3_u10_r1_network.node[31].core_layer 	data[31] 	38306
scalar tree_5_3_u10_r1_network.node[31].content_store 	p_hit[31] 	0.076719130371906
scalar tree_5_3_u10_r1_network.node[31].content_store 	hits[31] 	3183
scalar tree_5_3_u10_r1_network.node[31].content_store 	misses[31] 	38306
scalar tree_5_3_u10_r1_network.node[31].content_store 	decision_yes[31] 	30
scalar tree_5_3_u10_r1_network.node[31].content_store 	decision_no[31] 	38276
scalar tree_5_3_u10_r1_network.node[31].content_store 	decision_ratio[31] 	0.00078316712786509
scalar tree_5_3_u10_r1_network.node[32].core_layer 	interests[32] 	29548
scalar tree_5_3_u10_r1_network.node[32].core_layer 	data[32] 	25568
scalar tree_5_3_u10_r1_network.node[32].content_store 	p_hit[32] 	0.13469608772167
scalar tree_5_3_u10_r1_network.node[32].content_store 	hits[32] 	3980
scalar tree_5_3_u10_r1_network.node[32].content_store 	misses[32] 	25568
scalar tree_5_3_u10_r1_network.node[32].content_store 	decision_yes[32] 	30
scalar tree_5_3_u10_r1_network.node[32].content_store 	decision_no[32] 	25538
scalar tree_5_3_u10_r1_network.node[32].content_store 	decision_ratio[32] 	0.0011733416770964
scalar tree_5_3_u10_r1_network.node[33].core_layer 	interests[33] 	13691
scalar tree_5_3_u10_r1_network.node[33].core_layer 	data[33] 	10270
scalar tree_5_3_u10_r1_network.node[33].content_store 	p_hit[33] 	0.24987217880359
scalar tree_5_3_u10_r1_network.node[33].content_store 	hits[33] 	3421
scalar tree_5_3_u10_r1_network.node[33].content_store 	misses[33] 	10270
scalar tree_5_3_u10_r1_network.node[33].content_store 	decision_yes[33] 	32
scalar tree_5_3_u10_r1_network.node[33].content_store 	decision_no[33] 	10238
scalar tree_5_3_u10_r1_network.node[33].content_store 	decision_ratio[33] 	0.0031158714703019
scalar tree_5_3_u10_r1_network.node[34].core_layer 	interests[34] 	43787
scalar tree_5_3_u10_r1_network.node[34].core_layer 	data[34] 	39731
scalar tree_5_3_u10_r1_network.node[34].content_store 	p_hit[34] 	0.092630232717473
scalar tree_5_3_u10_r1_network.node[34].content_store 	hits[34] 	4056
scalar tree_5_3_u10_r1_network.node[34].content_store 	misses[34] 	39731
scalar tree_5_3_u10_r1_network.node[34].content_store 	decision_yes[34] 	38
scalar tree_5_3_u10_r1_network.node[34].content_store 	decision_no[34] 	39693
scalar tree_5_3_u10_r1_network.node[34].content_store 	decision_ratio[34] 	0.00095643200523521
scalar tree_5_3_u10_r1_network.node[35].core_layer 	interests[35] 	27239
scalar tree_5_3_u10_r1_network.node[35].core_layer 	data[35] 	24014
scalar tree_5_3_u10_r1_network.node[35].content_store 	p_hit[35] 	0.11839641690224
scalar tree_5_3_u10_r1_network.node[35].content_store 	hits[35] 	3225
scalar tree_5_3_u10_r1_network.node[35].content_store 	misses[35] 	24014
scalar tree_5_3_u10_r1_network.node[35].content_store 	decision_yes[35] 	23
scalar tree_5_3_u10_r1_network.node[35].content_store 	decision_no[35] 	23991
scalar tree_5_3_u10_r1_network.node[35].content_store 	decision_ratio[35] 	0.00095777463146498
scalar tree_5_3_u10_r1_network.node[36].core_layer 	interests[36] 	13893
scalar tree_5_3_u10_r1_network.node[36].core_layer 	data[36] 	10442
scalar tree_5_3_u10_r1_network.node[36].content_store 	p_hit[36] 	0.24847045274599
scalar tree_5_3_u10_r1_network.node[36].content_store 	hits[36] 	3452
scalar tree_5_3_u10_r1_network.node[36].content_store 	misses[36] 	10441
scalar tree_5_3_u10_r1_network.node[36].content_store 	decision_yes[36] 	27
scalar tree_5_3_u10_r1_network.node[36].content_store 	decision_no[36] 	10415
scalar tree_5_3_u10_r1_network.node[36].content_store 	decision_ratio[36] 	0.0025857115495116
scalar tree_5_3_u10_r1_network.node[37].core_layer 	interests[37] 	42960
scalar tree_5_3_u10_r1_network.node[37].core_layer 	data[37] 	39146
scalar tree_5_3_u10_r1_network.node[37].content_store 	p_hit[37] 	0.088756983240223
scalar tree_5_3_u10_r1_network.node[37].content_store 	hits[37] 	3813
scalar tree_5_3_u10_r1_network.node[37].content_store 	misses[37] 	39147
scalar tree_5_3_u10_r1_network.node[37].content_store 	decision_yes[37] 	29
scalar tree_5_3_u10_r1_network.node[37].content_store 	decision_no[37] 	39117
scalar tree_5_3_u10_r1_network.node[37].content_store 	decision_ratio[37] 	0.00074081643079753
scalar tree_5_3_u10_r1_network.node[38].core_layer 	interests[38] 	28989
scalar tree_5_3_u10_r1_network.node[38].core_layer 	data[38] 	25457
scalar tree_5_3_u10_r1_network.node[38].content_store 	p_hit[38] 	0.12183931836214
scalar tree_5_3_u10_r1_network.node[38].content_store 	hits[38] 	3532
scalar tree_5_3_u10_r1_network.node[38].content_store 	misses[38] 	25457
scalar tree_5_3_u10_r1_network.node[38].content_store 	decision_yes[38] 	28
scalar tree_5_3_u10_r1_network.node[38].content_store 	decision_no[38] 	25429
scalar tree_5_3_u10_r1_network.node[38].content_store 	decision_ratio[38] 	0.0010998939387988
scalar tree_5_3_u10_r1_network.node[39].core_layer 	interests[39] 	11629
scalar tree_5_3_u10_r1_network.node[39].core_layer 	data[39] 	9060
scalar tree_5_3_u10_r1_network.node[39].content_store 	p_hit[39] 	0.22091323415599
scalar tree_5_3_u10_r1_network.node[39].content_store 	hits[39] 	2569
scalar tree_5_3_u10_r1_network.node[39].content_store 	misses[39] 	9060
scalar tree_5_3_u10_r1_network.node[39].content_store 	decision_yes[39] 	18
scalar tree_5_3_u10_r1_network.node[39].content_store 	decision_no[39] 	9042
scalar tree_5_3_u10_r1_network.node[39].content_store 	decision_ratio[39] 	0.0019867549668874
scalar tree_5_3_u10_r1_network.node[40].core_layer 	interests[40] 	12455
scalar tree_5_3_u10_r1_network.node[40].core_layer 	data[40] 	8757
scalar tree_5_3_u10_r1_network.node[40].content_store 	p_hit[40] 	0.29690887193898
scalar tree_5_3_u10_r1_network.node[40].content_store 	hits[40] 	3698
scalar tree_5_3_u10_r1_network.node[40].content_store 	misses[40] 	8757
scalar tree_5_3_u10_r1_network.node[40].content_store 	decision_yes[40] 	12
scalar tree_5_3_u10_r1_network.node[40].content_store 	decision_no[40] 	8745
scalar tree_5_3_u10_r1_network.node[40].content_store 	decision_ratio[40] 	0.0013703323055841
scalar tree_5_3_u10_r1_network.node[41].core_layer 	interests[41] 	12628
scalar tree_5_3_u10_r1_network.node[41].core_layer 	data[41] 	8571
scalar tree_5_3_u10_r1_network.node[41].content_store 	p_hit[41] 	0.32127019322141
scalar tree_5_3_u10_r1_network.node[41].content_store 	hits[41] 	4057
scalar tree_5_3_u10_r1_network.node[41].content_store 	misses[41] 	8571
scalar tree_5_3_u10_r1_network.node[41].content_store 	decision_yes[41] 	16
scalar tree_5_3_u10_r1_network.node[41].content_store 	decision_no[41] 	8555
scalar tree_5_3_u10_r1_network.node[41].content_store 	decision_ratio[41] 	0.0018667600046669
scalar tree_5_3_u10_r1_network.node[42].core_layer 	interests[42] 	12832
scalar tree_5_3_u10_r1_network.node[42].core_layer 	data[42] 	8948
scalar tree_5_3_u10_r1_network.node[42].content_store 	p_hit[42] 	0.30268079800499
scalar tree_5_3_u10_r1_network.node[42].content_store 	hits[42] 	3884
scalar tree_5_3_u10_r1_network.node[42].content_store 	misses[42] 	8948
scalar tree_5_3_u10_r1_network.node[42].content_store 	decision_yes[42] 	15
scalar tree_5_3_u10_r1_network.node[42].content_store 	decision_no[42] 	8933
scalar tree_5_3_u10_r1_network.node[42].content_store 	decision_ratio[42] 	0.0016763522574877
scalar tree_5_3_u10_r1_network.node[43].core_layer 	interests[43] 	12988
scalar tree_5_3_u10_r1_network.node[43].core_layer 	data[43] 	8887
scalar tree_5_3_u10_r1_network.node[43].content_store 	p_hit[43] 	0.31575300277179
scalar tree_5_3_u10_r1_network.node[43].content_store 	hits[43] 	4101
scalar tree_5_3_u10_r1_network.node[43].content_store 	misses[43] 	8887
scalar tree_5_3_u10_r1_network.node[43].content_store 	decision_yes[43] 	22
scalar tree_5_3_u10_r1_network.node[43].content_store 	decision_no[43] 	8865
scalar tree_5_3_u10_r1_network.node[43].content_store 	decision_ratio[43] 	0.0024755260492855
scalar tree_5_3_u10_r1_network.node[44].core_layer 	interests[44] 	12370
scalar tree_5_3_u10_r1_network.node[44].core_layer 	data[44] 	8736
scalar tree_5_3_u10_r1_network.node[44].content_store 	p_hit[44] 	0.29377526273242
scalar tree_5_3_u10_r1_network.node[44].content_store 	hits[44] 	3634
scalar tree_5_3_u10_r1_network.node[44].content_store 	misses[44] 	8736
scalar tree_5_3_u10_r1_network.node[44].content_store 	decision_yes[44] 	17
scalar tree_5_3_u10_r1_network.node[44].content_store 	decision_no[44] 	8719
scalar tree_5_3_u10_r1_network.node[44].content_store 	decision_ratio[44] 	0.0019459706959707
scalar tree_5_3_u10_r1_network.node[45].core_layer 	interests[45] 	12610
scalar tree_5_3_u10_r1_network.node[45].core_layer 	data[45] 	8692
scalar tree_5_3_u10_r1_network.node[45].content_store 	p_hit[45] 	0.3107057890563
scalar tree_5_3_u10_r1_network.node[45].content_store 	hits[45] 	3918
scalar tree_5_3_u10_r1_network.node[45].content_store 	misses[45] 	8692
scalar tree_5_3_u10_r1_network.node[45].content_store 	decision_yes[45] 	16
scalar tree_5_3_u10_r1_network.node[45].content_store 	decision_no[45] 	8676
scalar tree_5_3_u10_r1_network.node[45].content_store 	decision_ratio[45] 	0.0018407731247124
scalar tree_5_3_u10_r1_network.node[46].core_layer 	interests[46] 	12763
scalar tree_5_3_u10_r1_network.node[46].core_layer 	data[46] 	8707
scalar tree_5_3_u10_r1_network.node[46].content_store 	p_hit[46] 	0.31779362218914
scalar tree_5_3_u10_r1_network.node[46].content_store 	hits[46] 	4056
scalar tree_5_3_u10_r1_network.node[46].content_store 	misses[46] 	8707
scalar tree_5_3_u10_r1_network.node[46].content_store 	decision_yes[46] 	11
scalar tree_5_3_u10_r1_network.node[46].content_store 	decision_no[46] 	8696
scalar tree_5_3_u10_r1_network.node[46].content_store 	decision_ratio[46] 	0.0012633513265189
scalar tree_5_3_u10_r1_network.node[47].core_layer 	interests[47] 	12582
scalar tree_5_3_u10_r1_network.node[47].core_layer 	data[47] 	8646
scalar tree_5_3_u10_r1_network.node[47].content_store 	p_hit[47] 	0.31282784930854
scalar tree_5_3_u10_r1_network.node[47].content_store 	hits[47] 	3936
scalar tree_5_3_u10_r1_network.node[47].content_store 	misses[47] 	8646
scalar tree_5_3_u10_r1_network.node[47].content_store 	decision_yes[47] 	20
scalar tree_5_3_u10_r1_network.node[47].content_store 	decision_no[47] 	8626
scalar tree_5_3_u10_r1_network.node[47].content_store 	decision_ratio[47] 	0.0023132084200786
scalar tree_5_3_u10_r1_network.node[48].core_layer 	interests[48] 	12388
scalar tree_5_3_u10_r1_network.node[48].core_layer 	data[48] 	8846
scalar tree_5_3_u10_r1_network.node[48].content_store 	p_hit[48] 	0.28592185986438
scalar tree_5_3_u10_r1_network.node[48].content_store 	hits[48] 	3542
scalar tree_5_3_u10_r1_network.node[48].content_store 	misses[48] 	8846
scalar tree_5_3_u10_r1_network.node[48].content_store 	decision_yes[48] 	9
scalar tree_5_3_u10_r1_network.node[48].content_store 	decision_no[48] 	8837
scalar tree_5_3_u10_r1_network.node[48].content_store 	decision_ratio[48] 	0.0010174089984174
scalar tree_5_3_u10_r1_network.node[49].core_layer 	interests[49] 	12496
scalar tree_5_3_u10_r1_network.node[49].core_layer 	data[49] 	8830
scalar tree_5_3_u10_r1_network.node[49].content_store 	p_hit[49] 	0.29337387964149
scalar tree_5_3_u10_r1_network.node[49].content_store 	hits[49] 	3666
scalar tree_5_3_u10_r1_network.node[49].content_store 	misses[49] 	8830
scalar tree_5_3_u10_r1_network.node[49].content_store 	decision_yes[49] 	15
scalar tree_5_3_u10_r1_network.node[49].content_store 	decision_no[49] 	8815
scalar tree_5_3_u10_r1_network.node[49].content_store 	decision_ratio[49] 	0.0016987542468856
scalar tree_5_3_u10_r1_network.node[50].core_layer 	interests[50] 	12684
scalar tree_5_3_u10_r1_network.node[50].core_layer 	data[50] 	8705
scalar tree_5_3_u10_r1_network.node[50].content_store 	p_hit[50] 	0.31378114159571
scalar tree_5_3_u10_r1_network.node[50].content_store 	hits[50] 	3980
scalar tree_5_3_u10_r1_network.node[50].content_store 	misses[50] 	8704
scalar tree_5_3_u10_r1_network.node[50].content_store 	decision_yes[50] 	12
scalar tree_5_3_u10_r1_network.node[50].content_store 	decision_no[50] 	8693
scalar tree_5_3_u10_r1_network.node[50].content_store 	decision_ratio[50] 	0.00137851809305
scalar tree_5_3_u10_r1_network.node[51].core_layer 	interests[51] 	13094
scalar tree_5_3_u10_r1_network.node[51].core_layer 	data[51] 	8955
scalar tree_5_3_u10_r1_network.node[51].content_store 	p_hit[51] 	0.31602260577364
scalar tree_5_3_u10_r1_network.node[51].content_store 	hits[51] 	4138
scalar tree_5_3_u10_r1_network.node[51].content_store 	misses[51] 	8956
scalar tree_5_3_u10_r1_network.node[51].content_store 	decision_yes[51] 	17
scalar tree_5_3_u10_r1_network.node[51].content_store 	decision_no[51] 	8938
scalar tree_5_3_u10_r1_network.node[51].content_store 	decision_ratio[51] 	0.0018983807928532
scalar tree_5_3_u10_r1_network.node[52].core_layer 	interests[52] 	13123
scalar tree_5_3_u10_r1_network.node[52].core_layer 	data[52] 	8890
scalar tree_5_3_u10_r1_network.node[52].content_store 	p_hit[52] 	0.32256343823821
scalar tree_5_3_u10_r1_network.node[52].content_store 	hits[52] 	4233
scalar tree_5_3_u10_r1_network.node[52].content_store 	misses[52] 	8890
scalar tree_5_3_u10_r1_network.node[52].content_store 	decision_yes[52] 	13
scalar tree_5_3_u10_r1_network.node[52].content_store 	decision_no[52] 	8877
scalar tree_5_3_u10_r1_network.node[52].content_store 	decision_ratio[52] 	0.0014623172103487
scalar tree_5_3_u10_r1_network.node[53].core_layer 	interests[53] 	12421
scalar tree_5_3_u10_r1_network.node[53].core_layer 	data[53] 	8753
scalar tree_5_3_u10_r1_network.node[53].content_store 	p_hit[53] 	0.2953063360438
scalar tree_5_3_u10_r1_network.node[53].content_store 	hits[53] 	3668
scalar tree_5_3_u10_r1_network.node[53].content_store 	misses[53] 	8753
scalar tree_5_3_u10_r1_network.node[53].content_store 	decision_yes[53] 	8
scalar tree_5_3_u10_r1_network.node[53].content_store 	decision_no[53] 	8745
scalar tree_5_3_u10_r1_network.node[53].content_store 	decision_ratio[53] 	0.00091397235233634
scalar tree_5_3_u10_r1_network.node[54].core_layer 	interests[54] 	12855
scalar tree_5_3_u10_r1_network.node[54].core_layer 	data[54] 	8777
scalar tree_5_3_u10_r1_network.node[54].content_store 	p_hit[54] 	0.3172306495527
scalar tree_5_3_u10_r1_network.node[54].content_store 	hits[54] 	4078
scalar tree_5_3_u10_r1_network.node[54].content_store 	misses[54] 	8777
scalar tree_5_3_u10_r1_network.node[54].content_store 	decision_yes[54] 	19
scalar tree_5_3_u10_r1_network.node[54].content_store 	decision_no[54] 	8758
scalar tree_5_3_u10_r1_network.node[54].content_store 	decision_ratio[54] 	0.0021647487752079
scalar tree_5_3_u10_r1_network.node[55].core_layer 	interests[55] 	12685
scalar tree_5_3_u10_r1_network.node[55].core_layer 	data[55] 	8804
scalar tree_5_3_u10_r1_network.node[55].content_store 	p_hit[55] 	0.30595191170674
scalar tree_5_3_u10_r1_network.node[55].content_store 	hits[55] 	3881
scalar tree_5_3_u10_r1_network.node[55].content_store 	misses[55] 	8804
scalar tree_5_3_u10_r1_network.node[55].content_store 	decision_yes[55] 	19
scalar tree_5_3_u10_r1_network.node[55].content_store 	decision_no[55] 	8785
scalar tree_5_3_u10_r1_network.node[55].content_store 	decision_ratio[55] 	0.0021581099500227
scalar tree_5_3_u10_r1_network.node[56].core_layer 	interests[56] 	12840
scalar tree_5_3_u10_r1_network.node[56].core_layer 	data[56] 	8855
scalar tree_5_3_u10_r1_network.node[56].content_store 	p_hit[56] 	0.31035825545171
scalar tree_5_3_u10_r1_network.node[56].content_store 	hits[56] 	3985
scalar tree_5_3_u10_r1_network.node[56].content_store 	misses[56] 	8855
scalar tree_5_3_u10_r1_network.node[56].content_store 	decision_yes[56] 	21
scalar tree_5_3_u10_r1_network.node[56].content_store 	decision_no[56] 	8834
scalar tree_5_3_u10_r1_network.node[56].content_store 	decision_ratio[56] 	0.0023715415019763
scalar tree_5_3_u10_r1_network.node[57].core_layer 	interests[57] 	12481
scalar tree_5_3_u10_r1_network.node[57].core_layer 	data[57] 	8790
scalar tree_5_3_u10_r1_network.node[57].content_store 	p_hit[57] 	0.29572950885346
scalar tree_5_3_u10_r1_network.node[57].content_store 	hits[57] 	3691
scalar tree_5_3_u10_r1_network.node[57].content_store 	misses[57] 	8790
scalar tree_5_3_u10_r1_network.node[57].content_store 	decision_yes[57] 	15
scalar tree_5_3_u10_r1_network.node[57].content_store 	decision_no[57] 	8775
scalar tree_5_3_u10_r1_network.node[57].content_store 	decision_ratio[57] 	0.0017064846416382
scalar tree_5_3_u10_r1_network.node[58].core_layer 	interests[58] 	12314
scalar tree_5_3_u10_r1_network.node[58].core_layer 	data[58] 	8732
scalar tree_5_3_u10_r1_network.node[58].content_store 	p_hit[58] 	0.29088841968491
scalar tree_5_3_u10_r1_network.node[58].content_store 	hits[58] 	3582
scalar tree_5_3_u10_r1_network.node[58].content_store 	misses[58] 	8732
scalar tree_5_3_u10_r1_network.node[58].content_store 	decision_yes[58] 	9
scalar tree_5_3_u10_r1_network.node[58].content_store 	decision_no[58] 	8723
scalar tree_5_3_u10_r1_network.node[58].content_store 	decision_ratio[58] 	0.0010306917086578
scalar tree_5_3_u10_r1_network.node[59].core_layer 	interests[59] 	12773
scalar tree_5_3_u10_r1_network.node[59].core_layer 	data[59] 	8928
scalar tree_5_3_u10_r1_network.node[59].content_store 	p_hit[59] 	0.30102560087685
scalar tree_5_3_u10_r1_network.node[59].content_store 	hits[59] 	3845
scalar tree_5_3_u10_r1_network.node[59].content_store 	misses[59] 	8928
scalar tree_5_3_u10_r1_network.node[59].content_store 	decision_yes[59] 	12
scalar tree_5_3_u10_r1_network.node[59].content_store 	decision_no[59] 	8916
scalar tree_5_3_u10_r1_network.node[59].content_store 	decision_ratio[59] 	0.0013440860215054
scalar tree_5_3_u10_r1_network.node[60].core_layer 	interests[60] 	12495
scalar tree_5_3_u10_r1_network.node[60].core_layer 	data[60] 	8769
scalar tree_5_3_u10_r1_network.node[60].content_store 	p_hit[60] 	0.29819927971188
scalar tree_5_3_u10_r1_network.node[60].content_store 	hits[60] 	3726
scalar tree_5_3_u10_r1_network.node[60].content_store 	misses[60] 	8769
scalar tree_5_3_u10_r1_network.node[60].content_store 	decision_yes[60] 	19
scalar tree_5_3_u10_r1_network.node[60].content_store 	decision_no[60] 	8750
scalar tree_5_3_u10_r1_network.node[60].content_store 	decision_ratio[60] 	0.002166723685711
scalar tree_5_3_u10_r1_network.node[61].core_layer 	interests[61] 	12739
scalar tree_5_3_u10_r1_network.node[61].core_layer 	data[61] 	8738
scalar tree_5_3_u10_r1_network.node[61].content_store 	p_hit[61] 	0.31407488813879
scalar tree_5_3_u10_r1_network.node[61].content_store 	hits[61] 	4001
scalar tree_5_3_u10_r1_network.node[61].content_store 	misses[61] 	8738
scalar tree_5_3_u10_r1_network.node[61].content_store 	decision_yes[61] 	17
scalar tree_5_3_u10_r1_network.node[61].content_store 	decision_no[61] 	8721
scalar tree_5_3_u10_r1_network.node[61].content_store 	decision_ratio[61] 	0.0019455252918288
scalar tree_5_3_u10_r1_network.node[62].core_layer 	interests[62] 	12214
scalar tree_5_3_u10_r1_network.node[62].core_layer 	data[62] 	8585
scalar tree_5_3_u10_r1_network.node[62].content_store 	p_hit[62] 	0.2971180612412
scalar tree_5_3_u10_r1_network.node[62].content_store 	hits[62] 	3629
scalar tree_5_3_u10_r1_network.node[62].content_store 	misses[62] 	8585
scalar tree_5_3_u10_r1_network.node[62].content_store 	decision_yes[62] 	16
scalar tree_5_3_u10_r1_network.node[62].content_store 	decision_no[62] 	8569
scalar tree_5_3_u10_r1_network.node[62].content_store 	decision_ratio[62] 	0.001863715783343
scalar tree_5_3_u10_r1_network.node[63].core_layer 	interests[63] 	12918
scalar tree_5_3_u10_r1_network.node[63].core_layer 	data[63] 	8940
scalar tree_5_3_u10_r1_network.node[63].content_store 	p_hit[63] 	0.3078649945812
scalar tree_5_3_u10_r1_network.node[63].content_store 	hits[63] 	3977
scalar tree_5_3_u10_r1_network.node[63].content_store 	misses[63] 	8941
scalar tree_5_3_u10_r1_network.node[63].content_store 	decision_yes[63] 	12
scalar tree_5_3_u10_r1_network.node[63].content_store 	decision_no[63] 	8928
scalar tree_5_3_u10_r1_network.node[63].content_store 	decision_ratio[63] 	0.0013422818791946
scalar tree_5_3_u10_r1_network.node[64].core_layer 	interests[64] 	12402
scalar tree_5_3_u10_r1_network.node[64].core_layer 	data[64] 	8580
scalar tree_5_3_u10_r1_network.node[64].content_store 	p_hit[64] 	0.30817610062893
scalar tree_5_3_u10_r1_network.node[64].content_store 	hits[64] 	3822
scalar tree_5_3_u10_r1_network.node[64].content_store 	misses[64] 	8580
scalar tree_5_3_u10_r1_network.node[64].content_store 	decision_yes[64] 	22
scalar tree_5_3_u10_r1_network.node[64].content_store 	decision_no[64] 	8558
scalar tree_5_3_u10_r1_network.node[64].content_store 	decision_ratio[64] 	0.0025641025641026
scalar tree_5_3_u10_r1_network.node[65].core_layer 	interests[65] 	12484
scalar tree_5_3_u10_r1_network.node[65].core_layer 	data[65] 	8779
scalar tree_5_3_u10_r1_network.node[65].content_store 	p_hit[65] 	0.29669977571291
scalar tree_5_3_u10_r1_network.node[65].content_store 	hits[65] 	3704
scalar tree_5_3_u10_r1_network.node[65].content_store 	misses[65] 	8780
scalar tree_5_3_u10_r1_network.node[65].content_store 	decision_yes[65] 	12
scalar tree_5_3_u10_r1_network.node[65].content_store 	decision_no[65] 	8767
scalar tree_5_3_u10_r1_network.node[65].content_store 	decision_ratio[65] 	0.0013668982799863
scalar tree_5_3_u10_r1_network.node[66].core_layer 	interests[66] 	12310
scalar tree_5_3_u10_r1_network.node[66].core_layer 	data[66] 	8768
scalar tree_5_3_u10_r1_network.node[66].content_store 	p_hit[66] 	0.28773354995938
scalar tree_5_3_u10_r1_network.node[66].content_store 	hits[66] 	3542
scalar tree_5_3_u10_r1_network.node[66].content_store 	misses[66] 	8768
scalar tree_5_3_u10_r1_network.node[66].content_store 	decision_yes[66] 	5
scalar tree_5_3_u10_r1_network.node[66].content_store 	decision_no[66] 	8763
scalar tree_5_3_u10_r1_network.node[66].content_store 	decision_ratio[66] 	0.00057025547445255
scalar tree_5_3_u10_r1_network.node[67].core_layer 	interests[67] 	12172
scalar tree_5_3_u10_r1_network.node[67].core_layer 	data[67] 	8642
scalar tree_5_3_u10_r1_network.node[67].content_store 	p_hit[67] 	0.29000985869208
scalar tree_5_3_u10_r1_network.node[67].content_store 	hits[67] 	3530
scalar tree_5_3_u10_r1_network.node[67].content_store 	misses[67] 	8642
scalar tree_5_3_u10_r1_network.node[67].content_store 	decision_yes[67] 	19
scalar tree_5_3_u10_r1_network.node[67].content_store 	decision_no[67] 	8623
scalar tree_5_3_u10_r1_network.node[67].content_store 	decision_ratio[67] 	0.0021985651469567
scalar tree_5_3_u10_r1_network.node[68].core_layer 	interests[68] 	12888
scalar tree_5_3_u10_r1_network.node[68].core_layer 	data[68] 	8880
scalar tree_5_3_u10_r1_network.node[68].content_store 	p_hit[68] 	0.31098696461825
scalar tree_5_3_u10_r1_network.node[68].content_store 	hits[68] 	4008
scalar tree_5_3_u10_r1_network.node[68].content_store 	misses[68] 	8880
scalar tree_5_3_u10_r1_network.node[68].content_store 	decision_yes[68] 	9
scalar tree_5_3_u10_r1_network.node[68].content_store 	decision_no[68] 	8871
scalar tree_5_3_u10_r1_network.node[68].content_store 	decision_ratio[68] 	0.0010135135135135
scalar tree_5_3_u10_r1_network.node[69].core_layer 	interests[69] 	12731
scalar tree_5_3_u10_r1_network.node[69].core_layer 	data[69] 	8840
scalar tree_5_3_u10_r1_network.node[69].content_store 	p_hit[69] 	0.30555337365486
scalar tree_5_3_u10_r1_network.node[69].content_store 	hits[69] 	3890
scalar tree_5_3_u10_r1_network.node[69].content_store 	misses[69] 	8841
scalar tree_5_3_u10_r1_network.node[69].content_store 	decision_yes[69] 	12
scalar tree_5_3_u10_r1_network.node[69].content_store 	decision_no[69] 	8828
scalar tree_5_3_u10_r1_network.node[69].content_store 	decision_ratio[69] 	0.0013574660633484
scalar tree_5_3_u10_r1_network.node[70].core_layer 	interests[70] 	12866
scalar tree_5_3_u10_r1_network.node[70].core_layer 	data[70] 	8910
scalar tree_5_3_u10_r1_network.node[70].content_store 	p_hit[70] 	0.30755479558526
scalar tree_5_3_u10_r1_network.node[70].content_store 	hits[70] 	3957
scalar tree_5_3_u10_r1_network.node[70].content_store 	misses[70] 	8909
scalar tree_5_3_u10_r1_network.node[70].content_store 	decision_yes[70] 	7
scalar tree_5_3_u10_r1_network.node[70].content_store 	decision_no[70] 	8903
scalar tree_5_3_u10_r1_network.node[70].content_store 	decision_ratio[70] 	0.00078563411896745
scalar tree_5_3_u10_r1_network.node[71].core_layer 	interests[71] 	12585
scalar tree_5_3_u10_r1_network.node[71].core_layer 	data[71] 	8800
scalar tree_5_3_u10_r1_network.node[71].content_store 	p_hit[71] 	0.30075486690505
scalar tree_5_3_u10_r1_network.node[71].content_store 	hits[71] 	3785
scalar tree_5_3_u10_r1_network.node[71].content_store 	misses[71] 	8800
scalar tree_5_3_u10_r1_network.node[71].content_store 	decision_yes[71] 	10
scalar tree_5_3_u10_r1_network.node[71].content_store 	decision_no[71] 	8790
scalar tree_5_3_u10_r1_network.node[71].content_store 	decision_ratio[71] 	0.0011363636363636
scalar tree_5_3_u10_r1_network.node[72].core_layer 	interests[72] 	12659
scalar tree_5_3_u10_r1_network.node[72].core_layer 	data[72] 	8749
scalar tree_5_3_u10_r1_network.node[72].content_store 	p_hit[72] 	0.30887115885931
scalar tree_5_3_u10_r1_network.node[72].content_store 	hits[72] 	3910
scalar tree_5_3_u10_r1_network.node[72].content_store 	misses[72] 	8749
scalar tree_5_3_u10_r1_network.node[72].content_store 	decision_yes[72] 	10
scalar tree_5_3_u10_r1_network.node[72].content_store 	decision_no[72] 	8739
scalar tree_5_3_u10_r1_network.node[72].content_store 	decision_ratio[72] 	0.0011429877700309
scalar tree_5_3_u10_r1_network.node[73].core_layer 	interests[73] 	12794
scalar tree_5_3_u10_r1_network.node[73].core_layer 	data[73] 	9002
scalar tree_5_3_u10_r1_network.node[73].content_store 	p_hit[73] 	0.29638893231202
scalar tree_5_3_u10_r1_network.node[73].content_store 	hits[73] 	3792
scalar tree_5_3_u10_r1_network.node[73].content_store 	misses[73] 	9002
scalar tree_5_3_u10_r1_network.node[73].content_store 	decision_yes[73] 	24
scalar tree_5_3_u10_r1_network.node[73].content_store 	decision_no[73] 	8978
scalar tree_5_3_u10_r1_network.node[73].content_store 	decision_ratio[73] 	0.0026660742057321
scalar tree_5_3_u10_r1_network.node[74].core_layer 	interests[74] 	12912
scalar tree_5_3_u10_r1_network.node[74].core_layer 	data[74] 	8862
scalar tree_5_3_u10_r1_network.node[74].content_store 	p_hit[74] 	0.31366171003717
scalar tree_5_3_u10_r1_network.node[74].content_store 	hits[74] 	4050
scalar tree_5_3_u10_r1_network.node[74].content_store 	misses[74] 	8862
scalar tree_5_3_u10_r1_network.node[74].content_store 	decision_yes[74] 	14
scalar tree_5_3_u10_r1_network.node[74].content_store 	decision_no[74] 	8848
scalar tree_5_3_u10_r1_network.node[74].content_store 	decision_ratio[74] 	0.0015797788309637
scalar tree_5_3_u10_r1_network.node[75].core_layer 	interests[75] 	12237
scalar tree_5_3_u10_r1_network.node[75].core_layer 	data[75] 	8616
scalar tree_5_3_u10_r1_network.node[75].content_store 	p_hit[75] 	0.29590585927924
scalar tree_5_3_u10_r1_network.node[75].content_store 	hits[75] 	3621
scalar tree_5_3_u10_r1_network.node[75].content_store 	misses[75] 	8616
scalar tree_5_3_u10_r1_network.node[75].content_store 	decision_yes[75] 	13
scalar tree_5_3_u10_r1_network.node[75].content_store 	decision_no[75] 	8603
scalar tree_5_3_u10_r1_network.node[75].content_store 	decision_ratio[75] 	0.0015088207985144
scalar tree_5_3_u10_r1_network.node[76].core_layer 	interests[76] 	12583
scalar tree_5_3_u10_r1_network.node[76].core_layer 	data[76] 	8885
scalar tree_5_3_u10_r1_network.node[76].content_store 	p_hit[76] 	0.29388857982993
scalar tree_5_3_u10_r1_network.node[76].content_store 	hits[76] 	3698
scalar tree_5_3_u10_r1_network.node[76].content_store 	misses[76] 	8885
scalar tree_5_3_u10_r1_network.node[76].content_store 	decision_yes[76] 	22
scalar tree_5_3_u10_r1_network.node[76].content_store 	decision_no[76] 	8863
scalar tree_5_3_u10_r1_network.node[76].content_store 	decision_ratio[76] 	0.0024760832864378
scalar tree_5_3_u10_r1_network.node[77].core_layer 	interests[77] 	12821
scalar tree_5_3_u10_r1_network.node[77].core_layer 	data[77] 	8959
scalar tree_5_3_u10_r1_network.node[77].content_store 	p_hit[77] 	0.30122455346697
scalar tree_5_3_u10_r1_network.node[77].content_store 	hits[77] 	3862
scalar tree_5_3_u10_r1_network.node[77].content_store 	misses[77] 	8959
scalar tree_5_3_u10_r1_network.node[77].content_store 	decision_yes[77] 	16
scalar tree_5_3_u10_r1_network.node[77].content_store 	decision_no[77] 	8943
scalar tree_5_3_u10_r1_network.node[77].content_store 	decision_ratio[77] 	0.0017859136064293
scalar tree_5_3_u10_r1_network.node[78].core_layer 	interests[78] 	12541
scalar tree_5_3_u10_r1_network.node[78].core_layer 	data[78] 	8682
scalar tree_5_3_u10_r1_network.node[78].content_store 	p_hit[78] 	0.30771070887489
scalar tree_5_3_u10_r1_network.node[78].content_store 	hits[78] 	3859
scalar tree_5_3_u10_r1_network.node[78].content_store 	misses[78] 	8682
scalar tree_5_3_u10_r1_network.node[78].content_store 	decision_yes[78] 	16
scalar tree_5_3_u10_r1_network.node[78].content_store 	decision_no[78] 	8666
scalar tree_5_3_u10_r1_network.node[78].content_store 	decision_ratio[78] 	0.0018428933425478
scalar tree_5_3_u10_r1_network.node[79].core_layer 	interests[79] 	12613
scalar tree_5_3_u10_r1_network.node[79].core_layer 	data[79] 	8720
scalar tree_5_3_u10_r1_network.node[79].content_store 	p_hit[79] 	0.30864980575597
scalar tree_5_3_u10_r1_network.node[79].content_store 	hits[79] 	3893
scalar tree_5_3_u10_r1_network.node[79].content_store 	misses[79] 	8720
scalar tree_5_3_u10_r1_network.node[79].content_store 	decision_yes[79] 	14
scalar tree_5_3_u10_r1_network.node[79].content_store 	decision_no[79] 	8706
scalar tree_5_3_u10_r1_network.node[79].content_store 	decision_ratio[79] 	0.001605504587156
scalar tree_5_3_u10_r1_network.node[80].core_layer 	interests[80] 	12334
scalar tree_5_3_u10_r1_network.node[80].core_layer 	data[80] 	8890
scalar tree_5_3_u10_r1_network.node[80].content_store 	p_hit[80] 	0.27922814982974
scalar tree_5_3_u10_r1_network.node[80].content_store 	hits[80] 	3444
scalar tree_5_3_u10_r1_network.node[80].content_store 	misses[80] 	8890
scalar tree_5_3_u10_r1_network.node[80].content_store 	decision_yes[80] 	8
scalar tree_5_3_u10_r1_network.node[80].content_store 	decision_no[80] 	8882
scalar tree_5_3_u10_r1_network.node[80].content_store 	decision_ratio[80] 	0.00089988751406074
scalar tree_5_3_u10_r1_network.node[81].core_layer 	interests[81] 	12626
scalar tree_5_3_u10_r1_network.node[81].core_layer 	data[81] 	8762
scalar tree_5_3_u10_r1_network.node[81].content_store 	p_hit[81] 	0.30603516553144
scalar tree_5_3_u10_r1_network.node[81].content_store 	hits[81] 	3864
scalar tree_5_3_u10_r1_network.node[81].content_store 	misses[81] 	8762
scalar tree_5_3_u10_r1_network.node[81].content_store 	decision_yes[81] 	18
scalar tree_5_3_u10_r1_network.node[81].content_store 	decision_no[81] 	8744
scalar tree_5_3_u10_r1_network.node[81].content_store 	decision_ratio[81] 	0.002054325496462
scalar tree_5_3_u10_r1_network.node[82].core_layer 	interests[82] 	12851
scalar tree_5_3_u10_r1_network.node[82].core_layer 	data[82] 	8817
scalar tree_5_3_u10_r1_network.node[82].content_store 	p_hit[82] 	0.31382771768734
scalar tree_5_3_u10_r1_network.node[82].content_store 	hits[82] 	4033
scalar tree_5_3_u10_r1_network.node[82].content_store 	misses[82] 	8818
scalar tree_5_3_u10_r1_network.node[82].content_store 	decision_yes[82] 	9
scalar tree_5_3_u10_r1_network.node[82].content_store 	decision_no[82] 	8808
scalar tree_5_3_u10_r1_network.node[82].content_store 	decision_ratio[82] 	0.0010207553589656
scalar tree_5_3_u10_r1_network.node[83].core_layer 	interests[83] 	12995
scalar tree_5_3_u10_r1_network.node[83].core_layer 	data[83] 	8983
scalar tree_5_3_u10_r1_network.node[83].content_store 	p_hit[83] 	0.30873412851097
scalar tree_5_3_u10_r1_network.node[83].content_store 	hits[83] 	4012
scalar tree_5_3_u10_r1_network.node[83].content_store 	misses[83] 	8983
scalar tree_5_3_u10_r1_network.node[83].content_store 	decision_yes[83] 	16
scalar tree_5_3_u10_r1_network.node[83].content_store 	decision_no[83] 	8967
scalar tree_5_3_u10_r1_network.node[83].content_store 	decision_ratio[83] 	0.0017811421574084
scalar tree_5_3_u10_r1_network.node[84].core_layer 	interests[84] 	12473
scalar tree_5_3_u10_r1_network.node[84].core_layer 	data[84] 	8859
scalar tree_5_3_u10_r1_network.node[84].content_store 	p_hit[84] 	0.2898260242123
scalar tree_5_3_u10_r1_network.node[84].content_store 	hits[84] 	3615
scalar tree_5_3_u10_r1_network.node[84].content_store 	misses[84] 	8858
scalar tree_5_3_u10_r1_network.node[84].content_store 	decision_yes[84] 	16
scalar tree_5_3_u10_r1_network.node[84].content_store 	decision_no[84] 	8843
scalar tree_5_3_u10_r1_network.node[84].content_store 	decision_ratio[84] 	0.0018060729201942
scalar tree_5_3_u10_r1_network.node[85].core_layer 	interests[85] 	12538
scalar tree_5_3_u10_r1_network.node[85].core_layer 	data[85] 	8750
scalar tree_5_3_u10_r1_network.node[85].content_store 	p_hit[85] 	0.30212155048652
scalar tree_5_3_u10_r1_network.node[85].content_store 	hits[85] 	3788
scalar tree_5_3_u10_r1_network.node[85].content_store 	misses[85] 	8750
scalar tree_5_3_u10_r1_network.node[85].content_store 	decision_yes[85] 	9
scalar tree_5_3_u10_r1_network.node[85].content_store 	decision_no[85] 	8741
scalar tree_5_3_u10_r1_network.node[85].content_store 	decision_ratio[85] 	0.0010285714285714
scalar tree_5_3_u10_r1_network.node[86].core_layer 	interests[86] 	12843
scalar tree_5_3_u10_r1_network.node[86].core_layer 	data[86] 	8829
scalar tree_5_3_u10_r1_network.node[86].content_store 	p_hit[86] 	0.312543798178
scalar tree_5_3_u10_r1_network.node[86].content_store 	hits[86] 	4014
scalar tree_5_3_u10_r1_network.node[86].content_store 	misses[86] 	8829
scalar tree_5_3_u10_r1_network.node[86].content_store 	decision_yes[86] 	14
scalar tree_5_3_u10_r1_network.node[86].content_store 	decision_no[86] 	8815
scalar tree_5_3_u10_r1_network.node[86].content_store 	decision_ratio[86] 	0.0015856835428701
scalar tree_5_3_u10_r1_network.node[87].core_layer 	interests[87] 	12880
scalar tree_5_3_u10_r1_network.node[87].core_layer 	data[87] 	8958
scalar tree_5_3_u10_r1_network.node[87].content_store 	p_hit[87] 	0.30450310559006
scalar tree_5_3_u10_r1_network.node[87].content_store 	hits[87] 	3922
scalar tree_5_3_u10_r1_network.node[87].content_store 	misses[87] 	8958
scalar tree_5_3_u10_r1_network.node[87].content_store 	decision_yes[87] 	16
scalar tree_5_3_u10_r1_network.node[87].content_store 	decision_no[87] 	8942
scalar tree_5_3_u10_r1_network.node[87].content_store 	decision_ratio[87] 	0.0017861129716455
scalar tree_5_3_u10_r1_network.node[88].core_layer 	interests[88] 	12628
scalar tree_5_3_u10_r1_network.node[88].core_layer 	data[88] 	8718
scalar tree_5_3_u10_r1_network.node[88].content_store 	p_hit[88] 	0.30962939499525
scalar tree_5_3_u10_r1_network.node[88].content_store 	hits[88] 	3910
scalar tree_5_3_u10_r1_network.node[88].content_store 	misses[88] 	8718
scalar tree_5_3_u10_r1_network.node[88].content_store 	decision_yes[88] 	18
scalar tree_5_3_u10_r1_network.node[88].content_store 	decision_no[88] 	8700
scalar tree_5_3_u10_r1_network.node[88].content_store 	decision_ratio[88] 	0.0020646937370957
scalar tree_5_3_u10_r1_network.node[89].core_layer 	interests[89] 	12488
scalar tree_5_3_u10_r1_network.node[89].core_layer 	data[89] 	8785
scalar tree_5_3_u10_r1_network.node[89].content_store 	p_hit[89] 	0.29652466367713
scalar tree_5_3_u10_r1_network.node[89].content_store 	hits[89] 	3703
scalar tree_5_3_u10_r1_network.node[89].content_store 	misses[89] 	8785
scalar tree_5_3_u10_r1_network.node[89].content_store 	decision_yes[89] 	13
scalar tree_5_3_u10_r1_network.node[89].content_store 	decision_no[89] 	8772
scalar tree_5_3_u10_r1_network.node[89].content_store 	decision_ratio[89] 	0.0014797951052931
scalar tree_5_3_u10_r1_network.node[90].core_layer 	interests[90] 	12788
scalar tree_5_3_u10_r1_network.node[90].core_layer 	data[90] 	8901
scalar tree_5_3_u10_r1_network.node[90].content_store 	p_hit[90] 	0.30387863622146
scalar tree_5_3_u10_r1_network.node[90].content_store 	hits[90] 	3886
scalar tree_5_3_u10_r1_network.node[90].content_store 	misses[90] 	8902
scalar tree_5_3_u10_r1_network.node[90].content_store 	decision_yes[90] 	15
scalar tree_5_3_u10_r1_network.node[90].content_store 	decision_no[90] 	8886
scalar tree_5_3_u10_r1_network.node[90].content_store 	decision_ratio[90] 	0.0016852039096731
scalar tree_5_3_u10_r1_network.node[91].core_layer 	interests[91] 	12797
scalar tree_5_3_u10_r1_network.node[91].core_layer 	data[91] 	8864
scalar tree_5_3_u10_r1_network.node[91].content_store 	p_hit[91] 	0.30725951394858
scalar tree_5_3_u10_r1_network.node[91].content_store 	hits[91] 	3932
scalar tree_5_3_u10_r1_network.node[91].content_store 	misses[91] 	8865
scalar tree_5_3_u10_r1_network.node[91].content_store 	decision_yes[91] 	14
scalar tree_5_3_u10_r1_network.node[91].content_store 	decision_no[91] 	8850
scalar tree_5_3_u10_r1_network.node[91].content_store 	decision_ratio[91] 	0.0015794223826715
scalar tree_5_3_u10_r1_network.node[92].core_layer 	interests[92] 	12638
scalar tree_5_3_u10_r1_network.node[92].core_layer 	data[92] 	8782
scalar tree_5_3_u10_r1_network.node[92].content_store 	p_hit[92] 	0.30511156828612
scalar tree_5_3_u10_r1_network.node[92].content_store 	hits[92] 	3856
scalar tree_5_3_u10_r1_network.node[92].content_store 	misses[92] 	8782
scalar tree_5_3_u10_r1_network.node[92].content_store 	decision_yes[92] 	13
scalar tree_5_3_u10_r1_network.node[92].content_store 	decision_no[92] 	8769
scalar tree_5_3_u10_r1_network.node[92].content_store 	decision_ratio[92] 	0.0014803006148941
scalar tree_5_3_u10_r1_network.node[93].core_layer 	interests[93] 	12230
scalar tree_5_3_u10_r1_network.node[93].core_layer 	data[93] 	8671
scalar tree_5_3_u10_r1_network.node[93].content_store 	p_hit[93] 	0.29100572363042
scalar tree_5_3_u10_r1_network.node[93].content_store 	hits[93] 	3559
scalar tree_5_3_u10_r1_network.node[93].content_store 	misses[93] 	8671
scalar tree_5_3_u10_r1_network.node[93].content_store 	decision_yes[93] 	20
scalar tree_5_3_u10_r1_network.node[93].content_store 	decision_no[93] 	8651
scalar tree_5_3_u10_r1_network.node[93].content_store 	decision_ratio[93] 	0.0023065390381732
scalar tree_5_3_u10_r1_network.node[94].core_layer 	interests[94] 	12207
scalar tree_5_3_u10_r1_network.node[94].core_layer 	data[94] 	8674
scalar tree_5_3_u10_r1_network.node[94].content_store 	p_hit[94] 	0.2894241009257
scalar tree_5_3_u10_r1_network.node[94].content_store 	hits[94] 	3533
scalar tree_5_3_u10_r1_network.node[94].content_store 	misses[94] 	8674
scalar tree_5_3_u10_r1_network.node[94].content_store 	decision_yes[94] 	13
scalar tree_5_3_u10_r1_network.node[94].content_store 	decision_no[94] 	8661
scalar tree_5_3_u10_r1_network.node[94].content_store 	decision_ratio[94] 	0.0014987318422873
scalar tree_5_3_u10_r1_network.node[95].core_layer 	interests[95] 	12840
scalar tree_5_3_u10_r1_network.node[95].core_layer 	data[95] 	8761
scalar tree_5_3_u10_r1_network.node[95].content_store 	p_hit[95] 	0.31760124610592
scalar tree_5_3_u10_r1_network.node[95].content_store 	hits[95] 	4078
scalar tree_5_3_u10_r1_network.node[95].content_store 	misses[95] 	8762
scalar tree_5_3_u10_r1_network.node[95].content_store 	decision_yes[95] 	9
scalar tree_5_3_u10_r1_network.node[95].content_store 	decision_no[95] 	8752
scalar tree_5_3_u10_r1_network.node[95].content_store 	decision_ratio[95] 	0.0010272799908686
scalar tree_5_3_u10_r1_network.node[96].core_layer 	interests[96] 	12553
scalar tree_5_3_u10_r1_network.node[96].core_layer 	data[96] 	8724
scalar tree_5_3_u10_r1_network.node[96].content_store 	p_hit[96] 	0.30502668684777
scalar tree_5_3_u10_r1_network.node[96].content_store 	hits[96] 	3829
scalar tree_5_3_u10_r1_network.node[96].content_store 	misses[96] 	8724
scalar tree_5_3_u10_r1_network.node[96].content_store 	decision_yes[96] 	11
scalar tree_5_3_u10_r1_network.node[96].content_store 	decision_no[96] 	8713
scalar tree_5_3_u10_r1_network.node[96].content_store 	decision_ratio[96] 	0.0012608895002293
scalar tree_5_3_u10_r1_network.node[97].core_layer 	interests[97] 	12738
scalar tree_5_3_u10_r1_network.node[97].core_layer 	data[97] 	8789
scalar tree_5_3_u10_r1_network.node[97].content_store 	p_hit[97] 	0.31001727115717
scalar tree_5_3_u10_r1_network.node[97].content_store 	hits[97] 	3949
scalar tree_5_3_u10_r1_network.node[97].content_store 	misses[97] 	8789
scalar tree_5_3_u10_r1_network.node[97].content_store 	decision_yes[97] 	14
scalar tree_5_3_u10_r1_network.node[97].content_store 	decision_no[97] 	8775
scalar tree_5_3_u10_r1_network.node[97].content_store 	decision_ratio[97] 	0.0015929002161793
scalar tree_5_3_u10_r1_network.node[98].core_layer 	interests[98] 	12502
scalar tree_5_3_u10_r1_network.node[98].core_layer 	data[98] 	8825
scalar tree_5_3_u10_r1_network.node[98].content_store 	p_hit[98] 	0.29411294192929
scalar tree_5_3_u10_r1_network.node[98].content_store 	hits[98] 	3677
scalar tree_5_3_u10_r1_network.node[98].content_store 	misses[98] 	8825
scalar tree_5_3_u10_r1_network.node[98].content_store 	decision_yes[98] 	20
scalar tree_5_3_u10_r1_network.node[98].content_store 	decision_no[98] 	8805
scalar tree_5_3_u10_r1_network.node[98].content_store 	decision_ratio[98] 	0.0022662889518414
scalar tree_5_3_u10_r1_network.node[99].core_layer 	interests[99] 	12495
scalar tree_5_3_u10_r1_network.node[99].core_layer 	data[99] 	8688
scalar tree_5_3_u10_r1_network.node[99].content_store 	p_hit[99] 	0.30460184073629
scalar tree_5_3_u10_r1_network.node[99].content_store 	hits[99] 	3806
scalar tree_5_3_u10_r1_network.node[99].content_store 	misses[99] 	8689
scalar tree_5_3_u10_r1_network.node[99].content_store 	decision_yes[99] 	9
scalar tree_5_3_u10_r1_network.node[99].content_store 	decision_no[99] 	8679
scalar tree_5_3_u10_r1_network.node[99].content_store 	decision_ratio[99] 	0.0010359116022099
scalar tree_5_3_u10_r1_network.node[100].core_layer 	interests[100] 	12634
scalar tree_5_3_u10_r1_network.node[100].core_layer 	data[100] 	8720
scalar tree_5_3_u10_r1_network.node[100].content_store 	p_hit[100] 	0.30979895520025
scalar tree_5_3_u10_r1_network.node[100].content_store 	hits[100] 	3914
scalar tree_5_3_u10_r1_network.node[100].content_store 	misses[100] 	8720
scalar tree_5_3_u10_r1_network.node[100].content_store 	decision_yes[100] 	16
scalar tree_5_3_u10_r1_network.node[100].content_store 	decision_no[100] 	8704
scalar tree_5_3_u10_r1_network.node[100].content_store 	decision_ratio[100] 	0.0018348623853211
scalar tree_5_3_u10_r1_network.node[101].core_layer 	interests[101] 	12855
scalar tree_5_3_u10_r1_network.node[101].core_layer 	data[101] 	8907
scalar tree_5_3_u10_r1_network.node[101].content_store 	p_hit[101] 	0.30704006223259
scalar tree_5_3_u10_r1_network.node[101].content_store 	hits[101] 	3947
scalar tree_5_3_u10_r1_network.node[101].content_store 	misses[101] 	8908
scalar tree_5_3_u10_r1_network.node[101].content_store 	decision_yes[101] 	11
scalar tree_5_3_u10_r1_network.node[101].content_store 	decision_no[101] 	8896
scalar tree_5_3_u10_r1_network.node[101].content_store 	decision_ratio[101] 	0.0012349837206691
scalar tree_5_3_u10_r1_network.node[102].core_layer 	interests[102] 	12388
scalar tree_5_3_u10_r1_network.node[102].core_layer 	data[102] 	8821
scalar tree_5_3_u10_r1_network.node[102].content_store 	p_hit[102] 	0.28793994187924
scalar tree_5_3_u10_r1_network.node[102].content_store 	hits[102] 	3567
scalar tree_5_3_u10_r1_network.node[102].content_store 	misses[102] 	8821
scalar tree_5_3_u10_r1_network.node[102].content_store 	decision_yes[102] 	13
scalar tree_5_3_u10_r1_network.node[102].content_store 	decision_no[102] 	8808
scalar tree_5_3_u10_r1_network.node[102].content_store 	decision_ratio[102] 	0.0014737558099989
scalar tree_5_3_u10_r1_network.node[103].core_layer 	interests[103] 	12283
scalar tree_5_3_u10_r1_network.node[103].core_layer 	data[103] 	8615
scalar tree_5_3_u10_r1_network.node[103].content_store 	p_hit[103] 	0.29862411462998
scalar tree_5_3_u10_r1_network.node[103].content_store 	hits[103] 	3668
scalar tree_5_3_u10_r1_network.node[103].content_store 	misses[103] 	8615
scalar tree_5_3_u10_r1_network.node[103].content_store 	decision_yes[103] 	14
scalar tree_5_3_u10_r1_network.node[103].content_store 	decision_no[103] 	8601
scalar tree_5_3_u10_r1_network.node[103].content_store 	decision_ratio[103] 	0.0016250725478816
scalar tree_5_3_u10_r1_network.node[104].core_layer 	interests[104] 	12494
scalar tree_5_3_u10_r1_network.node[104].core_layer 	data[104] 	8721
scalar tree_5_3_u10_r1_network.node[104].content_store 	p_hit[104] 	0.30198495277733
scalar tree_5_3_u10_r1_network.node[104].content_store 	hits[104] 	3773
scalar tree_5_3_u10_r1_network.node[104].content_store 	misses[104] 	8721
scalar tree_5_3_u10_r1_network.node[104].content_store 	decision_yes[104] 	22
scalar tree_5_3_u10_r1_network.node[104].content_store 	decision_no[104] 	8699
scalar tree_5_3_u10_r1_network.node[104].content_store 	decision_ratio[104] 	0.0025226464854948
scalar tree_5_3_u10_r1_network.node[105].core_layer 	interests[105] 	12752
scalar tree_5_3_u10_r1_network.node[105].core_layer 	data[105] 	8813
scalar tree_5_3_u10_r1_network.node[105].content_store 	p_hit[105] 	0.30889272271016
scalar tree_5_3_u10_r1_network.node[105].content_store 	hits[105] 	3939
scalar tree_5_3_u10_r1_network.node[105].content_store 	misses[105] 	8813
scalar tree_5_3_u10_r1_network.node[105].content_store 	decision_yes[105] 	13
scalar tree_5_3_u10_r1_network.node[105].content_store 	decision_no[105] 	8800
scalar tree_5_3_u10_r1_network.node[105].content_store 	decision_ratio[105] 	0.00147509361171
scalar tree_5_3_u10_r1_network.node[106].core_layer 	interests[106] 	12692
scalar tree_5_3_u10_r1_network.node[106].core_layer 	data[106] 	8751
scalar tree_5_3_u10_r1_network.node[106].content_store 	p_hit[106] 	0.31051055783171
scalar tree_5_3_u10_r1_network.node[106].content_store 	hits[106] 	3941
scalar tree_5_3_u10_r1_network.node[106].content_store 	misses[106] 	8751
scalar tree_5_3_u10_r1_network.node[106].content_store 	decision_yes[106] 	12
scalar tree_5_3_u10_r1_network.node[106].content_store 	decision_no[106] 	8739
scalar tree_5_3_u10_r1_network.node[106].content_store 	decision_ratio[106] 	0.0013712718546452
scalar tree_5_3_u10_r1_network.node[107].core_layer 	interests[107] 	12403
scalar tree_5_3_u10_r1_network.node[107].core_layer 	data[107] 	8875
scalar tree_5_3_u10_r1_network.node[107].content_store 	p_hit[107] 	0.2844473111344
scalar tree_5_3_u10_r1_network.node[107].content_store 	hits[107] 	3528
scalar tree_5_3_u10_r1_network.node[107].content_store 	misses[107] 	8875
scalar tree_5_3_u10_r1_network.node[107].content_store 	decision_yes[107] 	19
scalar tree_5_3_u10_r1_network.node[107].content_store 	decision_no[107] 	8856
scalar tree_5_3_u10_r1_network.node[107].content_store 	decision_ratio[107] 	0.0021408450704225
scalar tree_5_3_u10_r1_network.node[108].core_layer 	interests[108] 	12626
scalar tree_5_3_u10_r1_network.node[108].core_layer 	data[108] 	8801
scalar tree_5_3_u10_r1_network.node[108].content_store 	p_hit[108] 	0.30294630128307
scalar tree_5_3_u10_r1_network.node[108].content_store 	hits[108] 	3825
scalar tree_5_3_u10_r1_network.node[108].content_store 	misses[108] 	8801
scalar tree_5_3_u10_r1_network.node[108].content_store 	decision_yes[108] 	12
scalar tree_5_3_u10_r1_network.node[108].content_store 	decision_no[108] 	8789
scalar tree_5_3_u10_r1_network.node[108].content_store 	decision_ratio[108] 	0.0013634814225656
scalar tree_5_3_u10_r1_network.node[109].core_layer 	interests[109] 	12689
scalar tree_5_3_u10_r1_network.node[109].core_layer 	data[109] 	8808
scalar tree_5_3_u10_r1_network.node[109].content_store 	p_hit[109] 	0.3058554653637
scalar tree_5_3_u10_r1_network.node[109].content_store 	hits[109] 	3881
scalar tree_5_3_u10_r1_network.node[109].content_store 	misses[109] 	8808
scalar tree_5_3_u10_r1_network.node[109].content_store 	decision_yes[109] 	15
scalar tree_5_3_u10_r1_network.node[109].content_store 	decision_no[109] 	8793
scalar tree_5_3_u10_r1_network.node[109].content_store 	decision_ratio[109] 	0.0017029972752044
scalar tree_5_3_u10_r1_network.node[110].core_layer 	interests[110] 	12637
scalar tree_5_3_u10_r1_network.node[110].core_layer 	data[110] 	8831
scalar tree_5_3_u10_r1_network.node[110].content_store 	p_hit[110] 	0.30117907731265
scalar tree_5_3_u10_r1_network.node[110].content_store 	hits[110] 	3806
scalar tree_5_3_u10_r1_network.node[110].content_store 	misses[110] 	8831
scalar tree_5_3_u10_r1_network.node[110].content_store 	decision_yes[110] 	9
scalar tree_5_3_u10_r1_network.node[110].content_store 	decision_no[110] 	8822
scalar tree_5_3_u10_r1_network.node[110].content_store 	decision_ratio[110] 	0.0010191371305628
scalar tree_5_3_u10_r1_network.node[111].core_layer 	interests[111] 	12384
scalar tree_5_3_u10_r1_network.node[111].core_layer 	data[111] 	8829
scalar tree_5_3_u10_r1_network.node[111].content_store 	p_hit[111] 	0.28714470284238
scalar tree_5_3_u10_r1_network.node[111].content_store 	hits[111] 	3556
scalar tree_5_3_u10_r1_network.node[111].content_store 	misses[111] 	8828
scalar tree_5_3_u10_r1_network.node[111].content_store 	decision_yes[111] 	19
scalar tree_5_3_u10_r1_network.node[111].content_store 	decision_no[111] 	8810
scalar tree_5_3_u10_r1_network.node[111].content_store 	decision_ratio[111] 	0.0021519990938951
scalar tree_5_3_u10_r1_network.node[112].core_layer 	interests[112] 	12428
scalar tree_5_3_u10_r1_network.node[112].core_layer 	data[112] 	8812
scalar tree_5_3_u10_r1_network.node[112].content_store 	p_hit[112] 	0.29095590601867
scalar tree_5_3_u10_r1_network.node[112].content_store 	hits[112] 	3616
scalar tree_5_3_u10_r1_network.node[112].content_store 	misses[112] 	8812
scalar tree_5_3_u10_r1_network.node[112].content_store 	decision_yes[112] 	9
scalar tree_5_3_u10_r1_network.node[112].content_store 	decision_no[112] 	8803
scalar tree_5_3_u10_r1_network.node[112].content_store 	decision_ratio[112] 	0.0010213345438039
scalar tree_5_3_u10_r1_network.node[113].core_layer 	interests[113] 	12808
scalar tree_5_3_u10_r1_network.node[113].core_layer 	data[113] 	8826
scalar tree_5_3_u10_r1_network.node[113].content_store 	p_hit[113] 	0.31089943785134
scalar tree_5_3_u10_r1_network.node[113].content_store 	hits[113] 	3982
scalar tree_5_3_u10_r1_network.node[113].content_store 	misses[113] 	8826
scalar tree_5_3_u10_r1_network.node[113].content_store 	decision_yes[113] 	15
scalar tree_5_3_u10_r1_network.node[113].content_store 	decision_no[113] 	8811
scalar tree_5_3_u10_r1_network.node[113].content_store 	decision_ratio[113] 	0.0016995241332427
scalar tree_5_3_u10_r1_network.node[114].core_layer 	interests[114] 	12620
scalar tree_5_3_u10_r1_network.node[114].core_layer 	data[114] 	8682
scalar tree_5_3_u10_r1_network.node[114].content_store 	p_hit[114] 	0.31204437400951
scalar tree_5_3_u10_r1_network.node[114].content_store 	hits[114] 	3938
scalar tree_5_3_u10_r1_network.node[114].content_store 	misses[114] 	8682
scalar tree_5_3_u10_r1_network.node[114].content_store 	decision_yes[114] 	20
scalar tree_5_3_u10_r1_network.node[114].content_store 	decision_no[114] 	8662
scalar tree_5_3_u10_r1_network.node[114].content_store 	decision_ratio[114] 	0.0023036166781848
scalar tree_5_3_u10_r1_network.node[115].core_layer 	interests[115] 	12517
scalar tree_5_3_u10_r1_network.node[115].core_layer 	data[115] 	8629
scalar tree_5_3_u10_r1_network.node[115].content_store 	p_hit[115] 	0.31061756011824
scalar tree_5_3_u10_r1_network.node[115].content_store 	hits[115] 	3888
scalar tree_5_3_u10_r1_network.node[115].content_store 	misses[115] 	8629
scalar tree_5_3_u10_r1_network.node[115].content_store 	decision_yes[115] 	12
scalar tree_5_3_u10_r1_network.node[115].content_store 	decision_no[115] 	8617
scalar tree_5_3_u10_r1_network.node[115].content_store 	decision_ratio[115] 	0.0013906594043342
scalar tree_5_3_u10_r1_network.node[116].core_layer 	interests[116] 	12314
scalar tree_5_3_u10_r1_network.node[116].core_layer 	data[116] 	8705
scalar tree_5_3_u10_r1_network.node[116].content_store 	p_hit[116] 	0.29308104596394
scalar tree_5_3_u10_r1_network.node[116].content_store 	hits[116] 	3609
scalar tree_5_3_u10_r1_network.node[116].content_store 	misses[116] 	8705
scalar tree_5_3_u10_r1_network.node[116].content_store 	decision_yes[116] 	15
scalar tree_5_3_u10_r1_network.node[116].content_store 	decision_no[116] 	8690
scalar tree_5_3_u10_r1_network.node[116].content_store 	decision_ratio[116] 	0.0017231476163125
scalar tree_5_3_u10_r1_network.node[117].core_layer 	interests[117] 	12625
scalar tree_5_3_u10_r1_network.node[117].core_layer 	data[117] 	8709
scalar tree_5_3_u10_r1_network.node[117].content_store 	p_hit[117] 	0.31017821782178
scalar tree_5_3_u10_r1_network.node[117].content_store 	hits[117] 	3916
scalar tree_5_3_u10_r1_network.node[117].content_store 	misses[117] 	8709
scalar tree_5_3_u10_r1_network.node[117].content_store 	decision_yes[117] 	11
scalar tree_5_3_u10_r1_network.node[117].content_store 	decision_no[117] 	8698
scalar tree_5_3_u10_r1_network.node[117].content_store 	decision_ratio[117] 	0.0012630612010564
scalar tree_5_3_u10_r1_network.node[118].core_layer 	interests[118] 	12459
scalar tree_5_3_u10_r1_network.node[118].core_layer 	data[118] 	8704
scalar tree_5_3_u10_r1_network.node[118].content_store 	p_hit[118] 	0.30138855445862
scalar tree_5_3_u10_r1_network.node[118].content_store 	hits[118] 	3755
scalar tree_5_3_u10_r1_network.node[118].content_store 	misses[118] 	8704
scalar tree_5_3_u10_r1_network.node[118].content_store 	decision_yes[118] 	21
scalar tree_5_3_u10_r1_network.node[118].content_store 	decision_no[118] 	8683
scalar tree_5_3_u10_r1_network.node[118].content_store 	decision_ratio[118] 	0.0024126838235294
scalar tree_5_3_u10_r1_network.node[119].core_layer 	interests[119] 	12754
scalar tree_5_3_u10_r1_network.node[119].core_layer 	data[119] 	8943
scalar tree_5_3_u10_r1_network.node[119].content_store 	p_hit[119] 	0.29880821702995
scalar tree_5_3_u10_r1_network.node[119].content_store 	hits[119] 	3811
scalar tree_5_3_u10_r1_network.node[119].content_store 	misses[119] 	8943
scalar tree_5_3_u10_r1_network.node[119].content_store 	decision_yes[119] 	14
scalar tree_5_3_u10_r1_network.node[119].content_store 	decision_no[119] 	8929
scalar tree_5_3_u10_r1_network.node[119].content_store 	decision_ratio[119] 	0.0015654702001565
scalar tree_5_3_u10_r1_network.node[120].core_layer 	interests[120] 	12166
scalar tree_5_3_u10_r1_network.node[120].core_layer 	data[120] 	8771
scalar tree_5_3_u10_r1_network.node[120].content_store 	p_hit[120] 	0.27905638665132
scalar tree_5_3_u10_r1_network.node[120].content_store 	hits[120] 	3395
scalar tree_5_3_u10_r1_network.node[120].content_store 	misses[120] 	8771
scalar tree_5_3_u10_r1_network.node[120].content_store 	decision_yes[120] 	15
scalar tree_5_3_u10_r1_network.node[120].content_store 	decision_no[120] 	8756
scalar tree_5_3_u10_r1_network.node[120].content_store 	decision_ratio[120] 	0.0017101812792156
scalar tree_5_3_u10_r1_network.client[40] 	hdistance[40] 	3.1811430955361
scalar tree_5_3_u10_r1_network.client[40] 	downloads[40] 	11985
scalar tree_5_3_u10_r1_network.client[40] 	avg_time[40] 	0.00533524151
scalar tree_5_3_u10_r1_network.client[41] 	hdistance[41] 	3.0276071037791
scalar tree_5_3_u10_r1_network.client[41] 	downloads[41] 	11881
scalar tree_5_3_u10_r1_network.client[41] 	avg_time[41] 	0.005073640469
scalar tree_5_3_u10_r1_network.client[42] 	hdistance[42] 	3.0736191261336
scalar tree_5_3_u10_r1_network.client[42] 	downloads[42] 	12130
scalar tree_5_3_u10_r1_network.client[42] 	avg_time[42] 	0.005151927283
scalar tree_5_3_u10_r1_network.client[43] 	hdistance[43] 	3.0595603484032
scalar tree_5_3_u10_r1_network.client[43] 	downloads[43] 	12055
scalar tree_5_3_u10_r1_network.client[43] 	avg_time[43] 	0.005133966351
scalar tree_5_3_u10_r1_network.client[44] 	hdistance[44] 	3.1183481618264
scalar tree_5_3_u10_r1_network.client[44] 	downloads[44] 	11914
scalar tree_5_3_u10_r1_network.client[44] 	avg_time[44] 	0.005239043512
scalar tree_5_3_u10_r1_network.client[45] 	hdistance[45] 	3.00990015231
scalar tree_5_3_u10_r1_network.client[45] 	downloads[45] 	11818
scalar tree_5_3_u10_r1_network.client[45] 	avg_time[45] 	0.005047429159
scalar tree_5_3_u10_r1_network.client[46] 	hdistance[46] 	3.0708992926912
scalar tree_5_3_u10_r1_network.client[46] 	downloads[46] 	11876
scalar tree_5_3_u10_r1_network.client[46] 	avg_time[46] 	0.005137417047
scalar tree_5_3_u10_r1_network.client[47] 	hdistance[47] 	3.0169990743078
scalar tree_5_3_u10_r1_network.client[47] 	downloads[47] 	11883
scalar tree_5_3_u10_r1_network.client[47] 	avg_time[47] 	0.005046870864
scalar tree_5_3_u10_r1_network.client[48] 	hdistance[48] 	3.1385783413983
scalar tree_5_3_u10_r1_network.client[48] 	downloads[48] 	11986
scalar tree_5_3_u10_r1_network.client[48] 	avg_time[48] 	0.005271814137
scalar tree_5_3_u10_r1_network.client[49] 	hdistance[49] 	3.1339828461987
scalar tree_5_3_u10_r1_network.client[49] 	downloads[49] 	12009
scalar tree_5_3_u10_r1_network.client[49] 	avg_time[49] 	0.00527162253
scalar tree_5_3_u10_r1_network.client[50] 	hdistance[50] 	3.0515836343779
scalar tree_5_3_u10_r1_network.client[50] 	downloads[50] 	11903
scalar tree_5_3_u10_r1_network.client[50] 	avg_time[50] 	0.005122266305
scalar tree_5_3_u10_r1_network.client[51] 	hdistance[51] 	3.0257842010182
scalar tree_5_3_u10_r1_network.client[51] 	downloads[51] 	12178
scalar tree_5_3_u10_r1_network.client[51] 	avg_time[51] 	0.005068361244
scalar tree_5_3_u10_r1_network.client[52] 	hdistance[52] 	3.0266688481675
scalar tree_5_3_u10_r1_network.client[52] 	downloads[52] 	12224
scalar tree_5_3_u10_r1_network.client[52] 	avg_time[52] 	0.005075258742
scalar tree_5_3_u10_r1_network.client[53] 	hdistance[53] 	3.1587341349365
scalar tree_5_3_u10_r1_network.client[53] 	downloads[53] 	11976
scalar tree_5_3_u10_r1_network.client[53] 	avg_time[53] 	0.00531345725
scalar tree_5_3_u10_r1_network.client[54] 	hdistance[54] 	3.0359390526665
scalar tree_5_3_u10_r1_network.client[54] 	downloads[54] 	12076
scalar tree_5_3_u10_r1_network.client[54] 	avg_time[54] 	0.00507965914
scalar tree_5_3_u10_r1_network.client[55] 	hdistance[55] 	3.0238993710692
scalar tree_5_3_u10_r1_network.client[55] 	downloads[55] 	11925
scalar tree_5_3_u10_r1_network.client[55] 	avg_time[55] 	0.005069179405
scalar tree_5_3_u10_r1_network.client[56] 	hdistance[56] 	3.1053776030777
scalar tree_5_3_u10_r1_network.client[56] 	downloads[56] 	11957
scalar tree_5_3_u10_r1_network.client[56] 	avg_time[56] 	0.005201970723
scalar tree_5_3_u10_r1_network.client[57] 	hdistance[57] 	3.0935895312241
scalar tree_5_3_u10_r1_network.client[57] 	downloads[57] 	12074
scalar tree_5_3_u10_r1_network.client[57] 	avg_time[57] 	0.005194630077
scalar tree_5_3_u10_r1_network.client[58] 	hdistance[58] 	3.1241350562735
scalar tree_5_3_u10_r1_network.client[58] 	downloads[58] 	11995
scalar tree_5_3_u10_r1_network.client[58] 	avg_time[58] 	0.005248183754
scalar tree_5_3_u10_r1_network.client[59] 	hdistance[59] 	3.0775432180851
scalar tree_5_3_u10_r1_network.client[59] 	downloads[59] 	12032
scalar tree_5_3_u10_r1_network.client[59] 	avg_time[59] 	0.005146606059
scalar tree_5_3_u10_r1_network.client[60] 	hdistance[60] 	3.095483326298
scalar tree_5_3_u10_r1_network.client[60] 	downloads[60] 	11845
scalar tree_5_3_u10_r1_network.client[60] 	avg_time[60] 	0.005174795605
scalar tree_5_3_u10_r1_network.client[61] 	hdistance[61] 	3.016179059435
scalar tree_5_3_u10_r1_network.client[61] 	downloads[61] 	11929
scalar tree_5_3_u10_r1_network.client[61] 	avg_time[61] 	0.005062449906
scalar tree_5_3_u10_r1_network.client[62] 	hdistance[62] 	3.0855791163302
scalar tree_5_3_u10_r1_network.client[62] 	downloads[62] 	11837
scalar tree_5_3_u10_r1_network.client[62] 	avg_time[62] 	0.005182053295
scalar tree_5_3_u10_r1_network.client[63] 	hdistance[63] 	3.0545604622369
scalar tree_5_3_u10_r1_network.client[63] 	downloads[63] 	12115
scalar tree_5_3_u10_r1_network.client[63] 	avg_time[63] 	0.005122523571
scalar tree_5_3_u10_r1_network.client[64] 	hdistance[64] 	3.0480899256254
scalar tree_5_3_u10_r1_network.client[64] 	downloads[64] 	11832
scalar tree_5_3_u10_r1_network.client[64] 	avg_time[64] 	0.005104294086
scalar tree_5_3_u10_r1_network.client[65] 	hdistance[65] 	3.0897305541434
scalar tree_5_3_u10_r1_network.client[65] 	downloads[65] 	11802
scalar tree_5_3_u10_r1_network.client[65] 	avg_time[65] 	0.005171370168
scalar tree_5_3_u10_r1_network.client[66] 	hdistance[66] 	3.151407870904
scalar tree_5_3_u10_r1_network.client[66] 	downloads[66] 	12146
scalar tree_5_3_u10_r1_network.client[66] 	avg_time[66] 	0.005301330742
scalar tree_5_3_u10_r1_network.client[67] 	hdistance[67] 	3.1405154203633
scalar tree_5_3_u10_r1_network.client[67] 	downloads[67] 	11835
scalar tree_5_3_u10_r1_network.client[67] 	avg_time[67] 	0.005304264067
scalar tree_5_3_u10_r1_network.client[68] 	hdistance[68] 	3.0559729216544
scalar tree_5_3_u10_r1_network.client[68] 	downloads[68] 	12113
scalar tree_5_3_u10_r1_network.client[68] 	avg_time[68] 	0.005129857445
scalar tree_5_3_u10_r1_network.client[69] 	hdistance[69] 	3.0721153846154
scalar tree_5_3_u10_r1_network.client[69] 	downloads[69] 	12064
scalar tree_5_3_u10_r1_network.client[69] 	avg_time[69] 	0.005144933406
scalar tree_5_3_u10_r1_network.client[70] 	hdistance[70] 	3.1036944790369
scalar tree_5_3_u10_r1_network.client[70] 	downloads[70] 	12045
scalar tree_5_3_u10_r1_network.client[70] 	avg_time[70] 	0.005200813184
scalar tree_5_3_u10_r1_network.client[71] 	hdistance[71] 	3.1054765056254
scalar tree_5_3_u10_r1_network.client[71] 	downloads[71] 	12088
scalar tree_5_3_u10_r1_network.client[71] 	avg_time[71] 	0.005214314834
scalar tree_5_3_u10_r1_network.client[72] 	hdistance[72] 	3.0377469032474
scalar tree_5_3_u10_r1_network.client[72] 	downloads[72] 	11948
scalar tree_5_3_u10_r1_network.client[72] 	avg_time[72] 	0.005081251284
scalar tree_5_3_u10_r1_network.client[73] 	hdistance[73] 	3.0714697881461
scalar tree_5_3_u10_r1_network.client[73] 	downloads[73] 	12131
scalar tree_5_3_u10_r1_network.client[73] 	avg_time[73] 	0.005155363522
scalar tree_5_3_u10_r1_network.client[74] 	hdistance[74] 	3.0284963455695
scalar tree_5_3_u10_r1_network.client[74] 	downloads[74] 	12177
scalar tree_5_3_u10_r1_network.client[74] 	avg_time[74] 	0.005063805785
scalar tree_5_3_u10_r1_network.client[75] 	hdistance[75] 	3.0622695273215
scalar tree_5_3_u10_r1_network.client[75] 	downloads[75] 	11932
scalar tree_5_3_u10_r1_network.client[75] 	avg_time[75] 	0.005149000524
scalar tree_5_3_u10_r1_network.client[76] 	hdistance[76] 	3.1152172127782
scalar tree_5_3_u10_r1_network.client[76] 	downloads[76] 	12177
scalar tree_5_3_u10_r1_network.client[76] 	avg_time[76] 	0.005229528042
scalar tree_5_3_u10_r1_network.client[77] 	hdistance[77] 	3.0968115942029
scalar tree_5_3_u10_r1_network.client[77] 	downloads[77] 	12075
scalar tree_5_3_u10_r1_network.client[77] 	avg_time[77] 	0.005190790094
scalar tree_5_3_u10_r1_network.client[78] 	hdistance[78] 	3.0457725701762
scalar tree_5_3_u10_r1_network.client[78] 	downloads[78] 	11863
scalar tree_5_3_u10_r1_network.client[78] 	avg_time[78] 	0.005086400154
scalar tree_5_3_u10_r1_network.client[79] 	hdistance[79] 	3.0657210005036
scalar tree_5_3_u10_r1_network.client[79] 	downloads[79] 	11914
scalar tree_5_3_u10_r1_network.client[79] 	avg_time[79] 	0.005139442974
scalar tree_5_3_u10_r1_network.client[80] 	hdistance[80] 	3.2442296475294
scalar tree_5_3_u10_r1_network.client[80] 	downloads[80] 	12001
scalar tree_5_3_u10_r1_network.client[80] 	avg_time[80] 	0.005422423194
scalar tree_5_3_u10_r1_network.client[81] 	hdistance[81] 	3.0787593510969
scalar tree_5_3_u10_r1_network.client[81] 	downloads[81] 	11897
scalar tree_5_3_u10_r1_network.client[81] 	avg_time[81] 	0.005141629365
scalar tree_5_3_u10_r1_network.client[82] 	hdistance[82] 	3.0257176041148
scalar tree_5_3_u10_r1_network.client[82] 	downloads[82] 	12054
scalar tree_5_3_u10_r1_network.client[82] 	avg_time[82] 	0.005061221481
scalar tree_5_3_u10_r1_network.client[83] 	hdistance[83] 	3.1021676891616
scalar tree_5_3_u10_r1_network.client[83] 	downloads[83] 	12225
scalar tree_5_3_u10_r1_network.client[83] 	avg_time[83] 	0.005173821077
scalar tree_5_3_u10_r1_network.client[84] 	hdistance[84] 	3.1111111111111
scalar tree_5_3_u10_r1_network.client[84] 	downloads[84] 	12141
scalar tree_5_3_u10_r1_network.client[84] 	avg_time[84] 	0.005211264592
scalar tree_5_3_u10_r1_network.client[85] 	hdistance[85] 	3.079688535454
scalar tree_5_3_u10_r1_network.client[85] 	downloads[85] 	12072
scalar tree_5_3_u10_r1_network.client[85] 	avg_time[85] 	0.005175112973
scalar tree_5_3_u10_r1_network.client[86] 	hdistance[86] 	3.0393969681826
scalar tree_5_3_u10_r1_network.client[86] 	downloads[86] 	12006
scalar tree_5_3_u10_r1_network.client[86] 	avg_time[86] 	0.00509168503
scalar tree_5_3_u10_r1_network.client[87] 	hdistance[87] 	3.0661795233746
scalar tree_5_3_u10_r1_network.client[87] 	downloads[87] 	12043
scalar tree_5_3_u10_r1_network.client[87] 	avg_time[87] 	0.005141130063
scalar tree_5_3_u10_r1_network.client[88] 	hdistance[88] 	3.0313133018231
scalar tree_5_3_u10_r1_network.client[88] 	downloads[88] 	11848
scalar tree_5_3_u10_r1_network.client[88] 	avg_time[88] 	0.005071730732
scalar tree_5_3_u10_r1_network.client[89] 	hdistance[89] 	3.0778586794639
scalar tree_5_3_u10_r1_network.client[89] 	downloads[89] 	12086
scalar tree_5_3_u10_r1_network.client[89] 	avg_time[89] 	0.005164650297
scalar tree_5_3_u10_r1_network.client[90] 	hdistance[90] 	3.0630793208104
scalar tree_5_3_u10_r1_network.client[90] 	downloads[90] 	12191
scalar tree_5_3_u10_r1_network.client[90] 	avg_time[90] 	0.005126015782
scalar tree_5_3_u10_r1_network.client[91] 	hdistance[91] 	3.0441079112876
scalar tree_5_3_u10_r1_network.client[91] 	downloads[91] 	12084
scalar tree_5_3_u10_r1_network.client[91] 	avg_time[91] 	0.00509909974
scalar tree_5_3_u10_r1_network.client[92] 	hdistance[92] 	3.0526535032908
scalar tree_5_3_u10_r1_network.client[92] 	downloads[92] 	12003
scalar tree_5_3_u10_r1_network.client[92] 	avg_time[92] 	0.00510655372
scalar tree_5_3_u10_r1_network.client[93] 	hdistance[93] 	3.1412486345685
scalar tree_5_3_u10_r1_network.client[93] 	downloads[93] 	11901
scalar tree_5_3_u10_r1_network.client[93] 	avg_time[93] 	0.005277200612
scalar tree_5_3_u10_r1_network.client[94] 	hdistance[94] 	3.1745696928788
scalar tree_5_3_u10_r1_network.client[94] 	downloads[94] 	11852
scalar tree_5_3_u10_r1_network.client[94] 	avg_time[94] 	0.005346685121
scalar tree_5_3_u10_r1_network.client[95] 	hdistance[95] 	3.0685537742151
scalar tree_5_3_u10_r1_network.client[95] 	downloads[95] 	11976
scalar tree_5_3_u10_r1_network.client[95] 	avg_time[95] 	0.005139108562
scalar tree_5_3_u10_r1_network.client[96] 	hdistance[96] 	3.0967308177158
scalar tree_5_3_u10_r1_network.client[96] 	downloads[96] 	11899
scalar tree_5_3_u10_r1_network.client[96] 	avg_time[96] 	0.005182617437
scalar tree_5_3_u10_r1_network.client[97] 	hdistance[97] 	3.060129740519
scalar tree_5_3_u10_r1_network.client[97] 	downloads[97] 	12024
scalar tree_5_3_u10_r1_network.client[97] 	avg_time[97] 	0.005125911818
scalar tree_5_3_u10_r1_network.client[98] 	hdistance[98] 	3.112158808933
scalar tree_5_3_u10_r1_network.client[98] 	downloads[98] 	12090
scalar tree_5_3_u10_r1_network.client[98] 	avg_time[98] 	0.005220893597
scalar tree_5_3_u10_r1_network.client[99] 	hdistance[99] 	3.0168539325843
scalar tree_5_3_u10_r1_network.client[99] 	downloads[99] 	11926
scalar tree_5_3_u10_r1_network.client[99] 	avg_time[99] 	0.00505081036
scalar tree_5_3_u10_r1_network.client[100] 	hdistance[100] 	3.0667002265291
scalar tree_5_3_u10_r1_network.client[100] 	downloads[100] 	11919
scalar tree_5_3_u10_r1_network.client[100] 	avg_time[100] 	0.005142206949
scalar tree_5_3_u10_r1_network.client[101] 	hdistance[101] 	3.0333443380654
scalar tree_5_3_u10_r1_network.client[101] 	downloads[101] 	12116
scalar tree_5_3_u10_r1_network.client[101] 	avg_time[101] 	0.005074343601
scalar tree_5_3_u10_r1_network.client[102] 	hdistance[102] 	3.1241927471436
scalar tree_5_3_u10_r1_network.client[102] 	downloads[102] 	12078
scalar tree_5_3_u10_r1_network.client[102] 	avg_time[102] 	0.005243745948
scalar tree_5_3_u10_r1_network.client[103] 	hdistance[103] 	3.1020201166427
scalar tree_5_3_u10_r1_network.client[103] 	downloads[103] 	11831
scalar tree_5_3_u10_r1_network.client[103] 	avg_time[103] 	0.005218828915
scalar tree_5_3_u10_r1_network.client[104] 	hdistance[104] 	3.0538305771178
scalar tree_5_3_u10_r1_network.client[104] 	downloads[104] 	11852
scalar tree_5_3_u10_r1_network.client[104] 	avg_time[104] 	0.005126143376
scalar tree_5_3_u10_r1_network.client[105] 	hdistance[105] 	3.0492279594886
scalar tree_5_3_u10_r1_network.client[105] 	downloads[105] 	12046
scalar tree_5_3_u10_r1_network.client[105] 	avg_time[105] 	0.005102437623
scalar tree_5_3_u10_r1_network.client[106] 	hdistance[106] 	3.0968744748782
scalar tree_5_3_u10_r1_network.client[106] 	downloads[106] 	11902
scalar tree_5_3_u10_r1_network.client[106] 	avg_time[106] 	0.005188633591
scalar tree_5_3_u10_r1_network.client[107] 	hdistance[107] 	3.1845819761129
scalar tree_5_3_u10_r1_network.client[107] 	downloads[107] 	11973
scalar tree_5_3_u10_r1_network.client[107] 	avg_time[107] 	0.005348197131
scalar tree_5_3_u10_r1_network.client[108] 	hdistance[108] 	3.0906359539309
scalar tree_5_3_u10_r1_network.client[108] 	downloads[108] 	11982
scalar tree_5_3_u10_r1_network.client[108] 	avg_time[108] 	0.005168082436
scalar tree_5_3_u10_r1_network.client[109] 	hdistance[109] 	3.0424931529588
scalar tree_5_3_u10_r1_network.client[109] 	downloads[109] 	12049
scalar tree_5_3_u10_r1_network.client[109] 	avg_time[109] 	0.005092369818
scalar tree_5_3_u10_r1_network.client[110] 	hdistance[110] 	3.1049945620346
scalar tree_5_3_u10_r1_network.client[110] 	downloads[110] 	11953
scalar tree_5_3_u10_r1_network.client[110] 	avg_time[110] 	0.005190995073
scalar tree_5_3_u10_r1_network.client[111] 	hdistance[111] 	3.129303176451
scalar tree_5_3_u10_r1_network.client[111] 	downloads[111] 	12026
scalar tree_5_3_u10_r1_network.client[111] 	avg_time[111] 	0.005256441352
scalar tree_5_3_u10_r1_network.client[112] 	hdistance[112] 	3.1159840822418
scalar tree_5_3_u10_r1_network.client[112] 	downloads[112] 	12062
scalar tree_5_3_u10_r1_network.client[112] 	avg_time[112] 	0.005231916584
scalar tree_5_3_u10_r1_network.client[113] 	hdistance[113] 	3.0351783927976
scalar tree_5_3_u10_r1_network.client[113] 	downloads[113] 	11996
scalar tree_5_3_u10_r1_network.client[113] 	avg_time[113] 	0.005079453078
scalar tree_5_3_u10_r1_network.client[114] 	hdistance[114] 	3.0523709609736
scalar tree_5_3_u10_r1_network.client[114] 	downloads[114] 	11915
scalar tree_5_3_u10_r1_network.client[114] 	avg_time[114] 	0.005115110708
scalar tree_5_3_u10_r1_network.client[115] 	hdistance[115] 	3.0522671620366
scalar tree_5_3_u10_r1_network.client[115] 	downloads[115] 	11843
scalar tree_5_3_u10_r1_network.client[115] 	avg_time[115] 	0.005101092233
scalar tree_5_3_u10_r1_network.client[116] 	hdistance[116] 	3.1094276094276
scalar tree_5_3_u10_r1_network.client[116] 	downloads[116] 	11880
scalar tree_5_3_u10_r1_network.client[116] 	avg_time[116] 	0.005224239474
scalar tree_5_3_u10_r1_network.client[117] 	hdistance[117] 	3.0567765567766
scalar tree_5_3_u10_r1_network.client[117] 	downloads[117] 	12012
scalar tree_5_3_u10_r1_network.client[117] 	avg_time[117] 	0.005114719557
scalar tree_5_3_u10_r1_network.client[118] 	hdistance[118] 	3.1020338983051
scalar tree_5_3_u10_r1_network.client[118] 	downloads[118] 	11800
scalar tree_5_3_u10_r1_network.client[118] 	avg_time[118] 	0.005187454699
scalar tree_5_3_u10_r1_network.client[119] 	hdistance[119] 	3.0862111393651
scalar tree_5_3_u10_r1_network.client[119] 	downloads[119] 	12191
scalar tree_5_3_u10_r1_network.client[119] 	avg_time[119] 	0.005156423821
scalar tree_5_3_u10_r1_network.client[120] 	hdistance[120] 	3.2247143817204
scalar tree_5_3_u10_r1_network.client[120] 	downloads[120] 	11904
scalar tree_5_3_u10_r1_network.client[120] 	avg_time[120] 	0.005385749692
