version 2
run General-76-20160820-15:01:06-2644
attr a 0.9
attr cd lce
attr configname General
attr cr lru
attr datetime 20160820-15:01:06
attr experiment General
attr fsize 1
attr inifile hw5115/scenario_A/SPR-LCE.ini
attr iterationvars "$name=tree_4_3, $un=03, $rep=17, $cd=lce, $cr=lru, $fsize=1, $a=0.9, $sl=spr, $ttl=1000, $variance=0.05"
attr iterationvars2 "$name=tree_4_3, $un=03, $rep=17, $cd=lce, $cr=lru, $fsize=1, $a=0.9, $sl=spr, $ttl=1000, $variance=0.05, $repetition=0"
attr measurement "$name=tree_4_3, $un=03, $rep=17, $cd=lce, $cr=lru, $fsize=1, $a=0.9, $sl=spr, $ttl=1000, $variance=0.05"
attr name tree_4_3
attr network networks.${name}_u${un}_r${rep}_network
attr processid 2644
attr rep 17
attr repetition 0
attr replication #0
attr resultdir results
attr runnumber 76
attr seedset 17
attr sl spr
attr ttl 1000
attr un 03
attr variance 0.05

scalar . 	a 	0.9
scalar . 	fsize 	1
scalar . 	rep 	17
scalar . 	ttl 	1000
scalar . 	un 	03
scalar . 	variance 	0.05
scalar tree_4_3_u03_r17_network.content_distribution 	repo-0 	0
scalar tree_4_3_u03_r17_network.content_distribution 	client-0 	13
scalar tree_4_3_u03_r17_network.content_distribution 	client-1 	14
scalar tree_4_3_u03_r17_network.content_distribution 	client-2 	15
scalar tree_4_3_u03_r17_network.content_distribution 	client-3 	16
scalar tree_4_3_u03_r17_network.content_distribution 	client-4 	17
scalar tree_4_3_u03_r17_network.content_distribution 	client-5 	18
scalar tree_4_3_u03_r17_network.content_distribution 	client-6 	19
scalar tree_4_3_u03_r17_network.content_distribution 	client-7 	20
scalar tree_4_3_u03_r17_network.content_distribution 	client-8 	21
scalar tree_4_3_u03_r17_network.content_distribution 	client-9 	22
scalar tree_4_3_u03_r17_network.content_distribution 	client-10 	23
scalar tree_4_3_u03_r17_network.content_distribution 	client-11 	24
scalar tree_4_3_u03_r17_network.content_distribution 	client-12 	25
scalar tree_4_3_u03_r17_network.content_distribution 	client-13 	26
scalar tree_4_3_u03_r17_network.content_distribution 	client-14 	27
scalar tree_4_3_u03_r17_network.content_distribution 	client-15 	28
scalar tree_4_3_u03_r17_network.content_distribution 	client-16 	29
scalar tree_4_3_u03_r17_network.content_distribution 	client-17 	30
scalar tree_4_3_u03_r17_network.content_distribution 	client-18 	31
scalar tree_4_3_u03_r17_network.content_distribution 	client-19 	32
scalar tree_4_3_u03_r17_network.content_distribution 	client-20 	33
scalar tree_4_3_u03_r17_network.content_distribution 	client-21 	34
scalar tree_4_3_u03_r17_network.content_distribution 	client-22 	35
scalar tree_4_3_u03_r17_network.content_distribution 	client-23 	36
scalar tree_4_3_u03_r17_network.content_distribution 	client-24 	37
scalar tree_4_3_u03_r17_network.content_distribution 	client-25 	38
scalar tree_4_3_u03_r17_network.content_distribution 	client-26 	39
scalar tree_4_3_u03_r17_network.content_distribution 	repo-0_card 	100000
scalar tree_4_3_u03_r17_network.content_distribution 	repo-0_price 	0
scalar tree_4_3_u03_r17_network.statistics 	stabilization_time 	563.7
scalar tree_4_3_u03_r17_network.statistics 	p_hit 	0.1135199441706
scalar tree_4_3_u03_r17_network.statistics 	interests 	28144.775
scalar tree_4_3_u03_r17_network.statistics 	data 	20019.95
scalar tree_4_3_u03_r17_network.statistics 	hdistance 	3.2505103152559
scalar tree_4_3_u03_r17_network.statistics 	avg_time 	0.004928330701
scalar tree_4_3_u03_r17_network.statistics 	downloads 	324973
scalar tree_4_3_u03_r17_network.statistics 	total_cost 	0
scalar tree_4_3_u03_r17_network.statistics 	total_replicas 	100000
scalar tree_4_3_u03_r17_network.statistics 	inner_hit 	0.21387315253883
scalar tree_4_3_u03_r17_network.node[0].core_layer 	interests[0] 	260521
scalar tree_4_3_u03_r17_network.node[0].core_layer 	repo_load[0] 	255470
scalar tree_4_3_u03_r17_network.node[0].core_layer 	data[0] 	0
scalar tree_4_3_u03_r17_network.node[0].core_layer 	repo_int[0] 	255470
scalar tree_4_3_u03_r17_network.node[0].content_store 	p_hit[0] 	0.019388072362689
scalar tree_4_3_u03_r17_network.node[0].content_store 	hits[0] 	5051
scalar tree_4_3_u03_r17_network.node[0].content_store 	misses[0] 	255470
scalar tree_4_3_u03_r17_network.node[0].content_store 	decision_yes[0] 	255470
scalar tree_4_3_u03_r17_network.node[0].content_store 	decision_no[0] 	0
scalar tree_4_3_u03_r17_network.node[0].content_store 	decision_ratio[0] 	1
scalar tree_4_3_u03_r17_network.node[1].core_layer 	interests[1] 	89015
scalar tree_4_3_u03_r17_network.node[1].core_layer 	data[1] 	87235
scalar tree_4_3_u03_r17_network.node[1].content_store 	p_hit[1] 	0.019951693534798
scalar tree_4_3_u03_r17_network.node[1].content_store 	hits[1] 	1776
scalar tree_4_3_u03_r17_network.node[1].content_store 	misses[1] 	87239
scalar tree_4_3_u03_r17_network.node[1].content_store 	decision_yes[1] 	87235
scalar tree_4_3_u03_r17_network.node[1].content_store 	decision_no[1] 	0
scalar tree_4_3_u03_r17_network.node[1].content_store 	decision_ratio[1] 	1
scalar tree_4_3_u03_r17_network.node[2].core_layer 	interests[2] 	88403
scalar tree_4_3_u03_r17_network.node[2].core_layer 	data[2] 	86386
scalar tree_4_3_u03_r17_network.node[2].content_store 	p_hit[2] 	0.022759408617355
scalar tree_4_3_u03_r17_network.node[2].content_store 	hits[2] 	2012
scalar tree_4_3_u03_r17_network.node[2].content_store 	misses[2] 	86391
scalar tree_4_3_u03_r17_network.node[2].content_store 	decision_yes[2] 	86386
scalar tree_4_3_u03_r17_network.node[2].content_store 	decision_no[2] 	0
scalar tree_4_3_u03_r17_network.node[2].content_store 	decision_ratio[2] 	1
scalar tree_4_3_u03_r17_network.node[3].core_layer 	interests[3] 	88752
scalar tree_4_3_u03_r17_network.node[3].core_layer 	data[3] 	86900
scalar tree_4_3_u03_r17_network.node[3].content_store 	p_hit[3] 	0.020833333333333
scalar tree_4_3_u03_r17_network.node[3].content_store 	hits[3] 	1849
scalar tree_4_3_u03_r17_network.node[3].content_store 	misses[3] 	86903
scalar tree_4_3_u03_r17_network.node[3].content_store 	decision_yes[3] 	86900
scalar tree_4_3_u03_r17_network.node[3].content_store 	decision_no[3] 	0
scalar tree_4_3_u03_r17_network.node[3].content_store 	decision_ratio[3] 	1
scalar tree_4_3_u03_r17_network.node[4].core_layer 	interests[4] 	51136
scalar tree_4_3_u03_r17_network.node[4].core_layer 	data[4] 	49444
scalar tree_4_3_u03_r17_network.node[4].content_store 	p_hit[4] 	0.032912234042553
scalar tree_4_3_u03_r17_network.node[4].content_store 	hits[4] 	1683
scalar tree_4_3_u03_r17_network.node[4].content_store 	misses[4] 	49453
scalar tree_4_3_u03_r17_network.node[4].content_store 	decision_yes[4] 	49444
scalar tree_4_3_u03_r17_network.node[4].content_store 	decision_no[4] 	0
scalar tree_4_3_u03_r17_network.node[4].content_store 	decision_ratio[4] 	1
scalar tree_4_3_u03_r17_network.node[5].core_layer 	interests[5] 	30519
scalar tree_4_3_u03_r17_network.node[5].core_layer 	data[5] 	29661
scalar tree_4_3_u03_r17_network.node[5].content_store 	p_hit[5] 	0.028080867656214
scalar tree_4_3_u03_r17_network.node[5].content_store 	hits[5] 	857
scalar tree_4_3_u03_r17_network.node[5].content_store 	misses[5] 	29662
scalar tree_4_3_u03_r17_network.node[5].content_store 	decision_yes[5] 	29661
scalar tree_4_3_u03_r17_network.node[5].content_store 	decision_no[5] 	0
scalar tree_4_3_u03_r17_network.node[5].content_store 	decision_ratio[5] 	1
scalar tree_4_3_u03_r17_network.node[6].core_layer 	interests[6] 	9938
scalar tree_4_3_u03_r17_network.node[6].core_layer 	data[6] 	9910
scalar tree_4_3_u03_r17_network.node[6].content_store 	p_hit[6] 	0.0028174683034816
scalar tree_4_3_u03_r17_network.node[6].content_store 	hits[6] 	28
scalar tree_4_3_u03_r17_network.node[6].content_store 	misses[6] 	9910
scalar tree_4_3_u03_r17_network.node[6].content_store 	decision_yes[6] 	9910
scalar tree_4_3_u03_r17_network.node[6].content_store 	decision_no[6] 	0
scalar tree_4_3_u03_r17_network.node[6].content_store 	decision_ratio[6] 	1
scalar tree_4_3_u03_r17_network.node[7].core_layer 	interests[7] 	30569
scalar tree_4_3_u03_r17_network.node[7].core_layer 	data[7] 	29618
scalar tree_4_3_u03_r17_network.node[7].content_store 	p_hit[7] 	0.031044522228401
scalar tree_4_3_u03_r17_network.node[7].content_store 	hits[7] 	949
scalar tree_4_3_u03_r17_network.node[7].content_store 	misses[7] 	29620
scalar tree_4_3_u03_r17_network.node[7].content_store 	decision_yes[7] 	29618
scalar tree_4_3_u03_r17_network.node[7].content_store 	decision_no[7] 	0
scalar tree_4_3_u03_r17_network.node[7].content_store 	decision_ratio[7] 	1
scalar tree_4_3_u03_r17_network.node[8].core_layer 	interests[8] 	30423
scalar tree_4_3_u03_r17_network.node[8].core_layer 	data[8] 	29512
scalar tree_4_3_u03_r17_network.node[8].content_store 	p_hit[8] 	0.029944449922756
scalar tree_4_3_u03_r17_network.node[8].content_store 	hits[8] 	911
scalar tree_4_3_u03_r17_network.node[8].content_store 	misses[8] 	29512
scalar tree_4_3_u03_r17_network.node[8].content_store 	decision_yes[8] 	29512
scalar tree_4_3_u03_r17_network.node[8].content_store 	decision_no[8] 	0
scalar tree_4_3_u03_r17_network.node[8].content_store 	decision_ratio[8] 	1
scalar tree_4_3_u03_r17_network.node[9].core_layer 	interests[9] 	30122
scalar tree_4_3_u03_r17_network.node[9].core_layer 	data[9] 	29273
scalar tree_4_3_u03_r17_network.node[9].content_store 	p_hit[9] 	0.028085784476462
scalar tree_4_3_u03_r17_network.node[9].content_store 	hits[9] 	846
scalar tree_4_3_u03_r17_network.node[9].content_store 	misses[9] 	29276
scalar tree_4_3_u03_r17_network.node[9].content_store 	decision_yes[9] 	29273
scalar tree_4_3_u03_r17_network.node[9].content_store 	decision_no[9] 	0
scalar tree_4_3_u03_r17_network.node[9].content_store 	decision_ratio[9] 	1
scalar tree_4_3_u03_r17_network.node[10].core_layer 	interests[10] 	50876
scalar tree_4_3_u03_r17_network.node[10].core_layer 	data[10] 	49124
scalar tree_4_3_u03_r17_network.node[10].content_store 	p_hit[10] 	0.03433839138297
scalar tree_4_3_u03_r17_network.node[10].content_store 	hits[10] 	1747
scalar tree_4_3_u03_r17_network.node[10].content_store 	misses[10] 	49129
scalar tree_4_3_u03_r17_network.node[10].content_store 	decision_yes[10] 	49124
scalar tree_4_3_u03_r17_network.node[10].content_store 	decision_no[10] 	0
scalar tree_4_3_u03_r17_network.node[10].content_store 	decision_ratio[10] 	1
scalar tree_4_3_u03_r17_network.node[11].core_layer 	interests[11] 	20193
scalar tree_4_3_u03_r17_network.node[11].core_layer 	data[11] 	19729
scalar tree_4_3_u03_r17_network.node[11].content_store 	p_hit[11] 	0.022978259792998
scalar tree_4_3_u03_r17_network.node[11].content_store 	hits[11] 	464
scalar tree_4_3_u03_r17_network.node[11].content_store 	misses[11] 	19729
scalar tree_4_3_u03_r17_network.node[11].content_store 	decision_yes[11] 	19729
scalar tree_4_3_u03_r17_network.node[11].content_store 	decision_no[11] 	0
scalar tree_4_3_u03_r17_network.node[11].content_store 	decision_ratio[11] 	1
scalar tree_4_3_u03_r17_network.node[12].core_layer 	interests[12] 	20333
scalar tree_4_3_u03_r17_network.node[12].core_layer 	data[12] 	19899
scalar tree_4_3_u03_r17_network.node[12].content_store 	p_hit[12] 	0.021295431072641
scalar tree_4_3_u03_r17_network.node[12].content_store 	hits[12] 	433
scalar tree_4_3_u03_r17_network.node[12].content_store 	misses[12] 	19900
scalar tree_4_3_u03_r17_network.node[12].content_store 	decision_yes[12] 	19899
scalar tree_4_3_u03_r17_network.node[12].content_store 	decision_no[12] 	0
scalar tree_4_3_u03_r17_network.node[12].content_store 	decision_ratio[12] 	1
scalar tree_4_3_u03_r17_network.node[13].core_layer 	interests[13] 	11879
scalar tree_4_3_u03_r17_network.node[13].core_layer 	data[13] 	10060
scalar tree_4_3_u03_r17_network.node[13].content_store 	p_hit[13] 	0.1529590032831
scalar tree_4_3_u03_r17_network.node[13].content_store 	hits[13] 	1817
scalar tree_4_3_u03_r17_network.node[13].content_store 	misses[13] 	10062
scalar tree_4_3_u03_r17_network.node[13].content_store 	decision_yes[13] 	10060
scalar tree_4_3_u03_r17_network.node[13].content_store 	decision_no[13] 	0
scalar tree_4_3_u03_r17_network.node[13].content_store 	decision_ratio[13] 	1
scalar tree_4_3_u03_r17_network.node[14].core_layer 	interests[14] 	12150
scalar tree_4_3_u03_r17_network.node[14].core_layer 	data[14] 	10258
scalar tree_4_3_u03_r17_network.node[14].content_store 	p_hit[14] 	0.15572016460905
scalar tree_4_3_u03_r17_network.node[14].content_store 	hits[14] 	1892
scalar tree_4_3_u03_r17_network.node[14].content_store 	misses[14] 	10258
scalar tree_4_3_u03_r17_network.node[14].content_store 	decision_yes[14] 	10258
scalar tree_4_3_u03_r17_network.node[14].content_store 	decision_no[14] 	0
scalar tree_4_3_u03_r17_network.node[14].content_store 	decision_ratio[14] 	1
scalar tree_4_3_u03_r17_network.node[15].core_layer 	interests[15] 	12292
scalar tree_4_3_u03_r17_network.node[15].core_layer 	data[15] 	10377
scalar tree_4_3_u03_r17_network.node[15].content_store 	p_hit[15] 	0.15579238529125
scalar tree_4_3_u03_r17_network.node[15].content_store 	hits[15] 	1915
scalar tree_4_3_u03_r17_network.node[15].content_store 	misses[15] 	10377
scalar tree_4_3_u03_r17_network.node[15].content_store 	decision_yes[15] 	10377
scalar tree_4_3_u03_r17_network.node[15].content_store 	decision_no[15] 	0
scalar tree_4_3_u03_r17_network.node[15].content_store 	decision_ratio[15] 	1
scalar tree_4_3_u03_r17_network.node[16].core_layer 	interests[16] 	12079
scalar tree_4_3_u03_r17_network.node[16].core_layer 	data[16] 	10219
scalar tree_4_3_u03_r17_network.node[16].content_store 	p_hit[16] 	0.15398625714049
scalar tree_4_3_u03_r17_network.node[16].content_store 	hits[16] 	1860
scalar tree_4_3_u03_r17_network.node[16].content_store 	misses[16] 	10219
scalar tree_4_3_u03_r17_network.node[16].content_store 	decision_yes[16] 	10219
scalar tree_4_3_u03_r17_network.node[16].content_store 	decision_no[16] 	0
scalar tree_4_3_u03_r17_network.node[16].content_store 	decision_ratio[16] 	1
scalar tree_4_3_u03_r17_network.node[17].core_layer 	interests[17] 	11938
scalar tree_4_3_u03_r17_network.node[17].core_layer 	data[17] 	10060
scalar tree_4_3_u03_r17_network.node[17].content_store 	p_hit[17] 	0.15731278271067
scalar tree_4_3_u03_r17_network.node[17].content_store 	hits[17] 	1878
scalar tree_4_3_u03_r17_network.node[17].content_store 	misses[17] 	10060
scalar tree_4_3_u03_r17_network.node[17].content_store 	decision_yes[17] 	10060
scalar tree_4_3_u03_r17_network.node[17].content_store 	decision_no[17] 	0
scalar tree_4_3_u03_r17_network.node[17].content_store 	decision_ratio[17] 	1
scalar tree_4_3_u03_r17_network.node[18].core_layer 	interests[18] 	12256
scalar tree_4_3_u03_r17_network.node[18].core_layer 	data[18] 	10380
scalar tree_4_3_u03_r17_network.node[18].content_store 	p_hit[18] 	0.15306788511749
scalar tree_4_3_u03_r17_network.node[18].content_store 	hits[18] 	1876
scalar tree_4_3_u03_r17_network.node[18].content_store 	misses[18] 	10380
scalar tree_4_3_u03_r17_network.node[18].content_store 	decision_yes[18] 	10380
scalar tree_4_3_u03_r17_network.node[18].content_store 	decision_no[18] 	0
scalar tree_4_3_u03_r17_network.node[18].content_store 	decision_ratio[18] 	1
scalar tree_4_3_u03_r17_network.node[19].core_layer 	interests[19] 	12113
scalar tree_4_3_u03_r17_network.node[19].core_layer 	data[19] 	10222
scalar tree_4_3_u03_r17_network.node[19].content_store 	p_hit[19] 	0.15611326673822
scalar tree_4_3_u03_r17_network.node[19].content_store 	hits[19] 	1891
scalar tree_4_3_u03_r17_network.node[19].content_store 	misses[19] 	10222
scalar tree_4_3_u03_r17_network.node[19].content_store 	decision_yes[19] 	10222
scalar tree_4_3_u03_r17_network.node[19].content_store 	decision_no[19] 	0
scalar tree_4_3_u03_r17_network.node[19].content_store 	decision_ratio[19] 	1
scalar tree_4_3_u03_r17_network.node[20].core_layer 	interests[20] 	11989
scalar tree_4_3_u03_r17_network.node[20].core_layer 	data[20] 	10079
scalar tree_4_3_u03_r17_network.node[20].content_store 	p_hit[20] 	0.15914588372675
scalar tree_4_3_u03_r17_network.node[20].content_store 	hits[20] 	1908
scalar tree_4_3_u03_r17_network.node[20].content_store 	misses[20] 	10081
scalar tree_4_3_u03_r17_network.node[20].content_store 	decision_yes[20] 	10079
scalar tree_4_3_u03_r17_network.node[20].content_store 	decision_no[20] 	0
scalar tree_4_3_u03_r17_network.node[20].content_store 	decision_ratio[20] 	1
scalar tree_4_3_u03_r17_network.node[21].core_layer 	interests[21] 	11911
scalar tree_4_3_u03_r17_network.node[21].core_layer 	data[21] 	9938
scalar tree_4_3_u03_r17_network.node[21].content_store 	p_hit[21] 	0.1656452019142
scalar tree_4_3_u03_r17_network.node[21].content_store 	hits[21] 	1973
scalar tree_4_3_u03_r17_network.node[21].content_store 	misses[21] 	9938
scalar tree_4_3_u03_r17_network.node[21].content_store 	decision_yes[21] 	9938
scalar tree_4_3_u03_r17_network.node[21].content_store 	decision_no[21] 	0
scalar tree_4_3_u03_r17_network.node[21].content_store 	decision_ratio[21] 	1
scalar tree_4_3_u03_r17_network.node[22].core_layer 	interests[22] 	12249
scalar tree_4_3_u03_r17_network.node[22].core_layer 	data[22] 	10394
scalar tree_4_3_u03_r17_network.node[22].content_store 	p_hit[22] 	0.1512776553188
scalar tree_4_3_u03_r17_network.node[22].content_store 	hits[22] 	1853
scalar tree_4_3_u03_r17_network.node[22].content_store 	misses[22] 	10396
scalar tree_4_3_u03_r17_network.node[22].content_store 	decision_yes[22] 	10394
scalar tree_4_3_u03_r17_network.node[22].content_store 	decision_no[22] 	0
scalar tree_4_3_u03_r17_network.node[22].content_store 	decision_ratio[22] 	1
scalar tree_4_3_u03_r17_network.node[23].core_layer 	interests[23] 	11950
scalar tree_4_3_u03_r17_network.node[23].core_layer 	data[23] 	10086
scalar tree_4_3_u03_r17_network.node[23].content_store 	p_hit[23] 	0.15598326359833
scalar tree_4_3_u03_r17_network.node[23].content_store 	hits[23] 	1864
scalar tree_4_3_u03_r17_network.node[23].content_store 	misses[23] 	10086
scalar tree_4_3_u03_r17_network.node[23].content_store 	decision_yes[23] 	10086
scalar tree_4_3_u03_r17_network.node[23].content_store 	decision_no[23] 	0
scalar tree_4_3_u03_r17_network.node[23].content_store 	decision_ratio[23] 	1
scalar tree_4_3_u03_r17_network.node[24].core_layer 	interests[24] 	12000
scalar tree_4_3_u03_r17_network.node[24].core_layer 	data[24] 	10089
scalar tree_4_3_u03_r17_network.node[24].content_store 	p_hit[24] 	0.15925
scalar tree_4_3_u03_r17_network.node[24].content_store 	hits[24] 	1911
scalar tree_4_3_u03_r17_network.node[24].content_store 	misses[24] 	10089
scalar tree_4_3_u03_r17_network.node[24].content_store 	decision_yes[24] 	10089
scalar tree_4_3_u03_r17_network.node[24].content_store 	decision_no[24] 	0
scalar tree_4_3_u03_r17_network.node[24].content_store 	decision_ratio[24] 	1
scalar tree_4_3_u03_r17_network.node[25].core_layer 	interests[25] 	12114
scalar tree_4_3_u03_r17_network.node[25].core_layer 	data[25] 	10213
scalar tree_4_3_u03_r17_network.node[25].content_store 	p_hit[25] 	0.15684332177646
scalar tree_4_3_u03_r17_network.node[25].content_store 	hits[25] 	1900
scalar tree_4_3_u03_r17_network.node[25].content_store 	misses[25] 	10214
scalar tree_4_3_u03_r17_network.node[25].content_store 	decision_yes[25] 	10213
scalar tree_4_3_u03_r17_network.node[25].content_store 	decision_no[25] 	0
scalar tree_4_3_u03_r17_network.node[25].content_store 	decision_ratio[25] 	1
scalar tree_4_3_u03_r17_network.node[26].core_layer 	interests[26] 	12011
scalar tree_4_3_u03_r17_network.node[26].core_layer 	data[26] 	10193
scalar tree_4_3_u03_r17_network.node[26].content_store 	p_hit[26] 	0.1513612521855
scalar tree_4_3_u03_r17_network.node[26].content_store 	hits[26] 	1818
scalar tree_4_3_u03_r17_network.node[26].content_store 	misses[26] 	10193
scalar tree_4_3_u03_r17_network.node[26].content_store 	decision_yes[26] 	10193
scalar tree_4_3_u03_r17_network.node[26].content_store 	decision_no[26] 	0
scalar tree_4_3_u03_r17_network.node[26].content_store 	decision_ratio[26] 	1
scalar tree_4_3_u03_r17_network.node[27].core_layer 	interests[27] 	11883
scalar tree_4_3_u03_r17_network.node[27].core_layer 	data[27] 	10017
scalar tree_4_3_u03_r17_network.node[27].content_store 	p_hit[27] 	0.15694689893125
scalar tree_4_3_u03_r17_network.node[27].content_store 	hits[27] 	1865
scalar tree_4_3_u03_r17_network.node[27].content_store 	misses[27] 	10018
scalar tree_4_3_u03_r17_network.node[27].content_store 	decision_yes[27] 	10017
scalar tree_4_3_u03_r17_network.node[27].content_store 	decision_no[27] 	0
scalar tree_4_3_u03_r17_network.node[27].content_store 	decision_ratio[27] 	1
scalar tree_4_3_u03_r17_network.node[28].core_layer 	interests[28] 	12013
scalar tree_4_3_u03_r17_network.node[28].core_layer 	data[28] 	10046
scalar tree_4_3_u03_r17_network.node[28].content_store 	p_hit[28] 	0.16365603929077
scalar tree_4_3_u03_r17_network.node[28].content_store 	hits[28] 	1966
scalar tree_4_3_u03_r17_network.node[28].content_store 	misses[28] 	10047
scalar tree_4_3_u03_r17_network.node[28].content_store 	decision_yes[28] 	10046
scalar tree_4_3_u03_r17_network.node[28].content_store 	decision_no[28] 	0
scalar tree_4_3_u03_r17_network.node[28].content_store 	decision_ratio[28] 	1
scalar tree_4_3_u03_r17_network.node[29].core_layer 	interests[29] 	11901
scalar tree_4_3_u03_r17_network.node[29].core_layer 	data[29] 	9957
scalar tree_4_3_u03_r17_network.node[29].content_store 	p_hit[29] 	0.16326359129485
scalar tree_4_3_u03_r17_network.node[29].content_store 	hits[29] 	1943
scalar tree_4_3_u03_r17_network.node[29].content_store 	misses[29] 	9958
scalar tree_4_3_u03_r17_network.node[29].content_store 	decision_yes[29] 	9957
scalar tree_4_3_u03_r17_network.node[29].content_store 	decision_no[29] 	0
scalar tree_4_3_u03_r17_network.node[29].content_store 	decision_ratio[29] 	1
scalar tree_4_3_u03_r17_network.node[30].core_layer 	interests[30] 	11983
scalar tree_4_3_u03_r17_network.node[30].core_layer 	data[30] 	10119
scalar tree_4_3_u03_r17_network.node[30].content_store 	p_hit[30] 	0.15547024952015
scalar tree_4_3_u03_r17_network.node[30].content_store 	hits[30] 	1863
scalar tree_4_3_u03_r17_network.node[30].content_store 	misses[30] 	10120
scalar tree_4_3_u03_r17_network.node[30].content_store 	decision_yes[30] 	10119
scalar tree_4_3_u03_r17_network.node[30].content_store 	decision_no[30] 	0
scalar tree_4_3_u03_r17_network.node[30].content_store 	decision_ratio[30] 	1
scalar tree_4_3_u03_r17_network.node[31].core_layer 	interests[31] 	12034
scalar tree_4_3_u03_r17_network.node[31].core_layer 	data[31] 	10195
scalar tree_4_3_u03_r17_network.node[31].content_store 	p_hit[31] 	0.15281701844773
scalar tree_4_3_u03_r17_network.node[31].content_store 	hits[31] 	1839
scalar tree_4_3_u03_r17_network.node[31].content_store 	misses[31] 	10195
scalar tree_4_3_u03_r17_network.node[31].content_store 	decision_yes[31] 	10195
scalar tree_4_3_u03_r17_network.node[31].content_store 	decision_no[31] 	0
scalar tree_4_3_u03_r17_network.node[31].content_store 	decision_ratio[31] 	1
scalar tree_4_3_u03_r17_network.node[32].core_layer 	interests[32] 	12219
scalar tree_4_3_u03_r17_network.node[32].core_layer 	data[32] 	10366
scalar tree_4_3_u03_r17_network.node[32].content_store 	p_hit[32] 	0.15148539160324
scalar tree_4_3_u03_r17_network.node[32].content_store 	hits[32] 	1851
scalar tree_4_3_u03_r17_network.node[32].content_store 	misses[32] 	10368
scalar tree_4_3_u03_r17_network.node[32].content_store 	decision_yes[32] 	10366
scalar tree_4_3_u03_r17_network.node[32].content_store 	decision_no[32] 	0
scalar tree_4_3_u03_r17_network.node[32].content_store 	decision_ratio[32] 	1
scalar tree_4_3_u03_r17_network.node[33].core_layer 	interests[33] 	11871
scalar tree_4_3_u03_r17_network.node[33].core_layer 	data[33] 	9989
scalar tree_4_3_u03_r17_network.node[33].content_store 	p_hit[33] 	0.15853761266953
scalar tree_4_3_u03_r17_network.node[33].content_store 	hits[33] 	1882
scalar tree_4_3_u03_r17_network.node[33].content_store 	misses[33] 	9989
scalar tree_4_3_u03_r17_network.node[33].content_store 	decision_yes[33] 	9989
scalar tree_4_3_u03_r17_network.node[33].content_store 	decision_no[33] 	0
scalar tree_4_3_u03_r17_network.node[33].content_store 	decision_ratio[33] 	1
scalar tree_4_3_u03_r17_network.node[34].core_layer 	interests[34] 	11918
scalar tree_4_3_u03_r17_network.node[34].core_layer 	data[34] 	10045
scalar tree_4_3_u03_r17_network.node[34].content_store 	p_hit[34] 	0.15715724114784
scalar tree_4_3_u03_r17_network.node[34].content_store 	hits[34] 	1873
scalar tree_4_3_u03_r17_network.node[34].content_store 	misses[34] 	10045
scalar tree_4_3_u03_r17_network.node[34].content_store 	decision_yes[34] 	10045
scalar tree_4_3_u03_r17_network.node[34].content_store 	decision_no[34] 	0
scalar tree_4_3_u03_r17_network.node[34].content_store 	decision_ratio[34] 	1
scalar tree_4_3_u03_r17_network.node[35].core_layer 	interests[35] 	12000
scalar tree_4_3_u03_r17_network.node[35].core_layer 	data[35] 	10096
scalar tree_4_3_u03_r17_network.node[35].content_store 	p_hit[35] 	0.15858333333333
scalar tree_4_3_u03_r17_network.node[35].content_store 	hits[35] 	1903
scalar tree_4_3_u03_r17_network.node[35].content_store 	misses[35] 	10097
scalar tree_4_3_u03_r17_network.node[35].content_store 	decision_yes[35] 	10096
scalar tree_4_3_u03_r17_network.node[35].content_store 	decision_no[35] 	0
scalar tree_4_3_u03_r17_network.node[35].content_store 	decision_ratio[35] 	1
scalar tree_4_3_u03_r17_network.node[36].core_layer 	interests[36] 	12041
scalar tree_4_3_u03_r17_network.node[36].core_layer 	data[36] 	10097
scalar tree_4_3_u03_r17_network.node[36].content_store 	p_hit[36] 	0.16144838468566
scalar tree_4_3_u03_r17_network.node[36].content_store 	hits[36] 	1944
scalar tree_4_3_u03_r17_network.node[36].content_store 	misses[36] 	10097
scalar tree_4_3_u03_r17_network.node[36].content_store 	decision_yes[36] 	10097
scalar tree_4_3_u03_r17_network.node[36].content_store 	decision_no[36] 	0
scalar tree_4_3_u03_r17_network.node[36].content_store 	decision_ratio[36] 	1
scalar tree_4_3_u03_r17_network.node[37].core_layer 	interests[37] 	12154
scalar tree_4_3_u03_r17_network.node[37].core_layer 	data[37] 	10280
scalar tree_4_3_u03_r17_network.node[37].content_store 	p_hit[37] 	0.15402336679283
scalar tree_4_3_u03_r17_network.node[37].content_store 	hits[37] 	1872
scalar tree_4_3_u03_r17_network.node[37].content_store 	misses[37] 	10282
scalar tree_4_3_u03_r17_network.node[37].content_store 	decision_yes[37] 	10280
scalar tree_4_3_u03_r17_network.node[37].content_store 	decision_no[37] 	0
scalar tree_4_3_u03_r17_network.node[37].content_store 	decision_ratio[37] 	1
scalar tree_4_3_u03_r17_network.node[38].core_layer 	interests[38] 	12040
scalar tree_4_3_u03_r17_network.node[38].core_layer 	data[38] 	10143
scalar tree_4_3_u03_r17_network.node[38].content_store 	p_hit[38] 	0.15755813953488
scalar tree_4_3_u03_r17_network.node[38].content_store 	hits[38] 	1897
scalar tree_4_3_u03_r17_network.node[38].content_store 	misses[38] 	10143
scalar tree_4_3_u03_r17_network.node[38].content_store 	decision_yes[38] 	10143
scalar tree_4_3_u03_r17_network.node[38].content_store 	decision_no[38] 	0
scalar tree_4_3_u03_r17_network.node[38].content_store 	decision_ratio[38] 	1
scalar tree_4_3_u03_r17_network.node[39].core_layer 	interests[39] 	12003
scalar tree_4_3_u03_r17_network.node[39].core_layer 	data[39] 	10189
scalar tree_4_3_u03_r17_network.node[39].content_store 	p_hit[39] 	0.15096225943514
scalar tree_4_3_u03_r17_network.node[39].content_store 	hits[39] 	1812
scalar tree_4_3_u03_r17_network.node[39].content_store 	misses[39] 	10191
scalar tree_4_3_u03_r17_network.node[39].content_store 	decision_yes[39] 	10189
scalar tree_4_3_u03_r17_network.node[39].content_store 	decision_no[39] 	0
scalar tree_4_3_u03_r17_network.node[39].content_store 	decision_ratio[39] 	1
scalar tree_4_3_u03_r17_network.client[13] 	hdistance[13] 	3.2683337543151
scalar tree_4_3_u03_r17_network.client[13] 	downloads[13] 	11877
scalar tree_4_3_u03_r17_network.client[13] 	avg_time[13] 	0.004950446671
scalar tree_4_3_u03_r17_network.client[14] 	hdistance[14] 	3.2565432098766
scalar tree_4_3_u03_r17_network.client[14] 	downloads[14] 	12150
scalar tree_4_3_u03_r17_network.client[14] 	avg_time[14] 	0.004931307009
scalar tree_4_3_u03_r17_network.client[15] 	hdistance[15] 	3.25366091767
scalar tree_4_3_u03_r17_network.client[15] 	downloads[15] 	12292
scalar tree_4_3_u03_r17_network.client[15] 	avg_time[15] 	0.004930677319
scalar tree_4_3_u03_r17_network.client[16] 	hdistance[16] 	3.2562298203494
scalar tree_4_3_u03_r17_network.client[16] 	downloads[16] 	12079
scalar tree_4_3_u03_r17_network.client[16] 	avg_time[16] 	0.004935938938
scalar tree_4_3_u03_r17_network.client[17] 	hdistance[17] 	3.2404087786899
scalar tree_4_3_u03_r17_network.client[17] 	downloads[17] 	11938
scalar tree_4_3_u03_r17_network.client[17] 	avg_time[17] 	0.004918158572
scalar tree_4_3_u03_r17_network.client[18] 	hdistance[18] 	3.2644419060052
scalar tree_4_3_u03_r17_network.client[18] 	downloads[18] 	12256
scalar tree_4_3_u03_r17_network.client[18] 	avg_time[18] 	0.004948267158
scalar tree_4_3_u03_r17_network.client[19] 	hdistance[19] 	3.2450260051185
scalar tree_4_3_u03_r17_network.client[19] 	downloads[19] 	12113
scalar tree_4_3_u03_r17_network.client[19] 	avg_time[19] 	0.00491760184
scalar tree_4_3_u03_r17_network.client[20] 	hdistance[20] 	3.2405105530992
scalar tree_4_3_u03_r17_network.client[20] 	downloads[20] 	11987
scalar tree_4_3_u03_r17_network.client[20] 	avg_time[20] 	0.004915005676
scalar tree_4_3_u03_r17_network.client[21] 	hdistance[21] 	3.2621946100243
scalar tree_4_3_u03_r17_network.client[21] 	downloads[21] 	11911
scalar tree_4_3_u03_r17_network.client[21] 	avg_time[21] 	0.004945509582
scalar tree_4_3_u03_r17_network.client[22] 	hdistance[22] 	3.2652078059933
scalar tree_4_3_u03_r17_network.client[22] 	downloads[22] 	12247
scalar tree_4_3_u03_r17_network.client[22] 	avg_time[22] 	0.00495233813
scalar tree_4_3_u03_r17_network.client[23] 	hdistance[23] 	3.2396652719665
scalar tree_4_3_u03_r17_network.client[23] 	downloads[23] 	11950
scalar tree_4_3_u03_r17_network.client[23] 	avg_time[23] 	0.00491801172
scalar tree_4_3_u03_r17_network.client[24] 	hdistance[24] 	3.2326666666667
scalar tree_4_3_u03_r17_network.client[24] 	downloads[24] 	12000
scalar tree_4_3_u03_r17_network.client[24] 	avg_time[24] 	0.00490233034
scalar tree_4_3_u03_r17_network.client[25] 	hdistance[25] 	3.2473375712045
scalar tree_4_3_u03_r17_network.client[25] 	downloads[25] 	12113
scalar tree_4_3_u03_r17_network.client[25] 	avg_time[25] 	0.004923858135
scalar tree_4_3_u03_r17_network.client[26] 	hdistance[26] 	3.2645075347598
scalar tree_4_3_u03_r17_network.client[26] 	downloads[26] 	12011
scalar tree_4_3_u03_r17_network.client[26] 	avg_time[26] 	0.004951910983
scalar tree_4_3_u03_r17_network.client[27] 	hdistance[27] 	3.2409527015654
scalar tree_4_3_u03_r17_network.client[27] 	downloads[27] 	11882
scalar tree_4_3_u03_r17_network.client[27] 	avg_time[27] 	0.004915321639
scalar tree_4_3_u03_r17_network.client[28] 	hdistance[28] 	3.2271894771895
scalar tree_4_3_u03_r17_network.client[28] 	downloads[28] 	12012
scalar tree_4_3_u03_r17_network.client[28] 	avg_time[28] 	0.00489381091
scalar tree_4_3_u03_r17_network.client[29] 	hdistance[29] 	3.2221008403361
scalar tree_4_3_u03_r17_network.client[29] 	downloads[29] 	11900
scalar tree_4_3_u03_r17_network.client[29] 	avg_time[29] 	0.004884488244
scalar tree_4_3_u03_r17_network.client[30] 	hdistance[30] 	3.2523785678518
scalar tree_4_3_u03_r17_network.client[30] 	downloads[30] 	11982
scalar tree_4_3_u03_r17_network.client[30] 	avg_time[30] 	0.004934587121
scalar tree_4_3_u03_r17_network.client[31] 	hdistance[31] 	3.2676583014791
scalar tree_4_3_u03_r17_network.client[31] 	downloads[31] 	12034
scalar tree_4_3_u03_r17_network.client[31] 	avg_time[31] 	0.004948111988
scalar tree_4_3_u03_r17_network.client[32] 	hdistance[32] 	3.2687239093067
scalar tree_4_3_u03_r17_network.client[32] 	downloads[32] 	12217
scalar tree_4_3_u03_r17_network.client[32] 	avg_time[32] 	0.004952092449
scalar tree_4_3_u03_r17_network.client[33] 	hdistance[33] 	3.2362901187768
scalar tree_4_3_u03_r17_network.client[33] 	downloads[33] 	11871
scalar tree_4_3_u03_r17_network.client[33] 	avg_time[33] 	0.00490587764
scalar tree_4_3_u03_r17_network.client[34] 	hdistance[34] 	3.2446719248196
scalar tree_4_3_u03_r17_network.client[34] 	downloads[34] 	11918
scalar tree_4_3_u03_r17_network.client[34] 	avg_time[34] 	0.004917768482
scalar tree_4_3_u03_r17_network.client[35] 	hdistance[35] 	3.2461871822652
scalar tree_4_3_u03_r17_network.client[35] 	downloads[35] 	11999
scalar tree_4_3_u03_r17_network.client[35] 	avg_time[35] 	0.004924371921
scalar tree_4_3_u03_r17_network.client[36] 	hdistance[36] 	3.2370235030313
scalar tree_4_3_u03_r17_network.client[36] 	downloads[36] 	12041
scalar tree_4_3_u03_r17_network.client[36] 	avg_time[36] 	0.004911811355
scalar tree_4_3_u03_r17_network.client[37] 	hdistance[37] 	3.2513989466754
scalar tree_4_3_u03_r17_network.client[37] 	downloads[37] 	12152
scalar tree_4_3_u03_r17_network.client[37] 	avg_time[37] 	0.004926674675
scalar tree_4_3_u03_r17_network.client[38] 	hdistance[38] 	3.2524086378738
scalar tree_4_3_u03_r17_network.client[38] 	downloads[38] 	12040
scalar tree_4_3_u03_r17_network.client[38] 	avg_time[38] 	0.004935379062
scalar tree_4_3_u03_r17_network.client[39] 	hdistance[39] 	3.2800599950004
scalar tree_4_3_u03_r17_network.client[39] 	downloads[39] 	12001
scalar tree_4_3_u03_r17_network.client[39] 	avg_time[39] 	0.004973271369
