version 2
run General-77-20160820-15:02:10-2644
attr a 0.9
attr cd lce
attr configname General
attr cr lru
attr datetime 20160820-15:02:10
attr experiment General
attr fsize 1
attr inifile hw5115/scenario_A/SPR-LCE.ini
attr iterationvars "$name=tree_4_3, $un=03, $rep=18, $cd=lce, $cr=lru, $fsize=1, $a=0.9, $sl=spr, $ttl=1000, $variance=0.05"
attr iterationvars2 "$name=tree_4_3, $un=03, $rep=18, $cd=lce, $cr=lru, $fsize=1, $a=0.9, $sl=spr, $ttl=1000, $variance=0.05, $repetition=0"
attr measurement "$name=tree_4_3, $un=03, $rep=18, $cd=lce, $cr=lru, $fsize=1, $a=0.9, $sl=spr, $ttl=1000, $variance=0.05"
attr name tree_4_3
attr network networks.${name}_u${un}_r${rep}_network
attr processid 2644
attr rep 18
attr repetition 0
attr replication #0
attr resultdir results
attr runnumber 77
attr seedset 18
attr sl spr
attr ttl 1000
attr un 03
attr variance 0.05

scalar . 	a 	0.9
scalar . 	fsize 	1
scalar . 	rep 	18
scalar . 	ttl 	1000
scalar . 	un 	03
scalar . 	variance 	0.05
scalar tree_4_3_u03_r18_network.content_distribution 	repo-0 	0
scalar tree_4_3_u03_r18_network.content_distribution 	client-0 	13
scalar tree_4_3_u03_r18_network.content_distribution 	client-1 	14
scalar tree_4_3_u03_r18_network.content_distribution 	client-2 	15
scalar tree_4_3_u03_r18_network.content_distribution 	client-3 	16
scalar tree_4_3_u03_r18_network.content_distribution 	client-4 	17
scalar tree_4_3_u03_r18_network.content_distribution 	client-5 	18
scalar tree_4_3_u03_r18_network.content_distribution 	client-6 	19
scalar tree_4_3_u03_r18_network.content_distribution 	client-7 	20
scalar tree_4_3_u03_r18_network.content_distribution 	client-8 	21
scalar tree_4_3_u03_r18_network.content_distribution 	client-9 	22
scalar tree_4_3_u03_r18_network.content_distribution 	client-10 	23
scalar tree_4_3_u03_r18_network.content_distribution 	client-11 	24
scalar tree_4_3_u03_r18_network.content_distribution 	client-12 	25
scalar tree_4_3_u03_r18_network.content_distribution 	client-13 	26
scalar tree_4_3_u03_r18_network.content_distribution 	client-14 	27
scalar tree_4_3_u03_r18_network.content_distribution 	client-15 	28
scalar tree_4_3_u03_r18_network.content_distribution 	client-16 	29
scalar tree_4_3_u03_r18_network.content_distribution 	client-17 	30
scalar tree_4_3_u03_r18_network.content_distribution 	client-18 	31
scalar tree_4_3_u03_r18_network.content_distribution 	client-19 	32
scalar tree_4_3_u03_r18_network.content_distribution 	client-20 	33
scalar tree_4_3_u03_r18_network.content_distribution 	client-21 	34
scalar tree_4_3_u03_r18_network.content_distribution 	client-22 	35
scalar tree_4_3_u03_r18_network.content_distribution 	client-23 	36
scalar tree_4_3_u03_r18_network.content_distribution 	client-24 	37
scalar tree_4_3_u03_r18_network.content_distribution 	client-25 	38
scalar tree_4_3_u03_r18_network.content_distribution 	client-26 	39
scalar tree_4_3_u03_r18_network.content_distribution 	repo-0_card 	100000
scalar tree_4_3_u03_r18_network.content_distribution 	repo-0_price 	0
scalar tree_4_3_u03_r18_network.statistics 	stabilization_time 	633.8
scalar tree_4_3_u03_r18_network.statistics 	p_hit 	0.11343920436556
scalar tree_4_3_u03_r18_network.statistics 	interests 	28108.05
scalar tree_4_3_u03_r18_network.statistics 	data 	19999.025
scalar tree_4_3_u03_r18_network.statistics 	hdistance 	3.2542234151849
scalar tree_4_3_u03_r18_network.statistics 	avg_time 	0.004932811069
scalar tree_4_3_u03_r18_network.statistics 	downloads 	324334
scalar tree_4_3_u03_r18_network.statistics 	total_cost 	0
scalar tree_4_3_u03_r18_network.statistics 	total_replicas 	100000
scalar tree_4_3_u03_r18_network.statistics 	inner_hit 	0.21235208149624
scalar tree_4_3_u03_r18_network.node[0].core_layer 	interests[0] 	260266
scalar tree_4_3_u03_r18_network.node[0].core_layer 	repo_load[0] 	255461
scalar tree_4_3_u03_r18_network.node[0].core_layer 	data[0] 	0
scalar tree_4_3_u03_r18_network.node[0].core_layer 	repo_int[0] 	255461
scalar tree_4_3_u03_r18_network.node[0].content_store 	p_hit[0] 	0.018461881306048
scalar tree_4_3_u03_r18_network.node[0].content_store 	hits[0] 	4805
scalar tree_4_3_u03_r18_network.node[0].content_store 	misses[0] 	255461
scalar tree_4_3_u03_r18_network.node[0].content_store 	decision_yes[0] 	255461
scalar tree_4_3_u03_r18_network.node[0].content_store 	decision_no[0] 	0
scalar tree_4_3_u03_r18_network.node[0].content_store 	decision_ratio[0] 	1
scalar tree_4_3_u03_r18_network.node[1].core_layer 	interests[1] 	118257
scalar tree_4_3_u03_r18_network.node[1].core_layer 	data[1] 	115358
scalar tree_4_3_u03_r18_network.node[1].content_store 	p_hit[1] 	0.024446755794583
scalar tree_4_3_u03_r18_network.node[1].content_store 	hits[1] 	2891
scalar tree_4_3_u03_r18_network.node[1].content_store 	misses[1] 	115366
scalar tree_4_3_u03_r18_network.node[1].content_store 	decision_yes[1] 	115358
scalar tree_4_3_u03_r18_network.node[1].content_store 	decision_no[1] 	0
scalar tree_4_3_u03_r18_network.node[1].content_store 	decision_ratio[1] 	1
scalar tree_4_3_u03_r18_network.node[2].core_layer 	interests[2] 	59019
scalar tree_4_3_u03_r18_network.node[2].core_layer 	data[2] 	57982
scalar tree_4_3_u03_r18_network.node[2].content_store 	p_hit[2] 	0.017519781765194
scalar tree_4_3_u03_r18_network.node[2].content_store 	hits[2] 	1034
scalar tree_4_3_u03_r18_network.node[2].content_store 	misses[2] 	57985
scalar tree_4_3_u03_r18_network.node[2].content_store 	decision_yes[2] 	57982
scalar tree_4_3_u03_r18_network.node[2].content_store 	decision_no[2] 	0
scalar tree_4_3_u03_r18_network.node[2].content_store 	decision_ratio[2] 	1
scalar tree_4_3_u03_r18_network.node[3].core_layer 	interests[3] 	88681
scalar tree_4_3_u03_r18_network.node[3].core_layer 	data[3] 	86926
scalar tree_4_3_u03_r18_network.node[3].content_store 	p_hit[3] 	0.019722375706183
scalar tree_4_3_u03_r18_network.node[3].content_store 	hits[3] 	1749
scalar tree_4_3_u03_r18_network.node[3].content_store 	misses[3] 	86932
scalar tree_4_3_u03_r18_network.node[3].content_store 	decision_yes[3] 	86926
scalar tree_4_3_u03_r18_network.node[3].content_store 	decision_no[3] 	0
scalar tree_4_3_u03_r18_network.node[3].content_store 	decision_ratio[3] 	1
scalar tree_4_3_u03_r18_network.node[4].core_layer 	interests[4] 	40692
scalar tree_4_3_u03_r18_network.node[4].core_layer 	data[4] 	39376
scalar tree_4_3_u03_r18_network.node[4].content_store 	p_hit[4] 	0.032340509190996
scalar tree_4_3_u03_r18_network.node[4].content_store 	hits[4] 	1316
scalar tree_4_3_u03_r18_network.node[4].content_store 	misses[4] 	39376
scalar tree_4_3_u03_r18_network.node[4].content_store 	decision_yes[4] 	39376
scalar tree_4_3_u03_r18_network.node[4].content_store 	decision_no[4] 	0
scalar tree_4_3_u03_r18_network.node[4].content_store 	decision_ratio[4] 	1
scalar tree_4_3_u03_r18_network.node[5].core_layer 	interests[5] 	30419
scalar tree_4_3_u03_r18_network.node[5].core_layer 	data[5] 	29583
scalar tree_4_3_u03_r18_network.node[5].content_store 	p_hit[5] 	0.027449949045005
scalar tree_4_3_u03_r18_network.node[5].content_store 	hits[5] 	835
scalar tree_4_3_u03_r18_network.node[5].content_store 	misses[5] 	29584
scalar tree_4_3_u03_r18_network.node[5].content_store 	decision_yes[5] 	29583
scalar tree_4_3_u03_r18_network.node[5].content_store 	decision_no[5] 	0
scalar tree_4_3_u03_r18_network.node[5].content_store 	decision_ratio[5] 	1
scalar tree_4_3_u03_r18_network.node[6].core_layer 	interests[6] 	20039
scalar tree_4_3_u03_r18_network.node[6].core_layer 	data[6] 	19607
scalar tree_4_3_u03_r18_network.node[6].content_store 	p_hit[6] 	0.021508059284395
scalar tree_4_3_u03_r18_network.node[6].content_store 	hits[6] 	431
scalar tree_4_3_u03_r18_network.node[6].content_store 	misses[6] 	19608
scalar tree_4_3_u03_r18_network.node[6].content_store 	decision_yes[6] 	19607
scalar tree_4_3_u03_r18_network.node[6].content_store 	decision_no[6] 	0
scalar tree_4_3_u03_r18_network.node[6].content_store 	decision_ratio[6] 	1
scalar tree_4_3_u03_r18_network.node[7].core_layer 	interests[7] 	30569
scalar tree_4_3_u03_r18_network.node[7].core_layer 	data[7] 	29691
scalar tree_4_3_u03_r18_network.node[7].content_store 	p_hit[7] 	0.028656482056986
scalar tree_4_3_u03_r18_network.node[7].content_store 	hits[7] 	876
scalar tree_4_3_u03_r18_network.node[7].content_store 	misses[7] 	29693
scalar tree_4_3_u03_r18_network.node[7].content_store 	decision_yes[7] 	29691
scalar tree_4_3_u03_r18_network.node[7].content_store 	decision_no[7] 	0
scalar tree_4_3_u03_r18_network.node[7].content_store 	decision_ratio[7] 	1
scalar tree_4_3_u03_r18_network.node[8].core_layer 	interests[8] 	30279
scalar tree_4_3_u03_r18_network.node[8].core_layer 	data[8] 	29453
scalar tree_4_3_u03_r18_network.node[8].content_store 	p_hit[8] 	0.027246606559001
scalar tree_4_3_u03_r18_network.node[8].content_store 	hits[8] 	825
scalar tree_4_3_u03_r18_network.node[8].content_store 	misses[8] 	29454
scalar tree_4_3_u03_r18_network.node[8].content_store 	decision_yes[8] 	29453
scalar tree_4_3_u03_r18_network.node[8].content_store 	decision_no[8] 	0
scalar tree_4_3_u03_r18_network.node[8].content_store 	decision_ratio[8] 	1
scalar tree_4_3_u03_r18_network.node[9].core_layer 	interests[9] 	30437
scalar tree_4_3_u03_r18_network.node[9].core_layer 	data[9] 	29566
scalar tree_4_3_u03_r18_network.node[9].content_store 	p_hit[9] 	0.028550777014817
scalar tree_4_3_u03_r18_network.node[9].content_store 	hits[9] 	869
scalar tree_4_3_u03_r18_network.node[9].content_store 	misses[9] 	29568
scalar tree_4_3_u03_r18_network.node[9].content_store 	decision_yes[9] 	29566
scalar tree_4_3_u03_r18_network.node[9].content_store 	decision_no[9] 	0
scalar tree_4_3_u03_r18_network.node[9].content_store 	decision_ratio[9] 	1
scalar tree_4_3_u03_r18_network.node[10].core_layer 	interests[10] 	50582
scalar tree_4_3_u03_r18_network.node[10].core_layer 	data[10] 	48905
scalar tree_4_3_u03_r18_network.node[10].content_store 	p_hit[10] 	0.033075006919458
scalar tree_4_3_u03_r18_network.node[10].content_store 	hits[10] 	1673
scalar tree_4_3_u03_r18_network.node[10].content_store 	misses[10] 	48909
scalar tree_4_3_u03_r18_network.node[10].content_store 	decision_yes[10] 	48905
scalar tree_4_3_u03_r18_network.node[10].content_store 	decision_no[10] 	0
scalar tree_4_3_u03_r18_network.node[10].content_store 	decision_ratio[10] 	1
scalar tree_4_3_u03_r18_network.node[11].core_layer 	interests[11] 	20509
scalar tree_4_3_u03_r18_network.node[11].core_layer 	data[11] 	20031
scalar tree_4_3_u03_r18_network.node[11].content_store 	p_hit[11] 	0.023306840899117
scalar tree_4_3_u03_r18_network.node[11].content_store 	hits[11] 	478
scalar tree_4_3_u03_r18_network.node[11].content_store 	misses[11] 	20031
scalar tree_4_3_u03_r18_network.node[11].content_store 	decision_yes[11] 	20031
scalar tree_4_3_u03_r18_network.node[11].content_store 	decision_no[11] 	0
scalar tree_4_3_u03_r18_network.node[11].content_store 	decision_ratio[11] 	1
scalar tree_4_3_u03_r18_network.node[12].core_layer 	interests[12] 	20217
scalar tree_4_3_u03_r18_network.node[12].core_layer 	data[12] 	19744
scalar tree_4_3_u03_r18_network.node[12].content_store 	p_hit[12] 	0.023396151753475
scalar tree_4_3_u03_r18_network.node[12].content_store 	hits[12] 	473
scalar tree_4_3_u03_r18_network.node[12].content_store 	misses[12] 	19744
scalar tree_4_3_u03_r18_network.node[12].content_store 	decision_yes[12] 	19744
scalar tree_4_3_u03_r18_network.node[12].content_store 	decision_no[12] 	0
scalar tree_4_3_u03_r18_network.node[12].content_store 	decision_ratio[12] 	1
scalar tree_4_3_u03_r18_network.node[13].core_layer 	interests[13] 	12007
scalar tree_4_3_u03_r18_network.node[13].core_layer 	data[13] 	10157
scalar tree_4_3_u03_r18_network.node[13].content_store 	p_hit[13] 	0.15416007329058
scalar tree_4_3_u03_r18_network.node[13].content_store 	hits[13] 	1851
scalar tree_4_3_u03_r18_network.node[13].content_store 	misses[13] 	10156
scalar tree_4_3_u03_r18_network.node[13].content_store 	decision_yes[13] 	10157
scalar tree_4_3_u03_r18_network.node[13].content_store 	decision_no[13] 	0
scalar tree_4_3_u03_r18_network.node[13].content_store 	decision_ratio[13] 	1
scalar tree_4_3_u03_r18_network.node[14].core_layer 	interests[14] 	11979
scalar tree_4_3_u03_r18_network.node[14].core_layer 	data[14] 	10072
scalar tree_4_3_u03_r18_network.node[14].content_store 	p_hit[14] 	0.15911177894649
scalar tree_4_3_u03_r18_network.node[14].content_store 	hits[14] 	1906
scalar tree_4_3_u03_r18_network.node[14].content_store 	misses[14] 	10073
scalar tree_4_3_u03_r18_network.node[14].content_store 	decision_yes[14] 	10072
scalar tree_4_3_u03_r18_network.node[14].content_store 	decision_no[14] 	0
scalar tree_4_3_u03_r18_network.node[14].content_store 	decision_ratio[14] 	1
scalar tree_4_3_u03_r18_network.node[15].core_layer 	interests[15] 	12121
scalar tree_4_3_u03_r18_network.node[15].core_layer 	data[15] 	10289
scalar tree_4_3_u03_r18_network.node[15].content_store 	p_hit[15] 	0.15106014355251
scalar tree_4_3_u03_r18_network.node[15].content_store 	hits[15] 	1831
scalar tree_4_3_u03_r18_network.node[15].content_store 	misses[15] 	10290
scalar tree_4_3_u03_r18_network.node[15].content_store 	decision_yes[15] 	10289
scalar tree_4_3_u03_r18_network.node[15].content_store 	decision_no[15] 	0
scalar tree_4_3_u03_r18_network.node[15].content_store 	decision_ratio[15] 	1
scalar tree_4_3_u03_r18_network.node[16].core_layer 	interests[16] 	12044
scalar tree_4_3_u03_r18_network.node[16].core_layer 	data[16] 	10175
scalar tree_4_3_u03_r18_network.node[16].content_store 	p_hit[16] 	0.15518100298904
scalar tree_4_3_u03_r18_network.node[16].content_store 	hits[16] 	1869
scalar tree_4_3_u03_r18_network.node[16].content_store 	misses[16] 	10175
scalar tree_4_3_u03_r18_network.node[16].content_store 	decision_yes[16] 	10175
scalar tree_4_3_u03_r18_network.node[16].content_store 	decision_no[16] 	0
scalar tree_4_3_u03_r18_network.node[16].content_store 	decision_ratio[16] 	1
scalar tree_4_3_u03_r18_network.node[17].core_layer 	interests[17] 	12077
scalar tree_4_3_u03_r18_network.node[17].core_layer 	data[17] 	10228
scalar tree_4_3_u03_r18_network.node[17].content_store 	p_hit[17] 	0.15310093566283
scalar tree_4_3_u03_r18_network.node[17].content_store 	hits[17] 	1849
scalar tree_4_3_u03_r18_network.node[17].content_store 	misses[17] 	10228
scalar tree_4_3_u03_r18_network.node[17].content_store 	decision_yes[17] 	10228
scalar tree_4_3_u03_r18_network.node[17].content_store 	decision_no[17] 	0
scalar tree_4_3_u03_r18_network.node[17].content_store 	decision_ratio[17] 	1
scalar tree_4_3_u03_r18_network.node[18].core_layer 	interests[18] 	12115
scalar tree_4_3_u03_r18_network.node[18].core_layer 	data[18] 	10173
scalar tree_4_3_u03_r18_network.node[18].content_store 	p_hit[18] 	0.16029715229055
scalar tree_4_3_u03_r18_network.node[18].content_store 	hits[18] 	1942
scalar tree_4_3_u03_r18_network.node[18].content_store 	misses[18] 	10173
scalar tree_4_3_u03_r18_network.node[18].content_store 	decision_yes[18] 	10173
scalar tree_4_3_u03_r18_network.node[18].content_store 	decision_no[18] 	0
scalar tree_4_3_u03_r18_network.node[18].content_store 	decision_ratio[18] 	1
scalar tree_4_3_u03_r18_network.node[19].core_layer 	interests[19] 	11931
scalar tree_4_3_u03_r18_network.node[19].core_layer 	data[19] 	10093
scalar tree_4_3_u03_r18_network.node[19].content_store 	p_hit[19] 	0.15396865308859
scalar tree_4_3_u03_r18_network.node[19].content_store 	hits[19] 	1837
scalar tree_4_3_u03_r18_network.node[19].content_store 	misses[19] 	10094
scalar tree_4_3_u03_r18_network.node[19].content_store 	decision_yes[19] 	10093
scalar tree_4_3_u03_r18_network.node[19].content_store 	decision_no[19] 	0
scalar tree_4_3_u03_r18_network.node[19].content_store 	decision_ratio[19] 	1
scalar tree_4_3_u03_r18_network.node[20].core_layer 	interests[20] 	11895
scalar tree_4_3_u03_r18_network.node[20].core_layer 	data[20] 	10018
scalar tree_4_3_u03_r18_network.node[20].content_store 	p_hit[20] 	0.15771332492644
scalar tree_4_3_u03_r18_network.node[20].content_store 	hits[20] 	1876
scalar tree_4_3_u03_r18_network.node[20].content_store 	misses[20] 	10019
scalar tree_4_3_u03_r18_network.node[20].content_store 	decision_yes[20] 	10018
scalar tree_4_3_u03_r18_network.node[20].content_store 	decision_no[20] 	0
scalar tree_4_3_u03_r18_network.node[20].content_store 	decision_ratio[20] 	1
scalar tree_4_3_u03_r18_network.node[21].core_layer 	interests[21] 	11820
scalar tree_4_3_u03_r18_network.node[21].core_layer 	data[21] 	9946
scalar tree_4_3_u03_r18_network.node[21].content_store 	p_hit[21] 	0.1585448392555
scalar tree_4_3_u03_r18_network.node[21].content_store 	hits[21] 	1874
scalar tree_4_3_u03_r18_network.node[21].content_store 	misses[21] 	9946
scalar tree_4_3_u03_r18_network.node[21].content_store 	decision_yes[21] 	9946
scalar tree_4_3_u03_r18_network.node[21].content_store 	decision_no[21] 	0
scalar tree_4_3_u03_r18_network.node[21].content_store 	decision_ratio[21] 	1
scalar tree_4_3_u03_r18_network.node[22].core_layer 	interests[22] 	11955
scalar tree_4_3_u03_r18_network.node[22].core_layer 	data[22] 	10126
scalar tree_4_3_u03_r18_network.node[22].content_store 	p_hit[22] 	0.15282308657465
scalar tree_4_3_u03_r18_network.node[22].content_store 	hits[22] 	1827
scalar tree_4_3_u03_r18_network.node[22].content_store 	misses[22] 	10128
scalar tree_4_3_u03_r18_network.node[22].content_store 	decision_yes[22] 	10126
scalar tree_4_3_u03_r18_network.node[22].content_store 	decision_no[22] 	0
scalar tree_4_3_u03_r18_network.node[22].content_store 	decision_ratio[22] 	1
scalar tree_4_3_u03_r18_network.node[23].core_layer 	interests[23] 	11906
scalar tree_4_3_u03_r18_network.node[23].core_layer 	data[23] 	10094
scalar tree_4_3_u03_r18_network.node[23].content_store 	p_hit[23] 	0.15194019821939
scalar tree_4_3_u03_r18_network.node[23].content_store 	hits[23] 	1809
scalar tree_4_3_u03_r18_network.node[23].content_store 	misses[23] 	10097
scalar tree_4_3_u03_r18_network.node[23].content_store 	decision_yes[23] 	10094
scalar tree_4_3_u03_r18_network.node[23].content_store 	decision_no[23] 	0
scalar tree_4_3_u03_r18_network.node[23].content_store 	decision_ratio[23] 	1
scalar tree_4_3_u03_r18_network.node[24].core_layer 	interests[24] 	12155
scalar tree_4_3_u03_r18_network.node[24].core_layer 	data[24] 	10347
scalar tree_4_3_u03_r18_network.node[24].content_store 	p_hit[24] 	0.14858083093377
scalar tree_4_3_u03_r18_network.node[24].content_store 	hits[24] 	1806
scalar tree_4_3_u03_r18_network.node[24].content_store 	misses[24] 	10349
scalar tree_4_3_u03_r18_network.node[24].content_store 	decision_yes[24] 	10347
scalar tree_4_3_u03_r18_network.node[24].content_store 	decision_no[24] 	0
scalar tree_4_3_u03_r18_network.node[24].content_store 	decision_ratio[24] 	1
scalar tree_4_3_u03_r18_network.node[25].core_layer 	interests[25] 	11856
scalar tree_4_3_u03_r18_network.node[25].core_layer 	data[25] 	9976
scalar tree_4_3_u03_r18_network.node[25].content_store 	p_hit[25] 	0.15848515519568
scalar tree_4_3_u03_r18_network.node[25].content_store 	hits[25] 	1879
scalar tree_4_3_u03_r18_network.node[25].content_store 	misses[25] 	9977
scalar tree_4_3_u03_r18_network.node[25].content_store 	decision_yes[25] 	9976
scalar tree_4_3_u03_r18_network.node[25].content_store 	decision_no[25] 	0
scalar tree_4_3_u03_r18_network.node[25].content_store 	decision_ratio[25] 	1
scalar tree_4_3_u03_r18_network.node[26].core_layer 	interests[26] 	11917
scalar tree_4_3_u03_r18_network.node[26].core_layer 	data[26] 	10023
scalar tree_4_3_u03_r18_network.node[26].content_store 	p_hit[26] 	0.15893261726945
scalar tree_4_3_u03_r18_network.node[26].content_store 	hits[26] 	1894
scalar tree_4_3_u03_r18_network.node[26].content_store 	misses[26] 	10023
scalar tree_4_3_u03_r18_network.node[26].content_store 	decision_yes[26] 	10023
scalar tree_4_3_u03_r18_network.node[26].content_store 	decision_no[26] 	0
scalar tree_4_3_u03_r18_network.node[26].content_store 	decision_ratio[26] 	1
scalar tree_4_3_u03_r18_network.node[27].core_layer 	interests[27] 	12137
scalar tree_4_3_u03_r18_network.node[27].core_layer 	data[27] 	10280
scalar tree_4_3_u03_r18_network.node[27].content_store 	p_hit[27] 	0.15300321331466
scalar tree_4_3_u03_r18_network.node[27].content_store 	hits[27] 	1857
scalar tree_4_3_u03_r18_network.node[27].content_store 	misses[27] 	10280
scalar tree_4_3_u03_r18_network.node[27].content_store 	decision_yes[27] 	10280
scalar tree_4_3_u03_r18_network.node[27].content_store 	decision_no[27] 	0
scalar tree_4_3_u03_r18_network.node[27].content_store 	decision_ratio[27] 	1
scalar tree_4_3_u03_r18_network.node[28].core_layer 	interests[28] 	12157
scalar tree_4_3_u03_r18_network.node[28].core_layer 	data[28] 	10292
scalar tree_4_3_u03_r18_network.node[28].content_store 	p_hit[28] 	0.15340955827918
scalar tree_4_3_u03_r18_network.node[28].content_store 	hits[28] 	1865
scalar tree_4_3_u03_r18_network.node[28].content_store 	misses[28] 	10292
scalar tree_4_3_u03_r18_network.node[28].content_store 	decision_yes[28] 	10292
scalar tree_4_3_u03_r18_network.node[28].content_store 	decision_no[28] 	0
scalar tree_4_3_u03_r18_network.node[28].content_store 	decision_ratio[28] 	1
scalar tree_4_3_u03_r18_network.node[29].core_layer 	interests[29] 	11847
scalar tree_4_3_u03_r18_network.node[29].core_layer 	data[29] 	9984
scalar tree_4_3_u03_r18_network.node[29].content_store 	p_hit[29] 	0.15717059171098
scalar tree_4_3_u03_r18_network.node[29].content_store 	hits[29] 	1862
scalar tree_4_3_u03_r18_network.node[29].content_store 	misses[29] 	9985
scalar tree_4_3_u03_r18_network.node[29].content_store 	decision_yes[29] 	9984
scalar tree_4_3_u03_r18_network.node[29].content_store 	decision_no[29] 	0
scalar tree_4_3_u03_r18_network.node[29].content_store 	decision_ratio[29] 	1
scalar tree_4_3_u03_r18_network.node[30].core_layer 	interests[30] 	12050
scalar tree_4_3_u03_r18_network.node[30].core_layer 	data[30] 	10161
scalar tree_4_3_u03_r18_network.node[30].content_store 	p_hit[30] 	0.15659751037344
scalar tree_4_3_u03_r18_network.node[30].content_store 	hits[30] 	1887
scalar tree_4_3_u03_r18_network.node[30].content_store 	misses[30] 	10163
scalar tree_4_3_u03_r18_network.node[30].content_store 	decision_yes[30] 	10161
scalar tree_4_3_u03_r18_network.node[30].content_store 	decision_no[30] 	0
scalar tree_4_3_u03_r18_network.node[30].content_store 	decision_ratio[30] 	1
scalar tree_4_3_u03_r18_network.node[31].core_layer 	interests[31] 	12080
scalar tree_4_3_u03_r18_network.node[31].core_layer 	data[31] 	10175
scalar tree_4_3_u03_r18_network.node[31].content_store 	p_hit[31] 	0.15745033112583
scalar tree_4_3_u03_r18_network.node[31].content_store 	hits[31] 	1902
scalar tree_4_3_u03_r18_network.node[31].content_store 	misses[31] 	10178
scalar tree_4_3_u03_r18_network.node[31].content_store 	decision_yes[31] 	10175
scalar tree_4_3_u03_r18_network.node[31].content_store 	decision_no[31] 	0
scalar tree_4_3_u03_r18_network.node[31].content_store 	decision_ratio[31] 	1
scalar tree_4_3_u03_r18_network.node[32].core_layer 	interests[32] 	11950
scalar tree_4_3_u03_r18_network.node[32].core_layer 	data[32] 	10034
scalar tree_4_3_u03_r18_network.node[32].content_store 	p_hit[32] 	0.1602510460251
scalar tree_4_3_u03_r18_network.node[32].content_store 	hits[32] 	1915
scalar tree_4_3_u03_r18_network.node[32].content_store 	misses[32] 	10035
scalar tree_4_3_u03_r18_network.node[32].content_store 	decision_yes[32] 	10034
scalar tree_4_3_u03_r18_network.node[32].content_store 	decision_no[32] 	0
scalar tree_4_3_u03_r18_network.node[32].content_store 	decision_ratio[32] 	1
scalar tree_4_3_u03_r18_network.node[33].core_layer 	interests[33] 	12062
scalar tree_4_3_u03_r18_network.node[33].core_layer 	data[33] 	10183
scalar tree_4_3_u03_r18_network.node[33].content_store 	p_hit[33] 	0.15569557287349
scalar tree_4_3_u03_r18_network.node[33].content_store 	hits[33] 	1878
scalar tree_4_3_u03_r18_network.node[33].content_store 	misses[33] 	10184
scalar tree_4_3_u03_r18_network.node[33].content_store 	decision_yes[33] 	10183
scalar tree_4_3_u03_r18_network.node[33].content_store 	decision_no[33] 	0
scalar tree_4_3_u03_r18_network.node[33].content_store 	decision_ratio[33] 	1
scalar tree_4_3_u03_r18_network.node[34].core_layer 	interests[34] 	11915
scalar tree_4_3_u03_r18_network.node[34].core_layer 	data[34] 	10028
scalar tree_4_3_u03_r18_network.node[34].content_store 	p_hit[34] 	0.15812001678556
scalar tree_4_3_u03_r18_network.node[34].content_store 	hits[34] 	1884
scalar tree_4_3_u03_r18_network.node[34].content_store 	misses[34] 	10031
scalar tree_4_3_u03_r18_network.node[34].content_store 	decision_yes[34] 	10028
scalar tree_4_3_u03_r18_network.node[34].content_store 	decision_no[34] 	0
scalar tree_4_3_u03_r18_network.node[34].content_store 	decision_ratio[34] 	1
scalar tree_4_3_u03_r18_network.node[35].core_layer 	interests[35] 	12148
scalar tree_4_3_u03_r18_network.node[35].core_layer 	data[35] 	10204
scalar tree_4_3_u03_r18_network.node[35].content_store 	p_hit[35] 	0.16002634178466
scalar tree_4_3_u03_r18_network.node[35].content_store 	hits[35] 	1944
scalar tree_4_3_u03_r18_network.node[35].content_store 	misses[35] 	10204
scalar tree_4_3_u03_r18_network.node[35].content_store 	decision_yes[35] 	10204
scalar tree_4_3_u03_r18_network.node[35].content_store 	decision_no[35] 	0
scalar tree_4_3_u03_r18_network.node[35].content_store 	decision_ratio[35] 	1
scalar tree_4_3_u03_r18_network.node[36].core_layer 	interests[36] 	12142
scalar tree_4_3_u03_r18_network.node[36].core_layer 	data[36] 	10305
scalar tree_4_3_u03_r18_network.node[36].content_store 	p_hit[36] 	0.15129303244935
scalar tree_4_3_u03_r18_network.node[36].content_store 	hits[36] 	1837
scalar tree_4_3_u03_r18_network.node[36].content_store 	misses[36] 	10305
scalar tree_4_3_u03_r18_network.node[36].content_store 	decision_yes[36] 	10305
scalar tree_4_3_u03_r18_network.node[36].content_store 	decision_no[36] 	0
scalar tree_4_3_u03_r18_network.node[36].content_store 	decision_ratio[36] 	1
scalar tree_4_3_u03_r18_network.node[37].core_layer 	interests[37] 	11980
scalar tree_4_3_u03_r18_network.node[37].core_layer 	data[37] 	10159
scalar tree_4_3_u03_r18_network.node[37].content_store 	p_hit[37] 	0.15200333889816
scalar tree_4_3_u03_r18_network.node[37].content_store 	hits[37] 	1821
scalar tree_4_3_u03_r18_network.node[37].content_store 	misses[37] 	10159
scalar tree_4_3_u03_r18_network.node[37].content_store 	decision_yes[37] 	10159
scalar tree_4_3_u03_r18_network.node[37].content_store 	decision_no[37] 	0
scalar tree_4_3_u03_r18_network.node[37].content_store 	decision_ratio[37] 	1
scalar tree_4_3_u03_r18_network.node[38].core_layer 	interests[38] 	12153
scalar tree_4_3_u03_r18_network.node[38].core_layer 	data[38] 	10213
scalar tree_4_3_u03_r18_network.node[38].content_store 	p_hit[38] 	0.15963136674072
scalar tree_4_3_u03_r18_network.node[38].content_store 	hits[38] 	1940
scalar tree_4_3_u03_r18_network.node[38].content_store 	misses[38] 	10213
scalar tree_4_3_u03_r18_network.node[38].content_store 	decision_yes[38] 	10213
scalar tree_4_3_u03_r18_network.node[38].content_store 	decision_no[38] 	0
scalar tree_4_3_u03_r18_network.node[38].content_store 	decision_ratio[38] 	1
scalar tree_4_3_u03_r18_network.node[39].core_layer 	interests[39] 	11957
scalar tree_4_3_u03_r18_network.node[39].core_layer 	data[39] 	10004
scalar tree_4_3_u03_r18_network.node[39].content_store 	p_hit[39] 	0.16333528477043
scalar tree_4_3_u03_r18_network.node[39].content_store 	hits[39] 	1953
scalar tree_4_3_u03_r18_network.node[39].content_store 	misses[39] 	10004
scalar tree_4_3_u03_r18_network.node[39].content_store 	decision_yes[39] 	10004
scalar tree_4_3_u03_r18_network.node[39].content_store 	decision_no[39] 	0
scalar tree_4_3_u03_r18_network.node[39].content_store 	decision_ratio[39] 	1
scalar tree_4_3_u03_r18_network.client[13] 	hdistance[13] 	3.2522485009993
scalar tree_4_3_u03_r18_network.client[13] 	downloads[13] 	12008
scalar tree_4_3_u03_r18_network.client[13] 	avg_time[13] 	0.004927097209
scalar tree_4_3_u03_r18_network.client[14] 	hdistance[14] 	3.2357655702121
scalar tree_4_3_u03_r18_network.client[14] 	downloads[14] 	11978
scalar tree_4_3_u03_r18_network.client[14] 	avg_time[14] 	0.004906134549
scalar tree_4_3_u03_r18_network.client[15] 	hdistance[15] 	3.2618811881188
scalar tree_4_3_u03_r18_network.client[15] 	downloads[15] 	12120
scalar tree_4_3_u03_r18_network.client[15] 	avg_time[15] 	0.004945497916
scalar tree_4_3_u03_r18_network.client[16] 	hdistance[16] 	3.2489206243773
scalar tree_4_3_u03_r18_network.client[16] 	downloads[16] 	12044
scalar tree_4_3_u03_r18_network.client[16] 	avg_time[16] 	0.0049212856
scalar tree_4_3_u03_r18_network.client[17] 	hdistance[17] 	3.2657116833651
scalar tree_4_3_u03_r18_network.client[17] 	downloads[17] 	12077
scalar tree_4_3_u03_r18_network.client[17] 	avg_time[17] 	0.004949736142
scalar tree_4_3_u03_r18_network.client[18] 	hdistance[18] 	3.2335947172926
scalar tree_4_3_u03_r18_network.client[18] 	downloads[18] 	12115
scalar tree_4_3_u03_r18_network.client[18] 	avg_time[18] 	0.004902617539
scalar tree_4_3_u03_r18_network.client[19] 	hdistance[19] 	3.2772841575859
scalar tree_4_3_u03_r18_network.client[19] 	downloads[19] 	11930
scalar tree_4_3_u03_r18_network.client[19] 	avg_time[19] 	0.004966370226
scalar tree_4_3_u03_r18_network.client[20] 	hdistance[20] 	3.2415503615268
scalar tree_4_3_u03_r18_network.client[20] 	downloads[20] 	11894
scalar tree_4_3_u03_r18_network.client[20] 	avg_time[20] 	0.004914570418
scalar tree_4_3_u03_r18_network.client[21] 	hdistance[21] 	3.23730964467
scalar tree_4_3_u03_r18_network.client[21] 	downloads[21] 	11820
scalar tree_4_3_u03_r18_network.client[21] 	avg_time[21] 	0.004913364224
scalar tree_4_3_u03_r18_network.client[22] 	hdistance[22] 	3.272567556262
scalar tree_4_3_u03_r18_network.client[22] 	downloads[22] 	11953
scalar tree_4_3_u03_r18_network.client[22] 	avg_time[22] 	0.004955945874
scalar tree_4_3_u03_r18_network.client[23] 	hdistance[23] 	3.2652272536335
scalar tree_4_3_u03_r18_network.client[23] 	downloads[23] 	11903
scalar tree_4_3_u03_r18_network.client[23] 	avg_time[23] 	0.004947540791
scalar tree_4_3_u03_r18_network.client[24] 	hdistance[24] 	3.2810005759895
scalar tree_4_3_u03_r18_network.client[24] 	downloads[24] 	12153
scalar tree_4_3_u03_r18_network.client[24] 	avg_time[24] 	0.004973194687
scalar tree_4_3_u03_r18_network.client[25] 	hdistance[25] 	3.2469843947701
scalar tree_4_3_u03_r18_network.client[25] 	downloads[25] 	11855
scalar tree_4_3_u03_r18_network.client[25] 	avg_time[25] 	0.004924666528
scalar tree_4_3_u03_r18_network.client[26] 	hdistance[26] 	3.2520768649828
scalar tree_4_3_u03_r18_network.client[26] 	downloads[26] 	11917
scalar tree_4_3_u03_r18_network.client[26] 	avg_time[26] 	0.004929081037
scalar tree_4_3_u03_r18_network.client[27] 	hdistance[27] 	3.2698360385598
scalar tree_4_3_u03_r18_network.client[27] 	downloads[27] 	12137
scalar tree_4_3_u03_r18_network.client[27] 	avg_time[27] 	0.004960366078
scalar tree_4_3_u03_r18_network.client[28] 	hdistance[28] 	3.2675824627786
scalar tree_4_3_u03_r18_network.client[28] 	downloads[28] 	12157
scalar tree_4_3_u03_r18_network.client[28] 	avg_time[28] 	0.004956813756
scalar tree_4_3_u03_r18_network.client[29] 	hdistance[29] 	3.2533344588891
scalar tree_4_3_u03_r18_network.client[29] 	downloads[29] 	11846
scalar tree_4_3_u03_r18_network.client[29] 	avg_time[29] 	0.00493130555
scalar tree_4_3_u03_r18_network.client[30] 	hdistance[30] 	3.2527390438247
scalar tree_4_3_u03_r18_network.client[30] 	downloads[30] 	12048
scalar tree_4_3_u03_r18_network.client[30] 	avg_time[30] 	0.004932581979
scalar tree_4_3_u03_r18_network.client[31] 	hdistance[31] 	3.2567690651652
scalar tree_4_3_u03_r18_network.client[31] 	downloads[31] 	12077
scalar tree_4_3_u03_r18_network.client[31] 	avg_time[31] 	0.00493062504
scalar tree_4_3_u03_r18_network.client[32] 	hdistance[32] 	3.232906519374
scalar tree_4_3_u03_r18_network.client[32] 	downloads[32] 	11949
scalar tree_4_3_u03_r18_network.client[32] 	avg_time[32] 	0.004898879166
scalar tree_4_3_u03_r18_network.client[33] 	hdistance[33] 	3.2541248652682
scalar tree_4_3_u03_r18_network.client[33] 	downloads[33] 	12061
scalar tree_4_3_u03_r18_network.client[33] 	avg_time[33] 	0.004928135832
scalar tree_4_3_u03_r18_network.client[34] 	hdistance[34] 	3.2431161853593
scalar tree_4_3_u03_r18_network.client[34] 	downloads[34] 	11912
scalar tree_4_3_u03_r18_network.client[34] 	avg_time[34] 	0.00491249295
scalar tree_4_3_u03_r18_network.client[35] 	hdistance[35] 	3.2523049061574
scalar tree_4_3_u03_r18_network.client[35] 	downloads[35] 	12148
scalar tree_4_3_u03_r18_network.client[35] 	avg_time[35] 	0.004928544869
scalar tree_4_3_u03_r18_network.client[36] 	hdistance[36] 	3.2759841871191
scalar tree_4_3_u03_r18_network.client[36] 	downloads[36] 	12142
scalar tree_4_3_u03_r18_network.client[36] 	avg_time[36] 	0.004966555181
scalar tree_4_3_u03_r18_network.client[37] 	hdistance[37] 	3.2662771285476
scalar tree_4_3_u03_r18_network.client[37] 	downloads[37] 	11980
scalar tree_4_3_u03_r18_network.client[37] 	avg_time[37] 	0.004950204328
scalar tree_4_3_u03_r18_network.client[38] 	hdistance[38] 	3.2391179132724
scalar tree_4_3_u03_r18_network.client[38] 	downloads[38] 	12153
scalar tree_4_3_u03_r18_network.client[38] 	avg_time[38] 	0.004914204138
scalar tree_4_3_u03_r18_network.client[39] 	hdistance[39] 	3.2278163418918
scalar tree_4_3_u03_r18_network.client[39] 	downloads[39] 	11957
scalar tree_4_3_u03_r18_network.client[39] 	avg_time[39] 	0.004898087267
