version 2
run General-79-20160820-15:04:22-2644
attr a 0.9
attr cd lce
attr configname General
attr cr lru
attr datetime 20160820-15:04:22
attr experiment General
attr fsize 1
attr inifile hw5115/scenario_A/SPR-LCE.ini
attr iterationvars "$name=tree_4_3, $un=03, $rep=20, $cd=lce, $cr=lru, $fsize=1, $a=0.9, $sl=spr, $ttl=1000, $variance=0.05"
attr iterationvars2 "$name=tree_4_3, $un=03, $rep=20, $cd=lce, $cr=lru, $fsize=1, $a=0.9, $sl=spr, $ttl=1000, $variance=0.05, $repetition=0"
attr measurement "$name=tree_4_3, $un=03, $rep=20, $cd=lce, $cr=lru, $fsize=1, $a=0.9, $sl=spr, $ttl=1000, $variance=0.05"
attr name tree_4_3
attr network networks.${name}_u${un}_r${rep}_network
attr processid 2644
attr rep 20
attr repetition 0
attr replication #0
attr resultdir results
attr runnumber 79
attr seedset 20
attr sl spr
attr ttl 1000
attr un 03
attr variance 0.05

scalar . 	a 	0.9
scalar . 	fsize 	1
scalar . 	rep 	20
scalar . 	ttl 	1000
scalar . 	un 	03
scalar . 	variance 	0.05
scalar tree_4_3_u03_r20_network.content_distribution 	repo-0 	0
scalar tree_4_3_u03_r20_network.content_distribution 	client-0 	13
scalar tree_4_3_u03_r20_network.content_distribution 	client-1 	14
scalar tree_4_3_u03_r20_network.content_distribution 	client-2 	15
scalar tree_4_3_u03_r20_network.content_distribution 	client-3 	16
scalar tree_4_3_u03_r20_network.content_distribution 	client-4 	17
scalar tree_4_3_u03_r20_network.content_distribution 	client-5 	18
scalar tree_4_3_u03_r20_network.content_distribution 	client-6 	19
scalar tree_4_3_u03_r20_network.content_distribution 	client-7 	20
scalar tree_4_3_u03_r20_network.content_distribution 	client-8 	21
scalar tree_4_3_u03_r20_network.content_distribution 	client-9 	22
scalar tree_4_3_u03_r20_network.content_distribution 	client-10 	23
scalar tree_4_3_u03_r20_network.content_distribution 	client-11 	24
scalar tree_4_3_u03_r20_network.content_distribution 	client-12 	25
scalar tree_4_3_u03_r20_network.content_distribution 	client-13 	26
scalar tree_4_3_u03_r20_network.content_distribution 	client-14 	27
scalar tree_4_3_u03_r20_network.content_distribution 	client-15 	28
scalar tree_4_3_u03_r20_network.content_distribution 	client-16 	29
scalar tree_4_3_u03_r20_network.content_distribution 	client-17 	30
scalar tree_4_3_u03_r20_network.content_distribution 	client-18 	31
scalar tree_4_3_u03_r20_network.content_distribution 	client-19 	32
scalar tree_4_3_u03_r20_network.content_distribution 	client-20 	33
scalar tree_4_3_u03_r20_network.content_distribution 	client-21 	34
scalar tree_4_3_u03_r20_network.content_distribution 	client-22 	35
scalar tree_4_3_u03_r20_network.content_distribution 	client-23 	36
scalar tree_4_3_u03_r20_network.content_distribution 	client-24 	37
scalar tree_4_3_u03_r20_network.content_distribution 	client-25 	38
scalar tree_4_3_u03_r20_network.content_distribution 	client-26 	39
scalar tree_4_3_u03_r20_network.content_distribution 	repo-0_card 	100000
scalar tree_4_3_u03_r20_network.content_distribution 	repo-0_price 	0
scalar tree_4_3_u03_r20_network.statistics 	stabilization_time 	559.2
scalar tree_4_3_u03_r20_network.statistics 	p_hit 	0.11390841076766
scalar tree_4_3_u03_r20_network.statistics 	interests 	28055.675
scalar tree_4_3_u03_r20_network.statistics 	data 	19957.25
scalar tree_4_3_u03_r20_network.statistics 	hdistance 	3.2512194870526
scalar tree_4_3_u03_r20_network.statistics 	avg_time 	0.004928895698
scalar tree_4_3_u03_r20_network.statistics 	downloads 	323919
scalar tree_4_3_u03_r20_network.statistics 	total_cost 	0
scalar tree_4_3_u03_r20_network.statistics 	total_replicas 	100000
scalar tree_4_3_u03_r20_network.statistics 	inner_hit 	0.21339594157799
scalar tree_4_3_u03_r20_network.node[0].core_layer 	interests[0] 	259722
scalar tree_4_3_u03_r20_network.node[0].core_layer 	repo_load[0] 	254796
scalar tree_4_3_u03_r20_network.node[0].core_layer 	data[0] 	0
scalar tree_4_3_u03_r20_network.node[0].core_layer 	repo_int[0] 	254796
scalar tree_4_3_u03_r20_network.node[0].content_store 	p_hit[0] 	0.018966433340264
scalar tree_4_3_u03_r20_network.node[0].content_store 	hits[0] 	4926
scalar tree_4_3_u03_r20_network.node[0].content_store 	misses[0] 	254796
scalar tree_4_3_u03_r20_network.node[0].content_store 	decision_yes[0] 	254796
scalar tree_4_3_u03_r20_network.node[0].content_store 	decision_no[0] 	0
scalar tree_4_3_u03_r20_network.node[0].content_store 	decision_ratio[0] 	1
scalar tree_4_3_u03_r20_network.node[1].core_layer 	interests[1] 	88415
scalar tree_4_3_u03_r20_network.node[1].core_layer 	data[1] 	86496
scalar tree_4_3_u03_r20_network.node[1].content_store 	p_hit[1] 	0.021681841316519
scalar tree_4_3_u03_r20_network.node[1].content_store 	hits[1] 	1917
scalar tree_4_3_u03_r20_network.node[1].content_store 	misses[1] 	86498
scalar tree_4_3_u03_r20_network.node[1].content_store 	decision_yes[1] 	86496
scalar tree_4_3_u03_r20_network.node[1].content_store 	decision_no[1] 	0
scalar tree_4_3_u03_r20_network.node[1].content_store 	decision_ratio[1] 	1
scalar tree_4_3_u03_r20_network.node[2].core_layer 	interests[2] 	88381
scalar tree_4_3_u03_r20_network.node[2].core_layer 	data[2] 	86426
scalar tree_4_3_u03_r20_network.node[2].content_store 	p_hit[2] 	0.022074880347586
scalar tree_4_3_u03_r20_network.node[2].content_store 	hits[2] 	1951
scalar tree_4_3_u03_r20_network.node[2].content_store 	misses[2] 	86430
scalar tree_4_3_u03_r20_network.node[2].content_store 	decision_yes[2] 	86426
scalar tree_4_3_u03_r20_network.node[2].content_store 	decision_no[2] 	0
scalar tree_4_3_u03_r20_network.node[2].content_store 	decision_ratio[2] 	1
scalar tree_4_3_u03_r20_network.node[3].core_layer 	interests[3] 	88619
scalar tree_4_3_u03_r20_network.node[3].core_layer 	data[3] 	86801
scalar tree_4_3_u03_r20_network.node[3].content_store 	p_hit[3] 	0.020435798192261
scalar tree_4_3_u03_r20_network.node[3].content_store 	hits[3] 	1811
scalar tree_4_3_u03_r20_network.node[3].content_store 	misses[3] 	86808
scalar tree_4_3_u03_r20_network.node[3].content_store 	decision_yes[3] 	86801
scalar tree_4_3_u03_r20_network.node[3].content_store 	decision_no[3] 	0
scalar tree_4_3_u03_r20_network.node[3].content_store 	decision_ratio[3] 	1
scalar tree_4_3_u03_r20_network.node[4].core_layer 	interests[4] 	40407
scalar tree_4_3_u03_r20_network.node[4].core_layer 	data[4] 	39175
scalar tree_4_3_u03_r20_network.node[4].content_store 	p_hit[4] 	0.030440270250204
scalar tree_4_3_u03_r20_network.node[4].content_store 	hits[4] 	1230
scalar tree_4_3_u03_r20_network.node[4].content_store 	misses[4] 	39177
scalar tree_4_3_u03_r20_network.node[4].content_store 	decision_yes[4] 	39175
scalar tree_4_3_u03_r20_network.node[4].content_store 	decision_no[4] 	0
scalar tree_4_3_u03_r20_network.node[4].content_store 	decision_ratio[4] 	1
scalar tree_4_3_u03_r20_network.node[5].core_layer 	interests[5] 	20225
scalar tree_4_3_u03_r20_network.node[5].core_layer 	data[5] 	19763
scalar tree_4_3_u03_r20_network.node[5].content_store 	p_hit[5] 	0.022843016069221
scalar tree_4_3_u03_r20_network.node[5].content_store 	hits[5] 	462
scalar tree_4_3_u03_r20_network.node[5].content_store 	misses[5] 	19763
scalar tree_4_3_u03_r20_network.node[5].content_store 	decision_yes[5] 	19763
scalar tree_4_3_u03_r20_network.node[5].content_store 	decision_no[5] 	0
scalar tree_4_3_u03_r20_network.node[5].content_store 	decision_ratio[5] 	1
scalar tree_4_3_u03_r20_network.node[6].core_layer 	interests[6] 	30413
scalar tree_4_3_u03_r20_network.node[6].core_layer 	data[6] 	29477
scalar tree_4_3_u03_r20_network.node[6].content_store 	p_hit[6] 	0.030842074113044
scalar tree_4_3_u03_r20_network.node[6].content_store 	hits[6] 	938
scalar tree_4_3_u03_r20_network.node[6].content_store 	misses[6] 	29475
scalar tree_4_3_u03_r20_network.node[6].content_store 	decision_yes[6] 	29477
scalar tree_4_3_u03_r20_network.node[6].content_store 	decision_no[6] 	0
scalar tree_4_3_u03_r20_network.node[6].content_store 	decision_ratio[6] 	1
scalar tree_4_3_u03_r20_network.node[7].core_layer 	interests[7] 	30077
scalar tree_4_3_u03_r20_network.node[7].core_layer 	data[7] 	29211
scalar tree_4_3_u03_r20_network.node[7].content_store 	p_hit[7] 	0.028792765235895
scalar tree_4_3_u03_r20_network.node[7].content_store 	hits[7] 	866
scalar tree_4_3_u03_r20_network.node[7].content_store 	misses[7] 	29211
scalar tree_4_3_u03_r20_network.node[7].content_store 	decision_yes[7] 	29211
scalar tree_4_3_u03_r20_network.node[7].content_store 	decision_no[7] 	0
scalar tree_4_3_u03_r20_network.node[7].content_store 	decision_ratio[7] 	1
scalar tree_4_3_u03_r20_network.node[8].core_layer 	interests[8] 	40920
scalar tree_4_3_u03_r20_network.node[8].core_layer 	data[8] 	39609
scalar tree_4_3_u03_r20_network.node[8].content_store 	p_hit[8] 	0.032013685239492
scalar tree_4_3_u03_r20_network.node[8].content_store 	hits[8] 	1310
scalar tree_4_3_u03_r20_network.node[8].content_store 	misses[8] 	39610
scalar tree_4_3_u03_r20_network.node[8].content_store 	decision_yes[8] 	39609
scalar tree_4_3_u03_r20_network.node[8].content_store 	decision_no[8] 	0
scalar tree_4_3_u03_r20_network.node[8].content_store 	decision_ratio[8] 	1
scalar tree_4_3_u03_r20_network.node[9].core_layer 	interests[9] 	20021
scalar tree_4_3_u03_r20_network.node[9].core_layer 	data[9] 	19561
scalar tree_4_3_u03_r20_network.node[9].content_store 	p_hit[9] 	0.022975875330903
scalar tree_4_3_u03_r20_network.node[9].content_store 	hits[9] 	460
scalar tree_4_3_u03_r20_network.node[9].content_store 	misses[9] 	19561
scalar tree_4_3_u03_r20_network.node[9].content_store 	decision_yes[9] 	19561
scalar tree_4_3_u03_r20_network.node[9].content_store 	decision_no[9] 	0
scalar tree_4_3_u03_r20_network.node[9].content_store 	decision_ratio[9] 	1
scalar tree_4_3_u03_r20_network.node[10].core_layer 	interests[10] 	50544
scalar tree_4_3_u03_r20_network.node[10].core_layer 	data[10] 	48928
scalar tree_4_3_u03_r20_network.node[10].content_store 	p_hit[10] 	0.031893004115226
scalar tree_4_3_u03_r20_network.node[10].content_store 	hits[10] 	1612
scalar tree_4_3_u03_r20_network.node[10].content_store 	misses[10] 	48932
scalar tree_4_3_u03_r20_network.node[10].content_store 	decision_yes[10] 	48928
scalar tree_4_3_u03_r20_network.node[10].content_store 	decision_no[10] 	0
scalar tree_4_3_u03_r20_network.node[10].content_store 	decision_ratio[10] 	1
scalar tree_4_3_u03_r20_network.node[11].core_layer 	interests[11] 	20326
scalar tree_4_3_u03_r20_network.node[11].core_layer 	data[11] 	19877
scalar tree_4_3_u03_r20_network.node[11].content_store 	p_hit[11] 	0.022040736003149
scalar tree_4_3_u03_r20_network.node[11].content_store 	hits[11] 	448
scalar tree_4_3_u03_r20_network.node[11].content_store 	misses[11] 	19878
scalar tree_4_3_u03_r20_network.node[11].content_store 	decision_yes[11] 	19877
scalar tree_4_3_u03_r20_network.node[11].content_store 	decision_no[11] 	0
scalar tree_4_3_u03_r20_network.node[11].content_store 	decision_ratio[11] 	1
scalar tree_4_3_u03_r20_network.node[12].core_layer 	interests[12] 	20218
scalar tree_4_3_u03_r20_network.node[12].core_layer 	data[12] 	19814
scalar tree_4_3_u03_r20_network.node[12].content_store 	p_hit[12] 	0.019932733208032
scalar tree_4_3_u03_r20_network.node[12].content_store 	hits[12] 	403
scalar tree_4_3_u03_r20_network.node[12].content_store 	misses[12] 	19815
scalar tree_4_3_u03_r20_network.node[12].content_store 	decision_yes[12] 	19814
scalar tree_4_3_u03_r20_network.node[12].content_store 	decision_no[12] 	0
scalar tree_4_3_u03_r20_network.node[12].content_store 	decision_ratio[12] 	1
scalar tree_4_3_u03_r20_network.node[13].core_layer 	interests[13] 	12009
scalar tree_4_3_u03_r20_network.node[13].core_layer 	data[13] 	10082
scalar tree_4_3_u03_r20_network.node[13].content_store 	p_hit[13] 	0.16029644433342
scalar tree_4_3_u03_r20_network.node[13].content_store 	hits[13] 	1925
scalar tree_4_3_u03_r20_network.node[13].content_store 	misses[13] 	10084
scalar tree_4_3_u03_r20_network.node[13].content_store 	decision_yes[13] 	10082
scalar tree_4_3_u03_r20_network.node[13].content_store 	decision_no[13] 	0
scalar tree_4_3_u03_r20_network.node[13].content_store 	decision_ratio[13] 	1
scalar tree_4_3_u03_r20_network.node[14].core_layer 	interests[14] 	11935
scalar tree_4_3_u03_r20_network.node[14].core_layer 	data[14] 	10039
scalar tree_4_3_u03_r20_network.node[14].content_store 	p_hit[14] 	0.15886049434437
scalar tree_4_3_u03_r20_network.node[14].content_store 	hits[14] 	1896
scalar tree_4_3_u03_r20_network.node[14].content_store 	misses[14] 	10039
scalar tree_4_3_u03_r20_network.node[14].content_store 	decision_yes[14] 	10039
scalar tree_4_3_u03_r20_network.node[14].content_store 	decision_no[14] 	0
scalar tree_4_3_u03_r20_network.node[14].content_store 	decision_ratio[14] 	1
scalar tree_4_3_u03_r20_network.node[15].core_layer 	interests[15] 	11853
scalar tree_4_3_u03_r20_network.node[15].core_layer 	data[15] 	10098
scalar tree_4_3_u03_r20_network.node[15].content_store 	p_hit[15] 	0.14789504766726
scalar tree_4_3_u03_r20_network.node[15].content_store 	hits[15] 	1753
scalar tree_4_3_u03_r20_network.node[15].content_store 	misses[15] 	10100
scalar tree_4_3_u03_r20_network.node[15].content_store 	decision_yes[15] 	10098
scalar tree_4_3_u03_r20_network.node[15].content_store 	decision_no[15] 	0
scalar tree_4_3_u03_r20_network.node[15].content_store 	decision_ratio[15] 	1
scalar tree_4_3_u03_r20_network.node[16].core_layer 	interests[16] 	12112
scalar tree_4_3_u03_r20_network.node[16].core_layer 	data[16] 	10185
scalar tree_4_3_u03_r20_network.node[16].content_store 	p_hit[16] 	0.15885072655218
scalar tree_4_3_u03_r20_network.node[16].content_store 	hits[16] 	1924
scalar tree_4_3_u03_r20_network.node[16].content_store 	misses[16] 	10188
scalar tree_4_3_u03_r20_network.node[16].content_store 	decision_yes[16] 	10185
scalar tree_4_3_u03_r20_network.node[16].content_store 	decision_no[16] 	0
scalar tree_4_3_u03_r20_network.node[16].content_store 	decision_ratio[16] 	1
scalar tree_4_3_u03_r20_network.node[17].core_layer 	interests[17] 	12035
scalar tree_4_3_u03_r20_network.node[17].core_layer 	data[17] 	10148
scalar tree_4_3_u03_r20_network.node[17].content_store 	p_hit[17] 	0.15670959700872
scalar tree_4_3_u03_r20_network.node[17].content_store 	hits[17] 	1886
scalar tree_4_3_u03_r20_network.node[17].content_store 	misses[17] 	10149
scalar tree_4_3_u03_r20_network.node[17].content_store 	decision_yes[17] 	10148
scalar tree_4_3_u03_r20_network.node[17].content_store 	decision_no[17] 	0
scalar tree_4_3_u03_r20_network.node[17].content_store 	decision_ratio[17] 	1
scalar tree_4_3_u03_r20_network.node[18].core_layer 	interests[18] 	12074
scalar tree_4_3_u03_r20_network.node[18].core_layer 	data[18] 	10077
scalar tree_4_3_u03_r20_network.node[18].content_store 	p_hit[18] 	0.16523107503727
scalar tree_4_3_u03_r20_network.node[18].content_store 	hits[18] 	1995
scalar tree_4_3_u03_r20_network.node[18].content_store 	misses[18] 	10079
scalar tree_4_3_u03_r20_network.node[18].content_store 	decision_yes[18] 	10077
scalar tree_4_3_u03_r20_network.node[18].content_store 	decision_no[18] 	0
scalar tree_4_3_u03_r20_network.node[18].content_store 	decision_ratio[18] 	1
scalar tree_4_3_u03_r20_network.node[19].core_layer 	interests[19] 	11973
scalar tree_4_3_u03_r20_network.node[19].core_layer 	data[19] 	9999
scalar tree_4_3_u03_r20_network.node[19].content_store 	p_hit[19] 	0.16487095965923
scalar tree_4_3_u03_r20_network.node[19].content_store 	hits[19] 	1974
scalar tree_4_3_u03_r20_network.node[19].content_store 	misses[19] 	9999
scalar tree_4_3_u03_r20_network.node[19].content_store 	decision_yes[19] 	9999
scalar tree_4_3_u03_r20_network.node[19].content_store 	decision_no[19] 	0
scalar tree_4_3_u03_r20_network.node[19].content_store 	decision_ratio[19] 	1
scalar tree_4_3_u03_r20_network.node[20].core_layer 	interests[20] 	12024
scalar tree_4_3_u03_r20_network.node[20].core_layer 	data[20] 	10174
scalar tree_4_3_u03_r20_network.node[20].content_store 	p_hit[20] 	0.15394211576846
scalar tree_4_3_u03_r20_network.node[20].content_store 	hits[20] 	1851
scalar tree_4_3_u03_r20_network.node[20].content_store 	misses[20] 	10173
scalar tree_4_3_u03_r20_network.node[20].content_store 	decision_yes[20] 	10174
scalar tree_4_3_u03_r20_network.node[20].content_store 	decision_no[20] 	0
scalar tree_4_3_u03_r20_network.node[20].content_store 	decision_ratio[20] 	1
scalar tree_4_3_u03_r20_network.node[21].core_layer 	interests[21] 	12066
scalar tree_4_3_u03_r20_network.node[21].core_layer 	data[21] 	10242
scalar tree_4_3_u03_r20_network.node[21].content_store 	p_hit[21] 	0.15116857284933
scalar tree_4_3_u03_r20_network.node[21].content_store 	hits[21] 	1824
scalar tree_4_3_u03_r20_network.node[21].content_store 	misses[21] 	10242
scalar tree_4_3_u03_r20_network.node[21].content_store 	decision_yes[21] 	10242
scalar tree_4_3_u03_r20_network.node[21].content_store 	decision_no[21] 	0
scalar tree_4_3_u03_r20_network.node[21].content_store 	decision_ratio[21] 	1
scalar tree_4_3_u03_r20_network.node[22].core_layer 	interests[22] 	11832
scalar tree_4_3_u03_r20_network.node[22].core_layer 	data[22] 	10004
scalar tree_4_3_u03_r20_network.node[22].content_store 	p_hit[22] 	0.15441176470588
scalar tree_4_3_u03_r20_network.node[22].content_store 	hits[22] 	1827
scalar tree_4_3_u03_r20_network.node[22].content_store 	misses[22] 	10005
scalar tree_4_3_u03_r20_network.node[22].content_store 	decision_yes[22] 	10004
scalar tree_4_3_u03_r20_network.node[22].content_store 	decision_no[22] 	0
scalar tree_4_3_u03_r20_network.node[22].content_store 	decision_ratio[22] 	1
scalar tree_4_3_u03_r20_network.node[23].core_layer 	interests[23] 	11870
scalar tree_4_3_u03_r20_network.node[23].core_layer 	data[23] 	9961
scalar tree_4_3_u03_r20_network.node[23].content_store 	p_hit[23] 	0.1609098567818
scalar tree_4_3_u03_r20_network.node[23].content_store 	hits[23] 	1910
scalar tree_4_3_u03_r20_network.node[23].content_store 	misses[23] 	9960
scalar tree_4_3_u03_r20_network.node[23].content_store 	decision_yes[23] 	9961
scalar tree_4_3_u03_r20_network.node[23].content_store 	decision_no[23] 	0
scalar tree_4_3_u03_r20_network.node[23].content_store 	decision_ratio[23] 	1
scalar tree_4_3_u03_r20_network.node[24].core_layer 	interests[24] 	12052
scalar tree_4_3_u03_r20_network.node[24].core_layer 	data[24] 	10113
scalar tree_4_3_u03_r20_network.node[24].content_store 	p_hit[24] 	0.16088615997345
scalar tree_4_3_u03_r20_network.node[24].content_store 	hits[24] 	1939
scalar tree_4_3_u03_r20_network.node[24].content_store 	misses[24] 	10113
scalar tree_4_3_u03_r20_network.node[24].content_store 	decision_yes[24] 	10113
scalar tree_4_3_u03_r20_network.node[24].content_store 	decision_no[24] 	0
scalar tree_4_3_u03_r20_network.node[24].content_store 	decision_ratio[24] 	1
scalar tree_4_3_u03_r20_network.node[25].core_layer 	interests[25] 	12298
scalar tree_4_3_u03_r20_network.node[25].core_layer 	data[25] 	10415
scalar tree_4_3_u03_r20_network.node[25].content_store 	p_hit[25] 	0.15270775735892
scalar tree_4_3_u03_r20_network.node[25].content_store 	hits[25] 	1878
scalar tree_4_3_u03_r20_network.node[25].content_store 	misses[25] 	10420
scalar tree_4_3_u03_r20_network.node[25].content_store 	decision_yes[25] 	10415
scalar tree_4_3_u03_r20_network.node[25].content_store 	decision_no[25] 	0
scalar tree_4_3_u03_r20_network.node[25].content_store 	decision_ratio[25] 	1
scalar tree_4_3_u03_r20_network.node[26].core_layer 	interests[26] 	11980
scalar tree_4_3_u03_r20_network.node[26].core_layer 	data[26] 	10152
scalar tree_4_3_u03_r20_network.node[26].content_store 	p_hit[26] 	0.1525041736227
scalar tree_4_3_u03_r20_network.node[26].content_store 	hits[26] 	1827
scalar tree_4_3_u03_r20_network.node[26].content_store 	misses[26] 	10153
scalar tree_4_3_u03_r20_network.node[26].content_store 	decision_yes[26] 	10152
scalar tree_4_3_u03_r20_network.node[26].content_store 	decision_no[26] 	0
scalar tree_4_3_u03_r20_network.node[26].content_store 	decision_ratio[26] 	1
scalar tree_4_3_u03_r20_network.node[27].core_layer 	interests[27] 	12019
scalar tree_4_3_u03_r20_network.node[27].core_layer 	data[27] 	10147
scalar tree_4_3_u03_r20_network.node[27].content_store 	p_hit[27] 	0.1557533904651
scalar tree_4_3_u03_r20_network.node[27].content_store 	hits[27] 	1872
scalar tree_4_3_u03_r20_network.node[27].content_store 	misses[27] 	10147
scalar tree_4_3_u03_r20_network.node[27].content_store 	decision_yes[27] 	10147
scalar tree_4_3_u03_r20_network.node[27].content_store 	decision_no[27] 	0
scalar tree_4_3_u03_r20_network.node[27].content_store 	decision_ratio[27] 	1
scalar tree_4_3_u03_r20_network.node[28].core_layer 	interests[28] 	11845
scalar tree_4_3_u03_r20_network.node[28].core_layer 	data[28] 	9993
scalar tree_4_3_u03_r20_network.node[28].content_store 	p_hit[28] 	0.15626846770789
scalar tree_4_3_u03_r20_network.node[28].content_store 	hits[28] 	1851
scalar tree_4_3_u03_r20_network.node[28].content_store 	misses[28] 	9994
scalar tree_4_3_u03_r20_network.node[28].content_store 	decision_yes[28] 	9993
scalar tree_4_3_u03_r20_network.node[28].content_store 	decision_no[28] 	0
scalar tree_4_3_u03_r20_network.node[28].content_store 	decision_ratio[28] 	1
scalar tree_4_3_u03_r20_network.node[29].core_layer 	interests[29] 	12061
scalar tree_4_3_u03_r20_network.node[29].core_layer 	data[29] 	10207
scalar tree_4_3_u03_r20_network.node[29].content_store 	p_hit[29] 	0.15371859713125
scalar tree_4_3_u03_r20_network.node[29].content_store 	hits[29] 	1854
scalar tree_4_3_u03_r20_network.node[29].content_store 	misses[29] 	10207
scalar tree_4_3_u03_r20_network.node[29].content_store 	decision_yes[29] 	10207
scalar tree_4_3_u03_r20_network.node[29].content_store 	decision_no[29] 	0
scalar tree_4_3_u03_r20_network.node[29].content_store 	decision_ratio[29] 	1
scalar tree_4_3_u03_r20_network.node[30].core_layer 	interests[30] 	11895
scalar tree_4_3_u03_r20_network.node[30].core_layer 	data[30] 	10028
scalar tree_4_3_u03_r20_network.node[30].content_store 	p_hit[30] 	0.15695670449769
scalar tree_4_3_u03_r20_network.node[30].content_store 	hits[30] 	1867
scalar tree_4_3_u03_r20_network.node[30].content_store 	misses[30] 	10028
scalar tree_4_3_u03_r20_network.node[30].content_store 	decision_yes[30] 	10028
scalar tree_4_3_u03_r20_network.node[30].content_store 	decision_no[30] 	0
scalar tree_4_3_u03_r20_network.node[30].content_store 	decision_ratio[30] 	1
scalar tree_4_3_u03_r20_network.node[31].core_layer 	interests[31] 	12051
scalar tree_4_3_u03_r20_network.node[31].core_layer 	data[31] 	10177
scalar tree_4_3_u03_r20_network.node[31].content_store 	p_hit[31] 	0.15542278649075
scalar tree_4_3_u03_r20_network.node[31].content_store 	hits[31] 	1873
scalar tree_4_3_u03_r20_network.node[31].content_store 	misses[31] 	10178
scalar tree_4_3_u03_r20_network.node[31].content_store 	decision_yes[31] 	10177
scalar tree_4_3_u03_r20_network.node[31].content_store 	decision_no[31] 	0
scalar tree_4_3_u03_r20_network.node[31].content_store 	decision_ratio[31] 	1
scalar tree_4_3_u03_r20_network.node[32].core_layer 	interests[32] 	12017
scalar tree_4_3_u03_r20_network.node[32].core_layer 	data[32] 	10153
scalar tree_4_3_u03_r20_network.node[32].content_store 	p_hit[32] 	0.15511358908213
scalar tree_4_3_u03_r20_network.node[32].content_store 	hits[32] 	1864
scalar tree_4_3_u03_r20_network.node[32].content_store 	misses[32] 	10153
scalar tree_4_3_u03_r20_network.node[32].content_store 	decision_yes[32] 	10153
scalar tree_4_3_u03_r20_network.node[32].content_store 	decision_no[32] 	0
scalar tree_4_3_u03_r20_network.node[32].content_store 	decision_ratio[32] 	1
scalar tree_4_3_u03_r20_network.node[33].core_layer 	interests[33] 	11907
scalar tree_4_3_u03_r20_network.node[33].core_layer 	data[33] 	10109
scalar tree_4_3_u03_r20_network.node[33].content_store 	p_hit[33] 	0.15100361132107
scalar tree_4_3_u03_r20_network.node[33].content_store 	hits[33] 	1798
scalar tree_4_3_u03_r20_network.node[33].content_store 	misses[33] 	10109
scalar tree_4_3_u03_r20_network.node[33].content_store 	decision_yes[33] 	10109
scalar tree_4_3_u03_r20_network.node[33].content_store 	decision_no[33] 	0
scalar tree_4_3_u03_r20_network.node[33].content_store 	decision_ratio[33] 	1
scalar tree_4_3_u03_r20_network.node[34].core_layer 	interests[34] 	11932
scalar tree_4_3_u03_r20_network.node[34].core_layer 	data[34] 	9948
scalar tree_4_3_u03_r20_network.node[34].content_store 	p_hit[34] 	0.16619175326852
scalar tree_4_3_u03_r20_network.node[34].content_store 	hits[34] 	1983
scalar tree_4_3_u03_r20_network.node[34].content_store 	misses[34] 	9949
scalar tree_4_3_u03_r20_network.node[34].content_store 	decision_yes[34] 	9948
scalar tree_4_3_u03_r20_network.node[34].content_store 	decision_no[34] 	0
scalar tree_4_3_u03_r20_network.node[34].content_store 	decision_ratio[34] 	1
scalar tree_4_3_u03_r20_network.node[35].core_layer 	interests[35] 	12182
scalar tree_4_3_u03_r20_network.node[35].core_layer 	data[35] 	10309
scalar tree_4_3_u03_r20_network.node[35].content_store 	p_hit[35] 	0.15375143654572
scalar tree_4_3_u03_r20_network.node[35].content_store 	hits[35] 	1873
scalar tree_4_3_u03_r20_network.node[35].content_store 	misses[35] 	10309
scalar tree_4_3_u03_r20_network.node[35].content_store 	decision_yes[35] 	10309
scalar tree_4_3_u03_r20_network.node[35].content_store 	decision_no[35] 	0
scalar tree_4_3_u03_r20_network.node[35].content_store 	decision_ratio[35] 	1
scalar tree_4_3_u03_r20_network.node[36].core_layer 	interests[36] 	11873
scalar tree_4_3_u03_r20_network.node[36].core_layer 	data[36] 	10017
scalar tree_4_3_u03_r20_network.node[36].content_store 	p_hit[36] 	0.15632106460035
scalar tree_4_3_u03_r20_network.node[36].content_store 	hits[36] 	1856
scalar tree_4_3_u03_r20_network.node[36].content_store 	misses[36] 	10017
scalar tree_4_3_u03_r20_network.node[36].content_store 	decision_yes[36] 	10017
scalar tree_4_3_u03_r20_network.node[36].content_store 	decision_no[36] 	0
scalar tree_4_3_u03_r20_network.node[36].content_store 	decision_ratio[36] 	1
scalar tree_4_3_u03_r20_network.node[37].core_layer 	interests[37] 	12028
scalar tree_4_3_u03_r20_network.node[37].core_layer 	data[37] 	10157
scalar tree_4_3_u03_r20_network.node[37].content_store 	p_hit[37] 	0.1554705686731
scalar tree_4_3_u03_r20_network.node[37].content_store 	hits[37] 	1870
scalar tree_4_3_u03_r20_network.node[37].content_store 	misses[37] 	10158
scalar tree_4_3_u03_r20_network.node[37].content_store 	decision_yes[37] 	10157
scalar tree_4_3_u03_r20_network.node[37].content_store 	decision_no[37] 	0
scalar tree_4_3_u03_r20_network.node[37].content_store 	decision_ratio[37] 	1
scalar tree_4_3_u03_r20_network.node[38].core_layer 	interests[38] 	11863
scalar tree_4_3_u03_r20_network.node[38].core_layer 	data[38] 	9997
scalar tree_4_3_u03_r20_network.node[38].content_store 	p_hit[38] 	0.1572957936441
scalar tree_4_3_u03_r20_network.node[38].content_store 	hits[38] 	1866
scalar tree_4_3_u03_r20_network.node[38].content_store 	misses[38] 	9997
scalar tree_4_3_u03_r20_network.node[38].content_store 	decision_yes[38] 	9997
scalar tree_4_3_u03_r20_network.node[38].content_store 	decision_no[38] 	0
scalar tree_4_3_u03_r20_network.node[38].content_store 	decision_ratio[38] 	1
scalar tree_4_3_u03_r20_network.node[39].core_layer 	interests[39] 	12153
scalar tree_4_3_u03_r20_network.node[39].core_layer 	data[39] 	10221
scalar tree_4_3_u03_r20_network.node[39].content_store 	p_hit[39] 	0.15889080885378
scalar tree_4_3_u03_r20_network.node[39].content_store 	hits[39] 	1931
scalar tree_4_3_u03_r20_network.node[39].content_store 	misses[39] 	10222
scalar tree_4_3_u03_r20_network.node[39].content_store 	decision_yes[39] 	10221
scalar tree_4_3_u03_r20_network.node[39].content_store 	decision_no[39] 	0
scalar tree_4_3_u03_r20_network.node[39].content_store 	decision_ratio[39] 	1
scalar tree_4_3_u03_r20_network.client[13] 	hdistance[13] 	3.231698176064
scalar tree_4_3_u03_r20_network.client[13] 	downloads[13] 	12007
scalar tree_4_3_u03_r20_network.client[13] 	avg_time[13] 	0.00489980545
scalar tree_4_3_u03_r20_network.client[14] 	hdistance[14] 	3.2441558441558
scalar tree_4_3_u03_r20_network.client[14] 	downloads[14] 	11935
scalar tree_4_3_u03_r20_network.client[14] 	avg_time[14] 	0.004915958485
scalar tree_4_3_u03_r20_network.client[15] 	hdistance[15] 	3.2802295164965
scalar tree_4_3_u03_r20_network.client[15] 	downloads[15] 	11851
scalar tree_4_3_u03_r20_network.client[15] 	avg_time[15] 	0.004973416972
scalar tree_4_3_u03_r20_network.client[16] 	hdistance[16] 	3.2446114460319
scalar tree_4_3_u03_r20_network.client[16] 	downloads[16] 	12109
scalar tree_4_3_u03_r20_network.client[16] 	avg_time[16] 	0.004916640948
scalar tree_4_3_u03_r20_network.client[17] 	hdistance[17] 	3.26391889646
scalar tree_4_3_u03_r20_network.client[17] 	downloads[17] 	12034
scalar tree_4_3_u03_r20_network.client[17] 	avg_time[17] 	0.004946448777
scalar tree_4_3_u03_r20_network.client[18] 	hdistance[18] 	3.2197647448641
scalar tree_4_3_u03_r20_network.client[18] 	downloads[18] 	12072
scalar tree_4_3_u03_r20_network.client[18] 	avg_time[18] 	0.00488427631
scalar tree_4_3_u03_r20_network.client[19] 	hdistance[19] 	3.2129792032072
scalar tree_4_3_u03_r20_network.client[19] 	downloads[19] 	11973
scalar tree_4_3_u03_r20_network.client[19] 	avg_time[19] 	0.004871123698
scalar tree_4_3_u03_r20_network.client[20] 	hdistance[20] 	3.252474012474
scalar tree_4_3_u03_r20_network.client[20] 	downloads[20] 	12025
scalar tree_4_3_u03_r20_network.client[20] 	avg_time[20] 	0.004933728589
scalar tree_4_3_u03_r20_network.client[21] 	hdistance[21] 	3.2651251450356
scalar tree_4_3_u03_r20_network.client[21] 	downloads[21] 	12066
scalar tree_4_3_u03_r20_network.client[21] 	avg_time[21] 	0.004953987878
scalar tree_4_3_u03_r20_network.client[22] 	hdistance[22] 	3.2572056461837
scalar tree_4_3_u03_r20_network.client[22] 	downloads[22] 	11831
scalar tree_4_3_u03_r20_network.client[22] 	avg_time[22] 	0.004939779534
scalar tree_4_3_u03_r20_network.client[23] 	hdistance[23] 	3.2363743576784
scalar tree_4_3_u03_r20_network.client[23] 	downloads[23] 	11871
scalar tree_4_3_u03_r20_network.client[23] 	avg_time[23] 	0.004907065429
scalar tree_4_3_u03_r20_network.client[24] 	hdistance[24] 	3.2270992366412
scalar tree_4_3_u03_r20_network.client[24] 	downloads[24] 	12052
scalar tree_4_3_u03_r20_network.client[24] 	avg_time[24] 	0.004892590436
scalar tree_4_3_u03_r20_network.client[25] 	hdistance[25] 	3.2574635971691
scalar tree_4_3_u03_r20_network.client[25] 	downloads[25] 	12293
scalar tree_4_3_u03_r20_network.client[25] 	avg_time[25] 	0.004938213418
scalar tree_4_3_u03_r20_network.client[26] 	hdistance[26] 	3.2663828366308
scalar tree_4_3_u03_r20_network.client[26] 	downloads[26] 	11979
scalar tree_4_3_u03_r20_network.client[26] 	avg_time[26] 	0.004950844855
scalar tree_4_3_u03_r20_network.client[27] 	hdistance[27] 	3.2533488642982
scalar tree_4_3_u03_r20_network.client[27] 	downloads[27] 	12019
scalar tree_4_3_u03_r20_network.client[27] 	avg_time[27] 	0.004930523664
scalar tree_4_3_u03_r20_network.client[28] 	hdistance[28] 	3.250506585613
scalar tree_4_3_u03_r20_network.client[28] 	downloads[28] 	11844
scalar tree_4_3_u03_r20_network.client[28] 	avg_time[28] 	0.004932406278
scalar tree_4_3_u03_r20_network.client[29] 	hdistance[29] 	3.2536273940801
scalar tree_4_3_u03_r20_network.client[29] 	downloads[29] 	12061
scalar tree_4_3_u03_r20_network.client[29] 	avg_time[29] 	0.004933565496
scalar tree_4_3_u03_r20_network.client[30] 	hdistance[30] 	3.2591845313157
scalar tree_4_3_u03_r20_network.client[30] 	downloads[30] 	11895
scalar tree_4_3_u03_r20_network.client[30] 	avg_time[30] 	0.0049422829
scalar tree_4_3_u03_r20_network.client[31] 	hdistance[31] 	3.2577593360996
scalar tree_4_3_u03_r20_network.client[31] 	downloads[31] 	12050
scalar tree_4_3_u03_r20_network.client[31] 	avg_time[31] 	0.004935074817
scalar tree_4_3_u03_r20_network.client[32] 	hdistance[32] 	3.2648747607556
scalar tree_4_3_u03_r20_network.client[32] 	downloads[32] 	12017
scalar tree_4_3_u03_r20_network.client[32] 	avg_time[32] 	0.004944704068
scalar tree_4_3_u03_r20_network.client[33] 	hdistance[33] 	3.2704291593181
scalar tree_4_3_u03_r20_network.client[33] 	downloads[33] 	11907
scalar tree_4_3_u03_r20_network.client[33] 	avg_time[33] 	0.004955765655
scalar tree_4_3_u03_r20_network.client[34] 	hdistance[34] 	3.2175006286145
scalar tree_4_3_u03_r20_network.client[34] 	downloads[34] 	11931
scalar tree_4_3_u03_r20_network.client[34] 	avg_time[34] 	0.00487338658
scalar tree_4_3_u03_r20_network.client[35] 	hdistance[35] 	3.2741750123132
scalar tree_4_3_u03_r20_network.client[35] 	downloads[35] 	12182
scalar tree_4_3_u03_r20_network.client[35] 	avg_time[35] 	0.004964408738
scalar tree_4_3_u03_r20_network.client[36] 	hdistance[36] 	3.2573907184368
scalar tree_4_3_u03_r20_network.client[36] 	downloads[36] 	11873
scalar tree_4_3_u03_r20_network.client[36] 	avg_time[36] 	0.004938765672
scalar tree_4_3_u03_r20_network.client[37] 	hdistance[37] 	3.2561736093789
scalar tree_4_3_u03_r20_network.client[37] 	downloads[37] 	12027
scalar tree_4_3_u03_r20_network.client[37] 	avg_time[37] 	0.004931458565
scalar tree_4_3_u03_r20_network.client[38] 	hdistance[38] 	3.2524656494984
scalar tree_4_3_u03_r20_network.client[38] 	downloads[38] 	11863
scalar tree_4_3_u03_r20_network.client[38] 	avg_time[38] 	0.004936690963
scalar tree_4_3_u03_r20_network.client[39] 	hdistance[39] 	3.2560072416063
scalar tree_4_3_u03_r20_network.client[39] 	downloads[39] 	12152
scalar tree_4_3_u03_r20_network.client[39] 	avg_time[39] 	0.004937269696
