version 2
run General-65-20160820-14:49:05-2644
attr a 0.9
attr cd lce
attr configname General
attr cr lru
attr datetime 20160820-14:49:05
attr experiment General
attr fsize 1
attr inifile hw5115/scenario_A/SPR-LCE.ini
attr iterationvars "$name=tree_4_3, $un=03, $rep=6, $cd=lce, $cr=lru, $fsize=1, $a=0.9, $sl=spr, $ttl=1000, $variance=0.05"
attr iterationvars2 "$name=tree_4_3, $un=03, $rep=6, $cd=lce, $cr=lru, $fsize=1, $a=0.9, $sl=spr, $ttl=1000, $variance=0.05, $repetition=0"
attr measurement "$name=tree_4_3, $un=03, $rep=6, $cd=lce, $cr=lru, $fsize=1, $a=0.9, $sl=spr, $ttl=1000, $variance=0.05"
attr name tree_4_3
attr network networks.${name}_u${un}_r${rep}_network
attr processid 2644
attr rep 6
attr repetition 0
attr replication #0
attr resultdir results
attr runnumber 65
attr seedset 6
attr sl spr
attr ttl 1000
attr un 03
attr variance 0.05

scalar . 	a 	0.9
scalar . 	fsize 	1
scalar . 	rep 	6
scalar . 	ttl 	1000
scalar . 	un 	03
scalar . 	variance 	0.05
scalar tree_4_3_u03_r6_network.content_distribution 	repo-0 	0
scalar tree_4_3_u03_r6_network.content_distribution 	client-0 	13
scalar tree_4_3_u03_r6_network.content_distribution 	client-1 	14
scalar tree_4_3_u03_r6_network.content_distribution 	client-2 	15
scalar tree_4_3_u03_r6_network.content_distribution 	client-3 	16
scalar tree_4_3_u03_r6_network.content_distribution 	client-4 	17
scalar tree_4_3_u03_r6_network.content_distribution 	client-5 	18
scalar tree_4_3_u03_r6_network.content_distribution 	client-6 	19
scalar tree_4_3_u03_r6_network.content_distribution 	client-7 	20
scalar tree_4_3_u03_r6_network.content_distribution 	client-8 	21
scalar tree_4_3_u03_r6_network.content_distribution 	client-9 	22
scalar tree_4_3_u03_r6_network.content_distribution 	client-10 	23
scalar tree_4_3_u03_r6_network.content_distribution 	client-11 	24
scalar tree_4_3_u03_r6_network.content_distribution 	client-12 	25
scalar tree_4_3_u03_r6_network.content_distribution 	client-13 	26
scalar tree_4_3_u03_r6_network.content_distribution 	client-14 	27
scalar tree_4_3_u03_r6_network.content_distribution 	client-15 	28
scalar tree_4_3_u03_r6_network.content_distribution 	client-16 	29
scalar tree_4_3_u03_r6_network.content_distribution 	client-17 	30
scalar tree_4_3_u03_r6_network.content_distribution 	client-18 	31
scalar tree_4_3_u03_r6_network.content_distribution 	client-19 	32
scalar tree_4_3_u03_r6_network.content_distribution 	client-20 	33
scalar tree_4_3_u03_r6_network.content_distribution 	client-21 	34
scalar tree_4_3_u03_r6_network.content_distribution 	client-22 	35
scalar tree_4_3_u03_r6_network.content_distribution 	client-23 	36
scalar tree_4_3_u03_r6_network.content_distribution 	client-24 	37
scalar tree_4_3_u03_r6_network.content_distribution 	client-25 	38
scalar tree_4_3_u03_r6_network.content_distribution 	client-26 	39
scalar tree_4_3_u03_r6_network.content_distribution 	repo-0_card 	100000
scalar tree_4_3_u03_r6_network.content_distribution 	repo-0_price 	0
scalar tree_4_3_u03_r6_network.statistics 	stabilization_time 	566.1
scalar tree_4_3_u03_r6_network.statistics 	p_hit 	0.11397059514899
scalar tree_4_3_u03_r6_network.statistics 	interests 	28065.5
scalar tree_4_3_u03_r6_network.statistics 	data 	19962.7
scalar tree_4_3_u03_r6_network.statistics 	hdistance 	3.2504636172199
scalar tree_4_3_u03_r6_network.statistics 	avg_time 	0.004927857073
scalar tree_4_3_u03_r6_network.statistics 	downloads 	324087
scalar tree_4_3_u03_r6_network.statistics 	total_cost 	0
scalar tree_4_3_u03_r6_network.statistics 	total_replicas 	100000
scalar tree_4_3_u03_r6_network.statistics 	inner_hit 	0.21371730430409
scalar tree_4_3_u03_r6_network.node[0].core_layer 	interests[0] 	259665
scalar tree_4_3_u03_r6_network.node[0].core_layer 	repo_load[0] 	254824
scalar tree_4_3_u03_r6_network.node[0].core_layer 	data[0] 	0
scalar tree_4_3_u03_r6_network.node[0].core_layer 	repo_int[0] 	254824
scalar tree_4_3_u03_r6_network.node[0].content_store 	p_hit[0] 	0.018643251882233
scalar tree_4_3_u03_r6_network.node[0].content_store 	hits[0] 	4841
scalar tree_4_3_u03_r6_network.node[0].content_store 	misses[0] 	254824
scalar tree_4_3_u03_r6_network.node[0].content_store 	decision_yes[0] 	254824
scalar tree_4_3_u03_r6_network.node[0].content_store 	decision_no[0] 	0
scalar tree_4_3_u03_r6_network.node[0].content_store 	decision_ratio[0] 	1
scalar tree_4_3_u03_r6_network.node[1].core_layer 	interests[1] 	88451
scalar tree_4_3_u03_r6_network.node[1].core_layer 	data[1] 	86533
scalar tree_4_3_u03_r6_network.node[1].content_store 	p_hit[1] 	0.021548654057049
scalar tree_4_3_u03_r6_network.node[1].content_store 	hits[1] 	1906
scalar tree_4_3_u03_r6_network.node[1].content_store 	misses[1] 	86545
scalar tree_4_3_u03_r6_network.node[1].content_store 	decision_yes[1] 	86533
scalar tree_4_3_u03_r6_network.node[1].content_store 	decision_no[1] 	0
scalar tree_4_3_u03_r6_network.node[1].content_store 	decision_ratio[1] 	1
scalar tree_4_3_u03_r6_network.node[2].core_layer 	interests[2] 	88315
scalar tree_4_3_u03_r6_network.node[2].core_layer 	data[2] 	86368
scalar tree_4_3_u03_r6_network.node[2].content_store 	p_hit[2] 	0.021898884674178
scalar tree_4_3_u03_r6_network.node[2].content_store 	hits[2] 	1934
scalar tree_4_3_u03_r6_network.node[2].content_store 	misses[2] 	86381
scalar tree_4_3_u03_r6_network.node[2].content_store 	decision_yes[2] 	86368
scalar tree_4_3_u03_r6_network.node[2].content_store 	decision_no[2] 	0
scalar tree_4_3_u03_r6_network.node[2].content_store 	decision_ratio[2] 	1
scalar tree_4_3_u03_r6_network.node[3].core_layer 	interests[3] 	88681
scalar tree_4_3_u03_r6_network.node[3].core_layer 	data[3] 	86762
scalar tree_4_3_u03_r6_network.node[3].content_store 	p_hit[3] 	0.021571700815282
scalar tree_4_3_u03_r6_network.node[3].content_store 	hits[3] 	1913
scalar tree_4_3_u03_r6_network.node[3].content_store 	misses[3] 	86768
scalar tree_4_3_u03_r6_network.node[3].content_store 	decision_yes[3] 	86762
scalar tree_4_3_u03_r6_network.node[3].content_store 	decision_no[3] 	0
scalar tree_4_3_u03_r6_network.node[3].content_store 	decision_ratio[3] 	1
scalar tree_4_3_u03_r6_network.node[4].core_layer 	interests[4] 	40638
scalar tree_4_3_u03_r6_network.node[4].core_layer 	data[4] 	39348
scalar tree_4_3_u03_r6_network.node[4].content_store 	p_hit[4] 	0.03162065062257
scalar tree_4_3_u03_r6_network.node[4].content_store 	hits[4] 	1285
scalar tree_4_3_u03_r6_network.node[4].content_store 	misses[4] 	39353
scalar tree_4_3_u03_r6_network.node[4].content_store 	decision_yes[4] 	39348
scalar tree_4_3_u03_r6_network.node[4].content_store 	decision_no[4] 	0
scalar tree_4_3_u03_r6_network.node[4].content_store 	decision_ratio[4] 	1
scalar tree_4_3_u03_r6_network.node[5].core_layer 	interests[5] 	20123
scalar tree_4_3_u03_r6_network.node[5].core_layer 	data[5] 	19646
scalar tree_4_3_u03_r6_network.node[5].content_store 	p_hit[5] 	0.023704219052825
scalar tree_4_3_u03_r6_network.node[5].content_store 	hits[5] 	477
scalar tree_4_3_u03_r6_network.node[5].content_store 	misses[5] 	19646
scalar tree_4_3_u03_r6_network.node[5].content_store 	decision_yes[5] 	19646
scalar tree_4_3_u03_r6_network.node[5].content_store 	decision_no[5] 	0
scalar tree_4_3_u03_r6_network.node[5].content_store 	decision_ratio[5] 	1
scalar tree_4_3_u03_r6_network.node[6].core_layer 	interests[6] 	30292
scalar tree_4_3_u03_r6_network.node[6].core_layer 	data[6] 	29456
scalar tree_4_3_u03_r6_network.node[6].content_store 	p_hit[6] 	0.027465997623135
scalar tree_4_3_u03_r6_network.node[6].content_store 	hits[6] 	832
scalar tree_4_3_u03_r6_network.node[6].content_store 	misses[6] 	29460
scalar tree_4_3_u03_r6_network.node[6].content_store 	decision_yes[6] 	29456
scalar tree_4_3_u03_r6_network.node[6].content_store 	decision_no[6] 	0
scalar tree_4_3_u03_r6_network.node[6].content_store 	decision_ratio[6] 	1
scalar tree_4_3_u03_r6_network.node[7].core_layer 	interests[7] 	40531
scalar tree_4_3_u03_r6_network.node[7].core_layer 	data[7] 	39231
scalar tree_4_3_u03_r6_network.node[7].content_store 	p_hit[7] 	0.032024869852705
scalar tree_4_3_u03_r6_network.node[7].content_store 	hits[7] 	1298
scalar tree_4_3_u03_r6_network.node[7].content_store 	misses[7] 	39233
scalar tree_4_3_u03_r6_network.node[7].content_store 	decision_yes[7] 	39231
scalar tree_4_3_u03_r6_network.node[7].content_store 	decision_no[7] 	0
scalar tree_4_3_u03_r6_network.node[7].content_store 	decision_ratio[7] 	1
scalar tree_4_3_u03_r6_network.node[8].core_layer 	interests[8] 	30207
scalar tree_4_3_u03_r6_network.node[8].core_layer 	data[8] 	29292
scalar tree_4_3_u03_r6_network.node[8].content_store 	p_hit[8] 	0.03022478233522
scalar tree_4_3_u03_r6_network.node[8].content_store 	hits[8] 	913
scalar tree_4_3_u03_r6_network.node[8].content_store 	misses[8] 	29294
scalar tree_4_3_u03_r6_network.node[8].content_store 	decision_yes[8] 	29292
scalar tree_4_3_u03_r6_network.node[8].content_store 	decision_no[8] 	0
scalar tree_4_3_u03_r6_network.node[8].content_store 	decision_ratio[8] 	1
scalar tree_4_3_u03_r6_network.node[9].core_layer 	interests[9] 	20280
scalar tree_4_3_u03_r6_network.node[9].core_layer 	data[9] 	19791
scalar tree_4_3_u03_r6_network.node[9].content_store 	p_hit[9] 	0.024013806706114
scalar tree_4_3_u03_r6_network.node[9].content_store 	hits[9] 	487
scalar tree_4_3_u03_r6_network.node[9].content_store 	misses[9] 	19793
scalar tree_4_3_u03_r6_network.node[9].content_store 	decision_yes[9] 	19791
scalar tree_4_3_u03_r6_network.node[9].content_store 	decision_no[9] 	0
scalar tree_4_3_u03_r6_network.node[9].content_store 	decision_ratio[9] 	1
scalar tree_4_3_u03_r6_network.node[10].core_layer 	interests[10] 	40701
scalar tree_4_3_u03_r6_network.node[10].core_layer 	data[10] 	39391
scalar tree_4_3_u03_r6_network.node[10].content_store 	p_hit[10] 	0.032112233114665
scalar tree_4_3_u03_r6_network.node[10].content_store 	hits[10] 	1307
scalar tree_4_3_u03_r6_network.node[10].content_store 	misses[10] 	39394
scalar tree_4_3_u03_r6_network.node[10].content_store 	decision_yes[10] 	39391
scalar tree_4_3_u03_r6_network.node[10].content_store 	decision_no[10] 	0
scalar tree_4_3_u03_r6_network.node[10].content_store 	decision_ratio[10] 	1
scalar tree_4_3_u03_r6_network.node[11].core_layer 	interests[11] 	20225
scalar tree_4_3_u03_r6_network.node[11].core_layer 	data[11] 	19772
scalar tree_4_3_u03_r6_network.node[11].content_store 	p_hit[11] 	0.022348578491965
scalar tree_4_3_u03_r6_network.node[11].content_store 	hits[11] 	452
scalar tree_4_3_u03_r6_network.node[11].content_store 	misses[11] 	19773
scalar tree_4_3_u03_r6_network.node[11].content_store 	decision_yes[11] 	19772
scalar tree_4_3_u03_r6_network.node[11].content_store 	decision_no[11] 	0
scalar tree_4_3_u03_r6_network.node[11].content_store 	decision_ratio[11] 	1
scalar tree_4_3_u03_r6_network.node[12].core_layer 	interests[12] 	30407
scalar tree_4_3_u03_r6_network.node[12].core_layer 	data[12] 	29517
scalar tree_4_3_u03_r6_network.node[12].content_store 	p_hit[12] 	0.029236688920314
scalar tree_4_3_u03_r6_network.node[12].content_store 	hits[12] 	889
scalar tree_4_3_u03_r6_network.node[12].content_store 	misses[12] 	29518
scalar tree_4_3_u03_r6_network.node[12].content_store 	decision_yes[12] 	29517
scalar tree_4_3_u03_r6_network.node[12].content_store 	decision_no[12] 	0
scalar tree_4_3_u03_r6_network.node[12].content_store 	decision_ratio[12] 	1
scalar tree_4_3_u03_r6_network.node[13].core_layer 	interests[13] 	12145
scalar tree_4_3_u03_r6_network.node[13].core_layer 	data[13] 	10266
scalar tree_4_3_u03_r6_network.node[13].content_store 	p_hit[13] 	0.15454919720049
scalar tree_4_3_u03_r6_network.node[13].content_store 	hits[13] 	1877
scalar tree_4_3_u03_r6_network.node[13].content_store 	misses[13] 	10268
scalar tree_4_3_u03_r6_network.node[13].content_store 	decision_yes[13] 	10266
scalar tree_4_3_u03_r6_network.node[13].content_store 	decision_no[13] 	0
scalar tree_4_3_u03_r6_network.node[13].content_store 	decision_ratio[13] 	1
scalar tree_4_3_u03_r6_network.node[14].core_layer 	interests[14] 	11885
scalar tree_4_3_u03_r6_network.node[14].core_layer 	data[14] 	10066
scalar tree_4_3_u03_r6_network.node[14].content_store 	p_hit[14] 	0.15305006310475
scalar tree_4_3_u03_r6_network.node[14].content_store 	hits[14] 	1819
scalar tree_4_3_u03_r6_network.node[14].content_store 	misses[14] 	10066
scalar tree_4_3_u03_r6_network.node[14].content_store 	decision_yes[14] 	10066
scalar tree_4_3_u03_r6_network.node[14].content_store 	decision_no[14] 	0
scalar tree_4_3_u03_r6_network.node[14].content_store 	decision_ratio[14] 	1
scalar tree_4_3_u03_r6_network.node[15].core_layer 	interests[15] 	12117
scalar tree_4_3_u03_r6_network.node[15].core_layer 	data[15] 	10231
scalar tree_4_3_u03_r6_network.node[15].content_store 	p_hit[15] 	0.1556490880581
scalar tree_4_3_u03_r6_network.node[15].content_store 	hits[15] 	1886
scalar tree_4_3_u03_r6_network.node[15].content_store 	misses[15] 	10231
scalar tree_4_3_u03_r6_network.node[15].content_store 	decision_yes[15] 	10231
scalar tree_4_3_u03_r6_network.node[15].content_store 	decision_no[15] 	0
scalar tree_4_3_u03_r6_network.node[15].content_store 	decision_ratio[15] 	1
scalar tree_4_3_u03_r6_network.node[16].core_layer 	interests[16] 	11978
scalar tree_4_3_u03_r6_network.node[16].core_layer 	data[16] 	10075
scalar tree_4_3_u03_r6_network.node[16].content_store 	p_hit[16] 	0.15879111704792
scalar tree_4_3_u03_r6_network.node[16].content_store 	hits[16] 	1902
scalar tree_4_3_u03_r6_network.node[16].content_store 	misses[16] 	10076
scalar tree_4_3_u03_r6_network.node[16].content_store 	decision_yes[16] 	10075
scalar tree_4_3_u03_r6_network.node[16].content_store 	decision_no[16] 	0
scalar tree_4_3_u03_r6_network.node[16].content_store 	decision_ratio[16] 	1
scalar tree_4_3_u03_r6_network.node[17].core_layer 	interests[17] 	12170
scalar tree_4_3_u03_r6_network.node[17].core_layer 	data[17] 	10216
scalar tree_4_3_u03_r6_network.node[17].content_store 	p_hit[17] 	0.16047658175842
scalar tree_4_3_u03_r6_network.node[17].content_store 	hits[17] 	1953
scalar tree_4_3_u03_r6_network.node[17].content_store 	misses[17] 	10217
scalar tree_4_3_u03_r6_network.node[17].content_store 	decision_yes[17] 	10216
scalar tree_4_3_u03_r6_network.node[17].content_store 	decision_no[17] 	0
scalar tree_4_3_u03_r6_network.node[17].content_store 	decision_ratio[17] 	1
scalar tree_4_3_u03_r6_network.node[18].core_layer 	interests[18] 	11766
scalar tree_4_3_u03_r6_network.node[18].core_layer 	data[18] 	9907
scalar tree_4_3_u03_r6_network.node[18].content_store 	p_hit[18] 	0.15791262961074
scalar tree_4_3_u03_r6_network.node[18].content_store 	hits[18] 	1858
scalar tree_4_3_u03_r6_network.node[18].content_store 	misses[18] 	9908
scalar tree_4_3_u03_r6_network.node[18].content_store 	decision_yes[18] 	9907
scalar tree_4_3_u03_r6_network.node[18].content_store 	decision_no[18] 	0
scalar tree_4_3_u03_r6_network.node[18].content_store 	decision_ratio[18] 	1
scalar tree_4_3_u03_r6_network.node[19].core_layer 	interests[19] 	11972
scalar tree_4_3_u03_r6_network.node[19].core_layer 	data[19] 	10162
scalar tree_4_3_u03_r6_network.node[19].content_store 	p_hit[19] 	0.1511861009021
scalar tree_4_3_u03_r6_network.node[19].content_store 	hits[19] 	1810
scalar tree_4_3_u03_r6_network.node[19].content_store 	misses[19] 	10162
scalar tree_4_3_u03_r6_network.node[19].content_store 	decision_yes[19] 	10162
scalar tree_4_3_u03_r6_network.node[19].content_store 	decision_no[19] 	0
scalar tree_4_3_u03_r6_network.node[19].content_store 	decision_ratio[19] 	1
scalar tree_4_3_u03_r6_network.node[20].core_layer 	interests[20] 	11888
scalar tree_4_3_u03_r6_network.node[20].core_layer 	data[20] 	10004
scalar tree_4_3_u03_r6_network.node[20].content_store 	p_hit[20] 	0.1582267833109
scalar tree_4_3_u03_r6_network.node[20].content_store 	hits[20] 	1881
scalar tree_4_3_u03_r6_network.node[20].content_store 	misses[20] 	10007
scalar tree_4_3_u03_r6_network.node[20].content_store 	decision_yes[20] 	10004
scalar tree_4_3_u03_r6_network.node[20].content_store 	decision_no[20] 	0
scalar tree_4_3_u03_r6_network.node[20].content_store 	decision_ratio[20] 	1
scalar tree_4_3_u03_r6_network.node[21].core_layer 	interests[21] 	11982
scalar tree_4_3_u03_r6_network.node[21].core_layer 	data[21] 	10125
scalar tree_4_3_u03_r6_network.node[21].content_store 	p_hit[21] 	0.15498247371057
scalar tree_4_3_u03_r6_network.node[21].content_store 	hits[21] 	1857
scalar tree_4_3_u03_r6_network.node[21].content_store 	misses[21] 	10125
scalar tree_4_3_u03_r6_network.node[21].content_store 	decision_yes[21] 	10125
scalar tree_4_3_u03_r6_network.node[21].content_store 	decision_no[21] 	0
scalar tree_4_3_u03_r6_network.node[21].content_store 	decision_ratio[21] 	1
scalar tree_4_3_u03_r6_network.node[22].core_layer 	interests[22] 	11958
scalar tree_4_3_u03_r6_network.node[22].core_layer 	data[22] 	10079
scalar tree_4_3_u03_r6_network.node[22].content_store 	p_hit[22] 	0.15713329988292
scalar tree_4_3_u03_r6_network.node[22].content_store 	hits[22] 	1879
scalar tree_4_3_u03_r6_network.node[22].content_store 	misses[22] 	10079
scalar tree_4_3_u03_r6_network.node[22].content_store 	decision_yes[22] 	10079
scalar tree_4_3_u03_r6_network.node[22].content_store 	decision_no[22] 	0
scalar tree_4_3_u03_r6_network.node[22].content_store 	decision_ratio[22] 	1
scalar tree_4_3_u03_r6_network.node[23].core_layer 	interests[23] 	12077
scalar tree_4_3_u03_r6_network.node[23].core_layer 	data[23] 	10155
scalar tree_4_3_u03_r6_network.node[23].content_store 	p_hit[23] 	0.15906268112942
scalar tree_4_3_u03_r6_network.node[23].content_store 	hits[23] 	1921
scalar tree_4_3_u03_r6_network.node[23].content_store 	misses[23] 	10156
scalar tree_4_3_u03_r6_network.node[23].content_store 	decision_yes[23] 	10155
scalar tree_4_3_u03_r6_network.node[23].content_store 	decision_no[23] 	0
scalar tree_4_3_u03_r6_network.node[23].content_store 	decision_ratio[23] 	1
scalar tree_4_3_u03_r6_network.node[24].core_layer 	interests[24] 	11936
scalar tree_4_3_u03_r6_network.node[24].core_layer 	data[24] 	10038
scalar tree_4_3_u03_r6_network.node[24].content_store 	p_hit[24] 	0.15901474530831
scalar tree_4_3_u03_r6_network.node[24].content_store 	hits[24] 	1898
scalar tree_4_3_u03_r6_network.node[24].content_store 	misses[24] 	10038
scalar tree_4_3_u03_r6_network.node[24].content_store 	decision_yes[24] 	10038
scalar tree_4_3_u03_r6_network.node[24].content_store 	decision_no[24] 	0
scalar tree_4_3_u03_r6_network.node[24].content_store 	decision_ratio[24] 	1
scalar tree_4_3_u03_r6_network.node[25].core_layer 	interests[25] 	12132
scalar tree_4_3_u03_r6_network.node[25].core_layer 	data[25] 	10259
scalar tree_4_3_u03_r6_network.node[25].content_store 	p_hit[25] 	0.15438509726344
scalar tree_4_3_u03_r6_network.node[25].content_store 	hits[25] 	1873
scalar tree_4_3_u03_r6_network.node[25].content_store 	misses[25] 	10259
scalar tree_4_3_u03_r6_network.node[25].content_store 	decision_yes[25] 	10259
scalar tree_4_3_u03_r6_network.node[25].content_store 	decision_no[25] 	0
scalar tree_4_3_u03_r6_network.node[25].content_store 	decision_ratio[25] 	1
scalar tree_4_3_u03_r6_network.node[26].core_layer 	interests[26] 	11725
scalar tree_4_3_u03_r6_network.node[26].core_layer 	data[26] 	9903
scalar tree_4_3_u03_r6_network.node[26].content_store 	p_hit[26] 	0.1553091684435
scalar tree_4_3_u03_r6_network.node[26].content_store 	hits[26] 	1821
scalar tree_4_3_u03_r6_network.node[26].content_store 	misses[26] 	9904
scalar tree_4_3_u03_r6_network.node[26].content_store 	decision_yes[26] 	9903
scalar tree_4_3_u03_r6_network.node[26].content_store 	decision_no[26] 	0
scalar tree_4_3_u03_r6_network.node[26].content_store 	decision_ratio[26] 	1
scalar tree_4_3_u03_r6_network.node[27].core_layer 	interests[27] 	12046
scalar tree_4_3_u03_r6_network.node[27].core_layer 	data[27] 	10177
scalar tree_4_3_u03_r6_network.node[27].content_store 	p_hit[27] 	0.15515523825336
scalar tree_4_3_u03_r6_network.node[27].content_store 	hits[27] 	1869
scalar tree_4_3_u03_r6_network.node[27].content_store 	misses[27] 	10177
scalar tree_4_3_u03_r6_network.node[27].content_store 	decision_yes[27] 	10177
scalar tree_4_3_u03_r6_network.node[27].content_store 	decision_no[27] 	0
scalar tree_4_3_u03_r6_network.node[27].content_store 	decision_ratio[27] 	1
scalar tree_4_3_u03_r6_network.node[28].core_layer 	interests[28] 	11899
scalar tree_4_3_u03_r6_network.node[28].core_layer 	data[28] 	10064
scalar tree_4_3_u03_r6_network.node[28].content_store 	p_hit[28] 	0.15413059921002
scalar tree_4_3_u03_r6_network.node[28].content_store 	hits[28] 	1834
scalar tree_4_3_u03_r6_network.node[28].content_store 	misses[28] 	10065
scalar tree_4_3_u03_r6_network.node[28].content_store 	decision_yes[28] 	10064
scalar tree_4_3_u03_r6_network.node[28].content_store 	decision_no[28] 	0
scalar tree_4_3_u03_r6_network.node[28].content_store 	decision_ratio[28] 	1
scalar tree_4_3_u03_r6_network.node[29].core_layer 	interests[29] 	12036
scalar tree_4_3_u03_r6_network.node[29].core_layer 	data[29] 	10127
scalar tree_4_3_u03_r6_network.node[29].content_store 	p_hit[29] 	0.15852442671984
scalar tree_4_3_u03_r6_network.node[29].content_store 	hits[29] 	1908
scalar tree_4_3_u03_r6_network.node[29].content_store 	misses[29] 	10128
scalar tree_4_3_u03_r6_network.node[29].content_store 	decision_yes[29] 	10127
scalar tree_4_3_u03_r6_network.node[29].content_store 	decision_no[29] 	0
scalar tree_4_3_u03_r6_network.node[29].content_store 	decision_ratio[29] 	1
scalar tree_4_3_u03_r6_network.node[30].core_layer 	interests[30] 	12051
scalar tree_4_3_u03_r6_network.node[30].core_layer 	data[30] 	10215
scalar tree_4_3_u03_r6_network.node[30].content_store 	p_hit[30] 	0.15218654053606
scalar tree_4_3_u03_r6_network.node[30].content_store 	hits[30] 	1834
scalar tree_4_3_u03_r6_network.node[30].content_store 	misses[30] 	10217
scalar tree_4_3_u03_r6_network.node[30].content_store 	decision_yes[30] 	10215
scalar tree_4_3_u03_r6_network.node[30].content_store 	decision_no[30] 	0
scalar tree_4_3_u03_r6_network.node[30].content_store 	decision_ratio[30] 	1
scalar tree_4_3_u03_r6_network.node[31].core_layer 	interests[31] 	11926
scalar tree_4_3_u03_r6_network.node[31].core_layer 	data[31] 	10062
scalar tree_4_3_u03_r6_network.node[31].content_store 	p_hit[31] 	0.15629716585611
scalar tree_4_3_u03_r6_network.node[31].content_store 	hits[31] 	1864
scalar tree_4_3_u03_r6_network.node[31].content_store 	misses[31] 	10062
scalar tree_4_3_u03_r6_network.node[31].content_store 	decision_yes[31] 	10062
scalar tree_4_3_u03_r6_network.node[31].content_store 	decision_no[31] 	0
scalar tree_4_3_u03_r6_network.node[31].content_store 	decision_ratio[31] 	1
scalar tree_4_3_u03_r6_network.node[32].core_layer 	interests[32] 	12156
scalar tree_4_3_u03_r6_network.node[32].core_layer 	data[32] 	10320
scalar tree_4_3_u03_r6_network.node[32].content_store 	p_hit[32] 	0.15095426127015
scalar tree_4_3_u03_r6_network.node[32].content_store 	hits[32] 	1835
scalar tree_4_3_u03_r6_network.node[32].content_store 	misses[32] 	10321
scalar tree_4_3_u03_r6_network.node[32].content_store 	decision_yes[32] 	10320
scalar tree_4_3_u03_r6_network.node[32].content_store 	decision_no[32] 	0
scalar tree_4_3_u03_r6_network.node[32].content_store 	decision_ratio[32] 	1
scalar tree_4_3_u03_r6_network.node[33].core_layer 	interests[33] 	11928
scalar tree_4_3_u03_r6_network.node[33].core_layer 	data[33] 	10112
scalar tree_4_3_u03_r6_network.node[33].content_store 	p_hit[33] 	0.15224681421865
scalar tree_4_3_u03_r6_network.node[33].content_store 	hits[33] 	1816
scalar tree_4_3_u03_r6_network.node[33].content_store 	misses[33] 	10112
scalar tree_4_3_u03_r6_network.node[33].content_store 	decision_yes[33] 	10112
scalar tree_4_3_u03_r6_network.node[33].content_store 	decision_no[33] 	0
scalar tree_4_3_u03_r6_network.node[33].content_store 	decision_ratio[33] 	1
scalar tree_4_3_u03_r6_network.node[34].core_layer 	interests[34] 	12104
scalar tree_4_3_u03_r6_network.node[34].core_layer 	data[34] 	10207
scalar tree_4_3_u03_r6_network.node[34].content_store 	p_hit[34] 	0.15672504957039
scalar tree_4_3_u03_r6_network.node[34].content_store 	hits[34] 	1897
scalar tree_4_3_u03_r6_network.node[34].content_store 	misses[34] 	10207
scalar tree_4_3_u03_r6_network.node[34].content_store 	decision_yes[34] 	10207
scalar tree_4_3_u03_r6_network.node[34].content_store 	decision_no[34] 	0
scalar tree_4_3_u03_r6_network.node[34].content_store 	decision_ratio[34] 	1
scalar tree_4_3_u03_r6_network.node[35].core_layer 	interests[35] 	12018
scalar tree_4_3_u03_r6_network.node[35].core_layer 	data[35] 	10032
scalar tree_4_3_u03_r6_network.node[35].content_store 	p_hit[35] 	0.16525212181727
scalar tree_4_3_u03_r6_network.node[35].content_store 	hits[35] 	1986
scalar tree_4_3_u03_r6_network.node[35].content_store 	misses[35] 	10032
scalar tree_4_3_u03_r6_network.node[35].content_store 	decision_yes[35] 	10032
scalar tree_4_3_u03_r6_network.node[35].content_store 	decision_no[35] 	0
scalar tree_4_3_u03_r6_network.node[35].content_store 	decision_ratio[35] 	1
scalar tree_4_3_u03_r6_network.node[36].core_layer 	interests[36] 	12142
scalar tree_4_3_u03_r6_network.node[36].core_layer 	data[36] 	10193
scalar tree_4_3_u03_r6_network.node[36].content_store 	p_hit[36] 	0.160434854225
scalar tree_4_3_u03_r6_network.node[36].content_store 	hits[36] 	1948
scalar tree_4_3_u03_r6_network.node[36].content_store 	misses[36] 	10194
scalar tree_4_3_u03_r6_network.node[36].content_store 	decision_yes[36] 	10193
scalar tree_4_3_u03_r6_network.node[36].content_store 	decision_no[36] 	0
scalar tree_4_3_u03_r6_network.node[36].content_store 	decision_ratio[36] 	1
scalar tree_4_3_u03_r6_network.node[37].core_layer 	interests[37] 	11894
scalar tree_4_3_u03_r6_network.node[37].core_layer 	data[37] 	10039
scalar tree_4_3_u03_r6_network.node[37].content_store 	p_hit[37] 	0.15596098873382
scalar tree_4_3_u03_r6_network.node[37].content_store 	hits[37] 	1855
scalar tree_4_3_u03_r6_network.node[37].content_store 	misses[37] 	10039
scalar tree_4_3_u03_r6_network.node[37].content_store 	decision_yes[37] 	10039
scalar tree_4_3_u03_r6_network.node[37].content_store 	decision_no[37] 	0
scalar tree_4_3_u03_r6_network.node[37].content_store 	decision_ratio[37] 	1
scalar tree_4_3_u03_r6_network.node[38].core_layer 	interests[38] 	12095
scalar tree_4_3_u03_r6_network.node[38].core_layer 	data[38] 	10176
scalar tree_4_3_u03_r6_network.node[38].content_store 	p_hit[38] 	0.1585779247623
scalar tree_4_3_u03_r6_network.node[38].content_store 	hits[38] 	1918
scalar tree_4_3_u03_r6_network.node[38].content_store 	misses[38] 	10177
scalar tree_4_3_u03_r6_network.node[38].content_store 	decision_yes[38] 	10176
scalar tree_4_3_u03_r6_network.node[38].content_store 	decision_no[38] 	0
scalar tree_4_3_u03_r6_network.node[38].content_store 	decision_ratio[38] 	1
scalar tree_4_3_u03_r6_network.node[39].core_layer 	interests[39] 	12078
scalar tree_4_3_u03_r6_network.node[39].core_layer 	data[39] 	10191
scalar tree_4_3_u03_r6_network.node[39].content_store 	p_hit[39] 	0.15623447590661
scalar tree_4_3_u03_r6_network.node[39].content_store 	hits[39] 	1887
scalar tree_4_3_u03_r6_network.node[39].content_store 	misses[39] 	10191
scalar tree_4_3_u03_r6_network.node[39].content_store 	decision_yes[39] 	10191
scalar tree_4_3_u03_r6_network.node[39].content_store 	decision_no[39] 	0
scalar tree_4_3_u03_r6_network.node[39].content_store 	decision_ratio[39] 	1
scalar tree_4_3_u03_r6_network.client[13] 	hdistance[13] 	3.2546322984436
scalar tree_4_3_u03_r6_network.client[13] 	downloads[13] 	12143
scalar tree_4_3_u03_r6_network.client[13] 	avg_time[13] 	0.004934887059
scalar tree_4_3_u03_r6_network.client[14] 	hdistance[14] 	3.2616743794699
scalar tree_4_3_u03_r6_network.client[14] 	downloads[14] 	11885
scalar tree_4_3_u03_r6_network.client[14] 	avg_time[14] 	0.004945452509
scalar tree_4_3_u03_r6_network.client[15] 	hdistance[15] 	3.2491540810432
scalar tree_4_3_u03_r6_network.client[15] 	downloads[15] 	12117
scalar tree_4_3_u03_r6_network.client[15] 	avg_time[15] 	0.004924686926
scalar tree_4_3_u03_r6_network.client[16] 	hdistance[16] 	3.2422977373299
scalar tree_4_3_u03_r6_network.client[16] 	downloads[16] 	11977
scalar tree_4_3_u03_r6_network.client[16] 	avg_time[16] 	0.00491349751
scalar tree_4_3_u03_r6_network.client[17] 	hdistance[17] 	3.232886843619
scalar tree_4_3_u03_r6_network.client[17] 	downloads[17] 	12169
scalar tree_4_3_u03_r6_network.client[17] 	avg_time[17] 	0.004905516961
scalar tree_4_3_u03_r6_network.client[18] 	hdistance[18] 	3.2566085847854
scalar tree_4_3_u03_r6_network.client[18] 	downloads[18] 	11765
scalar tree_4_3_u03_r6_network.client[18] 	avg_time[18] 	0.004937641073
scalar tree_4_3_u03_r6_network.client[19] 	hdistance[19] 	3.2763949214835
scalar tree_4_3_u03_r6_network.client[19] 	downloads[19] 	11972
scalar tree_4_3_u03_r6_network.client[19] 	avg_time[19] 	0.004967480418
scalar tree_4_3_u03_r6_network.client[20] 	hdistance[20] 	3.2477071939419
scalar tree_4_3_u03_r6_network.client[20] 	downloads[20] 	11885
scalar tree_4_3_u03_r6_network.client[20] 	avg_time[20] 	0.004921461426
scalar tree_4_3_u03_r6_network.client[21] 	hdistance[21] 	3.2542146553163
scalar tree_4_3_u03_r6_network.client[21] 	downloads[21] 	11982
scalar tree_4_3_u03_r6_network.client[21] 	avg_time[21] 	0.004933547294
scalar tree_4_3_u03_r6_network.client[22] 	hdistance[22] 	3.2418464626192
scalar tree_4_3_u03_r6_network.client[22] 	downloads[22] 	11958
scalar tree_4_3_u03_r6_network.client[22] 	avg_time[22] 	0.004915869245
scalar tree_4_3_u03_r6_network.client[23] 	hdistance[23] 	3.2418019211659
scalar tree_4_3_u03_r6_network.client[23] 	downloads[23] 	12076
scalar tree_4_3_u03_r6_network.client[23] 	avg_time[23] 	0.004912078606
scalar tree_4_3_u03_r6_network.client[24] 	hdistance[24] 	3.2371816353887
scalar tree_4_3_u03_r6_network.client[24] 	downloads[24] 	11936
scalar tree_4_3_u03_r6_network.client[24] 	avg_time[24] 	0.004905757834
scalar tree_4_3_u03_r6_network.client[25] 	hdistance[25] 	3.253132212331
scalar tree_4_3_u03_r6_network.client[25] 	downloads[25] 	12132
scalar tree_4_3_u03_r6_network.client[25] 	avg_time[25] 	0.004934385386
scalar tree_4_3_u03_r6_network.client[26] 	hdistance[26] 	3.2452234732173
scalar tree_4_3_u03_r6_network.client[26] 	downloads[26] 	11724
scalar tree_4_3_u03_r6_network.client[26] 	avg_time[26] 	0.00492139716
scalar tree_4_3_u03_r6_network.client[27] 	hdistance[27] 	3.2551884442969
scalar tree_4_3_u03_r6_network.client[27] 	downloads[27] 	12046
scalar tree_4_3_u03_r6_network.client[27] 	avg_time[27] 	0.00493577423
scalar tree_4_3_u03_r6_network.client[28] 	hdistance[28] 	3.261220373172
scalar tree_4_3_u03_r6_network.client[28] 	downloads[28] 	11898
scalar tree_4_3_u03_r6_network.client[28] 	avg_time[28] 	0.004946754092
scalar tree_4_3_u03_r6_network.client[29] 	hdistance[29] 	3.2368093061903
scalar tree_4_3_u03_r6_network.client[29] 	downloads[29] 	12035
scalar tree_4_3_u03_r6_network.client[29] 	avg_time[29] 	0.004910059635
scalar tree_4_3_u03_r6_network.client[30] 	hdistance[30] 	3.272221761142
scalar tree_4_3_u03_r6_network.client[30] 	downloads[30] 	12049
scalar tree_4_3_u03_r6_network.client[30] 	avg_time[30] 	0.004961619276
scalar tree_4_3_u03_r6_network.client[31] 	hdistance[31] 	3.2425792386383
scalar tree_4_3_u03_r6_network.client[31] 	downloads[31] 	11926
scalar tree_4_3_u03_r6_network.client[31] 	avg_time[31] 	0.004915140399
scalar tree_4_3_u03_r6_network.client[32] 	hdistance[32] 	3.2629370629371
scalar tree_4_3_u03_r6_network.client[32] 	downloads[32] 	12155
scalar tree_4_3_u03_r6_network.client[32] 	avg_time[32] 	0.004947433375
scalar tree_4_3_u03_r6_network.client[33] 	hdistance[33] 	3.2666834339369
scalar tree_4_3_u03_r6_network.client[33] 	downloads[33] 	11928
scalar tree_4_3_u03_r6_network.client[33] 	avg_time[33] 	0.004951438244
scalar tree_4_3_u03_r6_network.client[34] 	hdistance[34] 	3.247191011236
scalar tree_4_3_u03_r6_network.client[34] 	downloads[34] 	12104
scalar tree_4_3_u03_r6_network.client[34] 	avg_time[34] 	0.004921180058
scalar tree_4_3_u03_r6_network.client[35] 	hdistance[35] 	3.2215010817108
scalar tree_4_3_u03_r6_network.client[35] 	downloads[35] 	12018
scalar tree_4_3_u03_r6_network.client[35] 	avg_time[35] 	0.004885328221
scalar tree_4_3_u03_r6_network.client[36] 	hdistance[36] 	3.2507206984598
scalar tree_4_3_u03_r6_network.client[36] 	downloads[36] 	12141
scalar tree_4_3_u03_r6_network.client[36] 	avg_time[36] 	0.004927029727
scalar tree_4_3_u03_r6_network.client[37] 	hdistance[37] 	3.2505464940306
scalar tree_4_3_u03_r6_network.client[37] 	downloads[37] 	11894
scalar tree_4_3_u03_r6_network.client[37] 	avg_time[37] 	0.004926563032
scalar tree_4_3_u03_r6_network.client[38] 	hdistance[38] 	3.2524392260625
scalar tree_4_3_u03_r6_network.client[38] 	downloads[38] 	12094
scalar tree_4_3_u03_r6_network.client[38] 	avg_time[38] 	0.00492723365
scalar tree_4_3_u03_r6_network.client[39] 	hdistance[39] 	3.247723132969
scalar tree_4_3_u03_r6_network.client[39] 	downloads[39] 	12078
scalar tree_4_3_u03_r6_network.client[39] 	avg_time[39] 	0.004922927631
