version 2
run General-204-20160901-00:47:22-8710
attr a 0.9
attr cd ffc
attr configname General
attr cr lru
attr datetime 20160901-00:47:22
attr experiment General
attr fsize 1
attr inifile hw5115/scenario_Y/omnetp.ini
attr iterationvars "$name=tree_4_3, $un=03, $rep=9, $cd=ffc, $cr=lru, $fsize=1, $a=0.9, $sl=nrr, $ttl=1000, $variance=0.05"
attr iterationvars2 "$name=tree_4_3, $un=03, $rep=9, $cd=ffc, $cr=lru, $fsize=1, $a=0.9, $sl=nrr, $ttl=1000, $variance=0.05, $repetition=0"
attr measurement "$name=tree_4_3, $un=03, $rep=9, $cd=ffc, $cr=lru, $fsize=1, $a=0.9, $sl=nrr, $ttl=1000, $variance=0.05"
attr name tree_4_3
attr network networks.${name}_u${un}_r${rep}_network
attr processid 8710
attr rep 9
attr repetition 0
attr replication #0
attr resultdir results
attr runnumber 204
attr seedset 9
attr sl nrr
attr ttl 1000
attr un 03
attr variance 0.05

scalar . 	a 	0.9
scalar . 	fsize 	1
scalar . 	rep 	9
scalar . 	ttl 	1000
scalar . 	un 	03
scalar . 	variance 	0.05
scalar tree_4_3_u03_r9_network.content_distribution 	repo-0 	0
scalar tree_4_3_u03_r9_network.content_distribution 	client-0 	13
scalar tree_4_3_u03_r9_network.content_distribution 	client-1 	14
scalar tree_4_3_u03_r9_network.content_distribution 	client-2 	15
scalar tree_4_3_u03_r9_network.content_distribution 	client-3 	16
scalar tree_4_3_u03_r9_network.content_distribution 	client-4 	17
scalar tree_4_3_u03_r9_network.content_distribution 	client-5 	18
scalar tree_4_3_u03_r9_network.content_distribution 	client-6 	19
scalar tree_4_3_u03_r9_network.content_distribution 	client-7 	20
scalar tree_4_3_u03_r9_network.content_distribution 	client-8 	21
scalar tree_4_3_u03_r9_network.content_distribution 	client-9 	22
scalar tree_4_3_u03_r9_network.content_distribution 	client-10 	23
scalar tree_4_3_u03_r9_network.content_distribution 	client-11 	24
scalar tree_4_3_u03_r9_network.content_distribution 	client-12 	25
scalar tree_4_3_u03_r9_network.content_distribution 	client-13 	26
scalar tree_4_3_u03_r9_network.content_distribution 	client-14 	27
scalar tree_4_3_u03_r9_network.content_distribution 	client-15 	28
scalar tree_4_3_u03_r9_network.content_distribution 	client-16 	29
scalar tree_4_3_u03_r9_network.content_distribution 	client-17 	30
scalar tree_4_3_u03_r9_network.content_distribution 	client-18 	31
scalar tree_4_3_u03_r9_network.content_distribution 	client-19 	32
scalar tree_4_3_u03_r9_network.content_distribution 	client-20 	33
scalar tree_4_3_u03_r9_network.content_distribution 	client-21 	34
scalar tree_4_3_u03_r9_network.content_distribution 	client-22 	35
scalar tree_4_3_u03_r9_network.content_distribution 	client-23 	36
scalar tree_4_3_u03_r9_network.content_distribution 	client-24 	37
scalar tree_4_3_u03_r9_network.content_distribution 	client-25 	38
scalar tree_4_3_u03_r9_network.content_distribution 	client-26 	39
scalar tree_4_3_u03_r9_network.content_distribution 	repo-0_card 	100000
scalar tree_4_3_u03_r9_network.content_distribution 	repo-0_price 	0
scalar tree_4_3_u03_r9_network.statistics 	stabilization_time 	1009.8
scalar tree_4_3_u03_r9_network.statistics 	p_hit 	0.22899856180807
scalar tree_4_3_u03_r9_network.statistics 	interests 	24864.825
scalar tree_4_3_u03_r9_network.statistics 	data 	16787.3
scalar tree_4_3_u03_r9_network.statistics 	hdistance 	2.6500371844228
scalar tree_4_3_u03_r9_network.statistics 	avg_time 	0.004156577998
scalar tree_4_3_u03_r9_network.statistics 	downloads 	323101
scalar tree_4_3_u03_r9_network.statistics 	total_cost 	0
scalar tree_4_3_u03_r9_network.statistics 	total_replicas 	100000
scalar tree_4_3_u03_r9_network.statistics 	inner_hit 	0.4283118900901
scalar tree_4_3_u03_r9_network.node[0].core_layer 	interests[0] 	187431
scalar tree_4_3_u03_r9_network.node[0].core_layer 	repo_load[0] 	184713
scalar tree_4_3_u03_r9_network.node[0].core_layer 	data[0] 	0
scalar tree_4_3_u03_r9_network.node[0].core_layer 	repo_int[0] 	184713
scalar tree_4_3_u03_r9_network.node[0].content_store 	p_hit[0] 	0.014501336491829
scalar tree_4_3_u03_r9_network.node[0].content_store 	hits[0] 	2718
scalar tree_4_3_u03_r9_network.node[0].content_store 	misses[0] 	184713
scalar tree_4_3_u03_r9_network.node[0].content_store 	decision_yes[0] 	856
scalar tree_4_3_u03_r9_network.node[0].content_store 	decision_no[0] 	183857
scalar tree_4_3_u03_r9_network.node[0].content_store 	decision_ratio[0] 	0.0046342163247849
scalar tree_4_3_u03_r9_network.node[1].core_layer 	interests[1] 	65786
scalar tree_4_3_u03_r9_network.node[1].core_layer 	data[1] 	64420
scalar tree_4_3_u03_r9_network.node[1].content_store 	p_hit[1] 	0.020749095552245
scalar tree_4_3_u03_r9_network.node[1].content_store 	hits[1] 	1365
scalar tree_4_3_u03_r9_network.node[1].content_store 	misses[1] 	64421
scalar tree_4_3_u03_r9_network.node[1].content_store 	decision_yes[1] 	346
scalar tree_4_3_u03_r9_network.node[1].content_store 	decision_no[1] 	64074
scalar tree_4_3_u03_r9_network.node[1].content_store 	decision_ratio[1] 	0.0053710027941633
scalar tree_4_3_u03_r9_network.node[2].core_layer 	interests[2] 	94075
scalar tree_4_3_u03_r9_network.node[2].core_layer 	data[2] 	91003
scalar tree_4_3_u03_r9_network.node[2].content_store 	p_hit[2] 	0.032633537071486
scalar tree_4_3_u03_r9_network.node[2].content_store 	hits[2] 	3070
scalar tree_4_3_u03_r9_network.node[2].content_store 	misses[2] 	91005
scalar tree_4_3_u03_r9_network.node[2].content_store 	decision_yes[2] 	545
scalar tree_4_3_u03_r9_network.node[2].content_store 	decision_no[2] 	90458
scalar tree_4_3_u03_r9_network.node[2].content_store 	decision_ratio[2] 	0.0059888135555971
scalar tree_4_3_u03_r9_network.node[3].core_layer 	interests[3] 	53587
scalar tree_4_3_u03_r9_network.node[3].core_layer 	data[3] 	49727
scalar tree_4_3_u03_r9_network.node[3].content_store 	p_hit[3] 	0.072013734674455
scalar tree_4_3_u03_r9_network.node[3].content_store 	hits[3] 	3859
scalar tree_4_3_u03_r9_network.node[3].content_store 	misses[3] 	49728
scalar tree_4_3_u03_r9_network.node[3].content_store 	decision_yes[3] 	536
scalar tree_4_3_u03_r9_network.node[3].content_store 	decision_no[3] 	49191
scalar tree_4_3_u03_r9_network.node[3].content_store 	decision_ratio[3] 	0.01077885253484
scalar tree_4_3_u03_r9_network.node[4].core_layer 	interests[4] 	25574
scalar tree_4_3_u03_r9_network.node[4].core_layer 	data[4] 	24047
scalar tree_4_3_u03_r9_network.node[4].content_store 	p_hit[4] 	0.059709079533902
scalar tree_4_3_u03_r9_network.node[4].content_store 	hits[4] 	1527
scalar tree_4_3_u03_r9_network.node[4].content_store 	misses[4] 	24047
scalar tree_4_3_u03_r9_network.node[4].content_store 	decision_yes[4] 	215
scalar tree_4_3_u03_r9_network.node[4].content_store 	decision_no[4] 	23832
scalar tree_4_3_u03_r9_network.node[4].content_store 	decision_ratio[4] 	0.0089408242192373
scalar tree_4_3_u03_r9_network.node[5].core_layer 	interests[5] 	28964
scalar tree_4_3_u03_r9_network.node[5].core_layer 	data[5] 	25680
scalar tree_4_3_u03_r9_network.node[5].content_store 	p_hit[5] 	0.11338212954012
scalar tree_4_3_u03_r9_network.node[5].content_store 	hits[5] 	3284
scalar tree_4_3_u03_r9_network.node[5].content_store 	misses[5] 	25680
scalar tree_4_3_u03_r9_network.node[5].content_store 	decision_yes[5] 	297
scalar tree_4_3_u03_r9_network.node[5].content_store 	decision_no[5] 	25383
scalar tree_4_3_u03_r9_network.node[5].content_store 	decision_ratio[5] 	0.011565420560748
scalar tree_4_3_u03_r9_network.node[6].core_layer 	interests[6] 	29829
scalar tree_4_3_u03_r9_network.node[6].core_layer 	data[6] 	26457
scalar tree_4_3_u03_r9_network.node[6].content_store 	p_hit[6] 	0.11297730396594
scalar tree_4_3_u03_r9_network.node[6].content_store 	hits[6] 	3370
scalar tree_4_3_u03_r9_network.node[6].content_store 	misses[6] 	26459
scalar tree_4_3_u03_r9_network.node[6].content_store 	decision_yes[6] 	337
scalar tree_4_3_u03_r9_network.node[6].content_store 	decision_no[6] 	26120
scalar tree_4_3_u03_r9_network.node[6].content_store 	decision_ratio[6] 	0.012737649771327
scalar tree_4_3_u03_r9_network.node[7].core_layer 	interests[7] 	27089
scalar tree_4_3_u03_r9_network.node[7].core_layer 	data[7] 	24955
scalar tree_4_3_u03_r9_network.node[7].content_store 	p_hit[7] 	0.078814278858577
scalar tree_4_3_u03_r9_network.node[7].content_store 	hits[7] 	2135
scalar tree_4_3_u03_r9_network.node[7].content_store 	misses[7] 	24954
scalar tree_4_3_u03_r9_network.node[7].content_store 	decision_yes[7] 	238
scalar tree_4_3_u03_r9_network.node[7].content_store 	decision_no[7] 	24717
scalar tree_4_3_u03_r9_network.node[7].content_store 	decision_ratio[7] 	0.0095371669004208
scalar tree_4_3_u03_r9_network.node[8].core_layer 	interests[8] 	27595
scalar tree_4_3_u03_r9_network.node[8].core_layer 	data[8] 	24931
scalar tree_4_3_u03_r9_network.node[8].content_store 	p_hit[8] 	0.096539228121036
scalar tree_4_3_u03_r9_network.node[8].content_store 	hits[8] 	2664
scalar tree_4_3_u03_r9_network.node[8].content_store 	misses[8] 	24931
scalar tree_4_3_u03_r9_network.node[8].content_store 	decision_yes[8] 	260
scalar tree_4_3_u03_r9_network.node[8].content_store 	decision_no[8] 	24671
scalar tree_4_3_u03_r9_network.node[8].content_store 	decision_ratio[8] 	0.010428783442301
scalar tree_4_3_u03_r9_network.node[9].core_layer 	interests[9] 	30711
scalar tree_4_3_u03_r9_network.node[9].core_layer 	data[9] 	26844
scalar tree_4_3_u03_r9_network.node[9].content_store 	p_hit[9] 	0.12594835726613
scalar tree_4_3_u03_r9_network.node[9].content_store 	hits[9] 	3868
scalar tree_4_3_u03_r9_network.node[9].content_store 	misses[9] 	26843
scalar tree_4_3_u03_r9_network.node[9].content_store 	decision_yes[9] 	371
scalar tree_4_3_u03_r9_network.node[9].content_store 	decision_no[9] 	26473
scalar tree_4_3_u03_r9_network.node[9].content_store 	decision_ratio[9] 	0.013820593056176
scalar tree_4_3_u03_r9_network.node[10].core_layer 	interests[10] 	27589
scalar tree_4_3_u03_r9_network.node[10].core_layer 	data[10] 	25253
scalar tree_4_3_u03_r9_network.node[10].content_store 	p_hit[10] 	0.084671427018014
scalar tree_4_3_u03_r9_network.node[10].content_store 	hits[10] 	2336
scalar tree_4_3_u03_r9_network.node[10].content_store 	misses[10] 	25253
scalar tree_4_3_u03_r9_network.node[10].content_store 	decision_yes[10] 	301
scalar tree_4_3_u03_r9_network.node[10].content_store 	decision_no[10] 	24952
scalar tree_4_3_u03_r9_network.node[10].content_store 	decision_ratio[10] 	0.011919375915733
scalar tree_4_3_u03_r9_network.node[11].core_layer 	interests[11] 	29499
scalar tree_4_3_u03_r9_network.node[11].core_layer 	data[11] 	25952
scalar tree_4_3_u03_r9_network.node[11].content_store 	p_hit[11] 	0.12020746465982
scalar tree_4_3_u03_r9_network.node[11].content_store 	hits[11] 	3546
scalar tree_4_3_u03_r9_network.node[11].content_store 	misses[11] 	25953
scalar tree_4_3_u03_r9_network.node[11].content_store 	decision_yes[11] 	294
scalar tree_4_3_u03_r9_network.node[11].content_store 	decision_no[11] 	25658
scalar tree_4_3_u03_r9_network.node[11].content_store 	decision_ratio[11] 	0.011328606658446
scalar tree_4_3_u03_r9_network.node[12].core_layer 	interests[12] 	27643
scalar tree_4_3_u03_r9_network.node[12].core_layer 	data[12] 	25448
scalar tree_4_3_u03_r9_network.node[12].content_store 	p_hit[12] 	0.079405274391347
scalar tree_4_3_u03_r9_network.node[12].content_store 	hits[12] 	2195
scalar tree_4_3_u03_r9_network.node[12].content_store 	misses[12] 	25448
scalar tree_4_3_u03_r9_network.node[12].content_store 	decision_yes[12] 	282
scalar tree_4_3_u03_r9_network.node[12].content_store 	decision_no[12] 	25166
scalar tree_4_3_u03_r9_network.node[12].content_store 	decision_ratio[12] 	0.011081420936812
scalar tree_4_3_u03_r9_network.node[13].core_layer 	interests[13] 	12278
scalar tree_4_3_u03_r9_network.node[13].core_layer 	data[13] 	8773
scalar tree_4_3_u03_r9_network.node[13].content_store 	p_hit[13] 	0.28546994624532
scalar tree_4_3_u03_r9_network.node[13].content_store 	hits[13] 	3505
scalar tree_4_3_u03_r9_network.node[13].content_store 	misses[13] 	8773
scalar tree_4_3_u03_r9_network.node[13].content_store 	decision_yes[13] 	111
scalar tree_4_3_u03_r9_network.node[13].content_store 	decision_no[13] 	8662
scalar tree_4_3_u03_r9_network.node[13].content_store 	decision_ratio[13] 	0.012652456400319
scalar tree_4_3_u03_r9_network.node[14].core_layer 	interests[14] 	13042
scalar tree_4_3_u03_r9_network.node[14].core_layer 	data[14] 	8972
scalar tree_4_3_u03_r9_network.node[14].content_store 	p_hit[14] 	0.31206870111946
scalar tree_4_3_u03_r9_network.node[14].content_store 	hits[14] 	4070
scalar tree_4_3_u03_r9_network.node[14].content_store 	misses[14] 	8972
scalar tree_4_3_u03_r9_network.node[14].content_store 	decision_yes[14] 	144
scalar tree_4_3_u03_r9_network.node[14].content_store 	decision_no[14] 	8828
scalar tree_4_3_u03_r9_network.node[14].content_store 	decision_ratio[14] 	0.016049933125279
scalar tree_4_3_u03_r9_network.node[15].core_layer 	interests[15] 	12108
scalar tree_4_3_u03_r9_network.node[15].core_layer 	data[15] 	8671
scalar tree_4_3_u03_r9_network.node[15].content_store 	p_hit[15] 	0.28386190948133
scalar tree_4_3_u03_r9_network.node[15].content_store 	hits[15] 	3437
scalar tree_4_3_u03_r9_network.node[15].content_store 	misses[15] 	8671
scalar tree_4_3_u03_r9_network.node[15].content_store 	decision_yes[15] 	95
scalar tree_4_3_u03_r9_network.node[15].content_store 	decision_no[15] 	8576
scalar tree_4_3_u03_r9_network.node[15].content_store 	decision_ratio[15] 	0.010956060431323
scalar tree_4_3_u03_r9_network.node[16].core_layer 	interests[16] 	12426
scalar tree_4_3_u03_r9_network.node[16].core_layer 	data[16] 	8601
scalar tree_4_3_u03_r9_network.node[16].content_store 	p_hit[16] 	0.30774183164333
scalar tree_4_3_u03_r9_network.node[16].content_store 	hits[16] 	3824
scalar tree_4_3_u03_r9_network.node[16].content_store 	misses[16] 	8602
scalar tree_4_3_u03_r9_network.node[16].content_store 	decision_yes[16] 	100
scalar tree_4_3_u03_r9_network.node[16].content_store 	decision_no[16] 	8501
scalar tree_4_3_u03_r9_network.node[16].content_store 	decision_ratio[16] 	0.011626555051738
scalar tree_4_3_u03_r9_network.node[17].core_layer 	interests[17] 	12353
scalar tree_4_3_u03_r9_network.node[17].core_layer 	data[17] 	8658
scalar tree_4_3_u03_r9_network.node[17].content_store 	p_hit[17] 	0.29911762324941
scalar tree_4_3_u03_r9_network.node[17].content_store 	hits[17] 	3695
scalar tree_4_3_u03_r9_network.node[17].content_store 	misses[17] 	8658
scalar tree_4_3_u03_r9_network.node[17].content_store 	decision_yes[17] 	119
scalar tree_4_3_u03_r9_network.node[17].content_store 	decision_no[17] 	8539
scalar tree_4_3_u03_r9_network.node[17].content_store 	decision_ratio[17] 	0.013744513744514
scalar tree_4_3_u03_r9_network.node[18].core_layer 	interests[18] 	13154
scalar tree_4_3_u03_r9_network.node[18].core_layer 	data[18] 	8762
scalar tree_4_3_u03_r9_network.node[18].content_store 	p_hit[18] 	0.33389083168618
scalar tree_4_3_u03_r9_network.node[18].content_store 	hits[18] 	4392
scalar tree_4_3_u03_r9_network.node[18].content_store 	misses[18] 	8762
scalar tree_4_3_u03_r9_network.node[18].content_store 	decision_yes[18] 	122
scalar tree_4_3_u03_r9_network.node[18].content_store 	decision_no[18] 	8640
scalar tree_4_3_u03_r9_network.node[18].content_store 	decision_ratio[18] 	0.013923761698242
scalar tree_4_3_u03_r9_network.node[19].core_layer 	interests[19] 	12659
scalar tree_4_3_u03_r9_network.node[19].core_layer 	data[19] 	8949
scalar tree_4_3_u03_r9_network.node[19].content_store 	p_hit[19] 	0.29307212260052
scalar tree_4_3_u03_r9_network.node[19].content_store 	hits[19] 	3710
scalar tree_4_3_u03_r9_network.node[19].content_store 	misses[19] 	8949
scalar tree_4_3_u03_r9_network.node[19].content_store 	decision_yes[19] 	103
scalar tree_4_3_u03_r9_network.node[19].content_store 	decision_no[19] 	8846
scalar tree_4_3_u03_r9_network.node[19].content_store 	decision_ratio[19] 	0.011509665884456
scalar tree_4_3_u03_r9_network.node[20].core_layer 	interests[20] 	12498
scalar tree_4_3_u03_r9_network.node[20].core_layer 	data[20] 	8746
scalar tree_4_3_u03_r9_network.node[20].content_store 	p_hit[20] 	0.30012802048328
scalar tree_4_3_u03_r9_network.node[20].content_store 	hits[20] 	3751
scalar tree_4_3_u03_r9_network.node[20].content_store 	misses[20] 	8747
scalar tree_4_3_u03_r9_network.node[20].content_store 	decision_yes[20] 	95
scalar tree_4_3_u03_r9_network.node[20].content_store 	decision_no[20] 	8651
scalar tree_4_3_u03_r9_network.node[20].content_store 	decision_ratio[20] 	0.010862108392408
scalar tree_4_3_u03_r9_network.node[21].core_layer 	interests[21] 	12602
scalar tree_4_3_u03_r9_network.node[21].core_layer 	data[21] 	8653
scalar tree_4_3_u03_r9_network.node[21].content_store 	p_hit[21] 	0.31336295826059
scalar tree_4_3_u03_r9_network.node[21].content_store 	hits[21] 	3949
scalar tree_4_3_u03_r9_network.node[21].content_store 	misses[21] 	8653
scalar tree_4_3_u03_r9_network.node[21].content_store 	decision_yes[21] 	95
scalar tree_4_3_u03_r9_network.node[21].content_store 	decision_no[21] 	8558
scalar tree_4_3_u03_r9_network.node[21].content_store 	decision_ratio[21] 	0.010978851265457
scalar tree_4_3_u03_r9_network.node[22].core_layer 	interests[22] 	12359
scalar tree_4_3_u03_r9_network.node[22].core_layer 	data[22] 	8768
scalar tree_4_3_u03_r9_network.node[22].content_store 	p_hit[22] 	0.29055748846994
scalar tree_4_3_u03_r9_network.node[22].content_store 	hits[22] 	3591
scalar tree_4_3_u03_r9_network.node[22].content_store 	misses[22] 	8768
scalar tree_4_3_u03_r9_network.node[22].content_store 	decision_yes[22] 	98
scalar tree_4_3_u03_r9_network.node[22].content_store 	decision_no[22] 	8670
scalar tree_4_3_u03_r9_network.node[22].content_store 	decision_ratio[22] 	0.01117700729927
scalar tree_4_3_u03_r9_network.node[23].core_layer 	interests[23] 	12968
scalar tree_4_3_u03_r9_network.node[23].core_layer 	data[23] 	8863
scalar tree_4_3_u03_r9_network.node[23].content_store 	p_hit[23] 	0.31654842689698
scalar tree_4_3_u03_r9_network.node[23].content_store 	hits[23] 	4105
scalar tree_4_3_u03_r9_network.node[23].content_store 	misses[23] 	8863
scalar tree_4_3_u03_r9_network.node[23].content_store 	decision_yes[23] 	110
scalar tree_4_3_u03_r9_network.node[23].content_store 	decision_no[23] 	8753
scalar tree_4_3_u03_r9_network.node[23].content_store 	decision_ratio[23] 	0.012411147466998
scalar tree_4_3_u03_r9_network.node[24].core_layer 	interests[24] 	12409
scalar tree_4_3_u03_r9_network.node[24].core_layer 	data[24] 	8778
scalar tree_4_3_u03_r9_network.node[24].content_store 	p_hit[24] 	0.29269078894351
scalar tree_4_3_u03_r9_network.node[24].content_store 	hits[24] 	3632
scalar tree_4_3_u03_r9_network.node[24].content_store 	misses[24] 	8777
scalar tree_4_3_u03_r9_network.node[24].content_store 	decision_yes[24] 	114
scalar tree_4_3_u03_r9_network.node[24].content_store 	decision_no[24] 	8664
scalar tree_4_3_u03_r9_network.node[24].content_store 	decision_ratio[24] 	0.012987012987013
scalar tree_4_3_u03_r9_network.node[25].core_layer 	interests[25] 	12327
scalar tree_4_3_u03_r9_network.node[25].core_layer 	data[25] 	8743
scalar tree_4_3_u03_r9_network.node[25].content_store 	p_hit[25] 	0.29074389551391
scalar tree_4_3_u03_r9_network.node[25].content_store 	hits[25] 	3584
scalar tree_4_3_u03_r9_network.node[25].content_store 	misses[25] 	8743
scalar tree_4_3_u03_r9_network.node[25].content_store 	decision_yes[25] 	94
scalar tree_4_3_u03_r9_network.node[25].content_store 	decision_no[25] 	8649
scalar tree_4_3_u03_r9_network.node[25].content_store 	decision_ratio[25] 	0.010751458309505
scalar tree_4_3_u03_r9_network.node[26].core_layer 	interests[26] 	12501
scalar tree_4_3_u03_r9_network.node[26].core_layer 	data[26] 	8928
scalar tree_4_3_u03_r9_network.node[26].content_store 	p_hit[26] 	0.28589712822974
scalar tree_4_3_u03_r9_network.node[26].content_store 	hits[26] 	3574
scalar tree_4_3_u03_r9_network.node[26].content_store 	misses[26] 	8927
scalar tree_4_3_u03_r9_network.node[26].content_store 	decision_yes[26] 	103
scalar tree_4_3_u03_r9_network.node[26].content_store 	decision_no[26] 	8825
scalar tree_4_3_u03_r9_network.node[26].content_store 	decision_ratio[26] 	0.011536738351254
scalar tree_4_3_u03_r9_network.node[27].core_layer 	interests[27] 	13179
scalar tree_4_3_u03_r9_network.node[27].core_layer 	data[27] 	8792
scalar tree_4_3_u03_r9_network.node[27].content_store 	p_hit[27] 	0.33295394187723
scalar tree_4_3_u03_r9_network.node[27].content_store 	hits[27] 	4388
scalar tree_4_3_u03_r9_network.node[27].content_store 	misses[27] 	8791
scalar tree_4_3_u03_r9_network.node[27].content_store 	decision_yes[27] 	129
scalar tree_4_3_u03_r9_network.node[27].content_store 	decision_no[27] 	8663
scalar tree_4_3_u03_r9_network.node[27].content_store 	decision_ratio[27] 	0.014672429481347
scalar tree_4_3_u03_r9_network.node[28].core_layer 	interests[28] 	12593
scalar tree_4_3_u03_r9_network.node[28].core_layer 	data[28] 	8747
scalar tree_4_3_u03_r9_network.node[28].content_store 	p_hit[28] 	0.30540776621933
scalar tree_4_3_u03_r9_network.node[28].content_store 	hits[28] 	3846
scalar tree_4_3_u03_r9_network.node[28].content_store 	misses[28] 	8747
scalar tree_4_3_u03_r9_network.node[28].content_store 	decision_yes[28] 	112
scalar tree_4_3_u03_r9_network.node[28].content_store 	decision_no[28] 	8635
scalar tree_4_3_u03_r9_network.node[28].content_store 	decision_ratio[28] 	0.012804390076598
scalar tree_4_3_u03_r9_network.node[29].core_layer 	interests[29] 	12689
scalar tree_4_3_u03_r9_network.node[29].core_layer 	data[29] 	8852
scalar tree_4_3_u03_r9_network.node[29].content_store 	p_hit[29] 	0.30238789502719
scalar tree_4_3_u03_r9_network.node[29].content_store 	hits[29] 	3837
scalar tree_4_3_u03_r9_network.node[29].content_store 	misses[29] 	8852
scalar tree_4_3_u03_r9_network.node[29].content_store 	decision_yes[29] 	107
scalar tree_4_3_u03_r9_network.node[29].content_store 	decision_no[29] 	8745
scalar tree_4_3_u03_r9_network.node[29].content_store 	decision_ratio[29] 	0.01208766380479
scalar tree_4_3_u03_r9_network.node[30].core_layer 	interests[30] 	12696
scalar tree_4_3_u03_r9_network.node[30].core_layer 	data[30] 	8853
scalar tree_4_3_u03_r9_network.node[30].content_store 	p_hit[30] 	0.30269376181474
scalar tree_4_3_u03_r9_network.node[30].content_store 	hits[30] 	3843
scalar tree_4_3_u03_r9_network.node[30].content_store 	misses[30] 	8853
scalar tree_4_3_u03_r9_network.node[30].content_store 	decision_yes[30] 	106
scalar tree_4_3_u03_r9_network.node[30].content_store 	decision_no[30] 	8747
scalar tree_4_3_u03_r9_network.node[30].content_store 	decision_ratio[30] 	0.011973342369818
scalar tree_4_3_u03_r9_network.node[31].core_layer 	interests[31] 	12412
scalar tree_4_3_u03_r9_network.node[31].core_layer 	data[31] 	8705
scalar tree_4_3_u03_r9_network.node[31].content_store 	p_hit[31] 	0.29866258459555
scalar tree_4_3_u03_r9_network.node[31].content_store 	hits[31] 	3707
scalar tree_4_3_u03_r9_network.node[31].content_store 	misses[31] 	8705
scalar tree_4_3_u03_r9_network.node[31].content_store 	decision_yes[31] 	129
scalar tree_4_3_u03_r9_network.node[31].content_store 	decision_no[31] 	8576
scalar tree_4_3_u03_r9_network.node[31].content_store 	decision_ratio[31] 	0.014819069500287
scalar tree_4_3_u03_r9_network.node[32].core_layer 	interests[32] 	12340
scalar tree_4_3_u03_r9_network.node[32].core_layer 	data[32] 	8578
scalar tree_4_3_u03_r9_network.node[32].content_store 	p_hit[32] 	0.30486223662885
scalar tree_4_3_u03_r9_network.node[32].content_store 	hits[32] 	3762
scalar tree_4_3_u03_r9_network.node[32].content_store 	misses[32] 	8578
scalar tree_4_3_u03_r9_network.node[32].content_store 	decision_yes[32] 	108
scalar tree_4_3_u03_r9_network.node[32].content_store 	decision_no[32] 	8470
scalar tree_4_3_u03_r9_network.node[32].content_store 	decision_ratio[32] 	0.012590347400326
scalar tree_4_3_u03_r9_network.node[33].core_layer 	interests[33] 	12521
scalar tree_4_3_u03_r9_network.node[33].core_layer 	data[33] 	8764
scalar tree_4_3_u03_r9_network.node[33].content_store 	p_hit[33] 	0.30005590607779
scalar tree_4_3_u03_r9_network.node[33].content_store 	hits[33] 	3757
scalar tree_4_3_u03_r9_network.node[33].content_store 	misses[33] 	8764
scalar tree_4_3_u03_r9_network.node[33].content_store 	decision_yes[33] 	103
scalar tree_4_3_u03_r9_network.node[33].content_store 	decision_no[33] 	8661
scalar tree_4_3_u03_r9_network.node[33].content_store 	decision_ratio[33] 	0.011752624372433
scalar tree_4_3_u03_r9_network.node[34].core_layer 	interests[34] 	12623
scalar tree_4_3_u03_r9_network.node[34].core_layer 	data[34] 	8880
scalar tree_4_3_u03_r9_network.node[34].content_store 	p_hit[34] 	0.29652222134199
scalar tree_4_3_u03_r9_network.node[34].content_store 	hits[34] 	3743
scalar tree_4_3_u03_r9_network.node[34].content_store 	misses[34] 	8880
scalar tree_4_3_u03_r9_network.node[34].content_store 	decision_yes[34] 	83
scalar tree_4_3_u03_r9_network.node[34].content_store 	decision_no[34] 	8797
scalar tree_4_3_u03_r9_network.node[34].content_store 	decision_ratio[34] 	0.0093468468468468
scalar tree_4_3_u03_r9_network.node[35].core_layer 	interests[35] 	12665
scalar tree_4_3_u03_r9_network.node[35].core_layer 	data[35] 	8808
scalar tree_4_3_u03_r9_network.node[35].content_store 	p_hit[35] 	0.30430319778918
scalar tree_4_3_u03_r9_network.node[35].content_store 	hits[35] 	3854
scalar tree_4_3_u03_r9_network.node[35].content_store 	misses[35] 	8811
scalar tree_4_3_u03_r9_network.node[35].content_store 	decision_yes[35] 	106
scalar tree_4_3_u03_r9_network.node[35].content_store 	decision_no[35] 	8702
scalar tree_4_3_u03_r9_network.node[35].content_store 	decision_ratio[35] 	0.012034514078111
scalar tree_4_3_u03_r9_network.node[36].core_layer 	interests[36] 	12534
scalar tree_4_3_u03_r9_network.node[36].core_layer 	data[36] 	8762
scalar tree_4_3_u03_r9_network.node[36].content_store 	p_hit[36] 	0.30094143928514
scalar tree_4_3_u03_r9_network.node[36].content_store 	hits[36] 	3772
scalar tree_4_3_u03_r9_network.node[36].content_store 	misses[36] 	8762
scalar tree_4_3_u03_r9_network.node[36].content_store 	decision_yes[36] 	123
scalar tree_4_3_u03_r9_network.node[36].content_store 	decision_no[36] 	8639
scalar tree_4_3_u03_r9_network.node[36].content_store 	decision_ratio[36] 	0.01403789089249
scalar tree_4_3_u03_r9_network.node[37].core_layer 	interests[37] 	12270
scalar tree_4_3_u03_r9_network.node[37].core_layer 	data[37] 	8586
scalar tree_4_3_u03_r9_network.node[37].content_store 	p_hit[37] 	0.30024449877751
scalar tree_4_3_u03_r9_network.node[37].content_store 	hits[37] 	3684
scalar tree_4_3_u03_r9_network.node[37].content_store 	misses[37] 	8586
scalar tree_4_3_u03_r9_network.node[37].content_store 	decision_yes[37] 	104
scalar tree_4_3_u03_r9_network.node[37].content_store 	decision_no[37] 	8482
scalar tree_4_3_u03_r9_network.node[37].content_store 	decision_ratio[37] 	0.01211274167249
scalar tree_4_3_u03_r9_network.node[38].core_layer 	interests[38] 	12506
scalar tree_4_3_u03_r9_network.node[38].core_layer 	data[38] 	8810
scalar tree_4_3_u03_r9_network.node[38].content_store 	p_hit[38] 	0.29553814169199
scalar tree_4_3_u03_r9_network.node[38].content_store 	hits[38] 	3696
scalar tree_4_3_u03_r9_network.node[38].content_store 	misses[38] 	8810
scalar tree_4_3_u03_r9_network.node[38].content_store 	decision_yes[38] 	107
scalar tree_4_3_u03_r9_network.node[38].content_store 	decision_no[38] 	8703
scalar tree_4_3_u03_r9_network.node[38].content_store 	decision_ratio[38] 	0.012145289443814
scalar tree_4_3_u03_r9_network.node[39].core_layer 	interests[39] 	12509
scalar tree_4_3_u03_r9_network.node[39].core_layer 	data[39] 	8773
scalar tree_4_3_u03_r9_network.node[39].content_store 	p_hit[39] 	0.29866496122792
scalar tree_4_3_u03_r9_network.node[39].content_store 	hits[39] 	3736
scalar tree_4_3_u03_r9_network.node[39].content_store 	misses[39] 	8773
scalar tree_4_3_u03_r9_network.node[39].content_store 	decision_yes[39] 	103
scalar tree_4_3_u03_r9_network.node[39].content_store 	decision_no[39] 	8670
scalar tree_4_3_u03_r9_network.node[39].content_store 	decision_ratio[39] 	0.011740567650747
scalar tree_4_3_u03_r9_network.client[13] 	hdistance[13] 	2.7020336722787
scalar tree_4_3_u03_r9_network.client[13] 	downloads[13] 	11998
scalar tree_4_3_u03_r9_network.client[13] 	avg_time[13] 	0.004201030475
scalar tree_4_3_u03_r9_network.client[14] 	hdistance[14] 	2.6018426294821
scalar tree_4_3_u03_r9_network.client[14] 	downloads[14] 	12048
scalar tree_4_3_u03_r9_network.client[14] 	avg_time[14] 	0.004087480394
scalar tree_4_3_u03_r9_network.client[15] 	hdistance[15] 	2.7247248094835
scalar tree_4_3_u03_r9_network.client[15] 	downloads[15] 	11810
scalar tree_4_3_u03_r9_network.client[15] 	avg_time[15] 	0.004224552484
scalar tree_4_3_u03_r9_network.client[16] 	hdistance[16] 	2.6197301854975
scalar tree_4_3_u03_r9_network.client[16] 	downloads[16] 	11860
scalar tree_4_3_u03_r9_network.client[16] 	avg_time[16] 	0.004121643315
scalar tree_4_3_u03_r9_network.client[17] 	hdistance[17] 	2.646323841904
scalar tree_4_3_u03_r9_network.client[17] 	downloads[17] 	11765
scalar tree_4_3_u03_r9_network.client[17] 	avg_time[17] 	0.00416591288
scalar tree_4_3_u03_r9_network.client[18] 	hdistance[18] 	2.555676581483
scalar tree_4_3_u03_r9_network.client[18] 	downloads[18] 	11935
scalar tree_4_3_u03_r9_network.client[18] 	avg_time[18] 	0.004012062378
scalar tree_4_3_u03_r9_network.client[19] 	hdistance[19] 	2.6763778220452
scalar tree_4_3_u03_r9_network.client[19] 	downloads[19] 	12048
scalar tree_4_3_u03_r9_network.client[19] 	avg_time[19] 	0.004202835259
scalar tree_4_3_u03_r9_network.client[20] 	hdistance[20] 	2.6425278685777
scalar tree_4_3_u03_r9_network.client[20] 	downloads[20] 	11931
scalar tree_4_3_u03_r9_network.client[20] 	avg_time[20] 	0.004150361584
scalar tree_4_3_u03_r9_network.client[21] 	hdistance[21] 	2.6068155307449
scalar tree_4_3_u03_r9_network.client[21] 	downloads[21] 	12002
scalar tree_4_3_u03_r9_network.client[21] 	avg_time[21] 	0.004096147616
scalar tree_4_3_u03_r9_network.client[22] 	hdistance[22] 	2.6906390789254
scalar tree_4_3_u03_r9_network.client[22] 	downloads[22] 	11986
scalar tree_4_3_u03_r9_network.client[22] 	avg_time[22] 	0.004212278435
scalar tree_4_3_u03_r9_network.client[23] 	hdistance[23] 	2.6227246280442
scalar tree_4_3_u03_r9_network.client[23] 	downloads[23] 	12031
scalar tree_4_3_u03_r9_network.client[23] 	avg_time[23] 	0.004090263788
scalar tree_4_3_u03_r9_network.client[24] 	hdistance[24] 	2.668052898611
scalar tree_4_3_u03_r9_network.client[24] 	downloads[24] 	12023
scalar tree_4_3_u03_r9_network.client[24] 	avg_time[24] 	0.004190964299
scalar tree_4_3_u03_r9_network.client[25] 	hdistance[25] 	2.6736012079523
scalar tree_4_3_u03_r9_network.client[25] 	downloads[25] 	11921
scalar tree_4_3_u03_r9_network.client[25] 	avg_time[25] 	0.004187565177
scalar tree_4_3_u03_r9_network.client[26] 	hdistance[26] 	2.6804728835979
scalar tree_4_3_u03_r9_network.client[26] 	downloads[26] 	12096
scalar tree_4_3_u03_r9_network.client[26] 	avg_time[26] 	0.004204362047
scalar tree_4_3_u03_r9_network.client[27] 	hdistance[27] 	2.5677811044578
scalar tree_4_3_u03_r9_network.client[27] 	downloads[27] 	12024
scalar tree_4_3_u03_r9_network.client[27] 	avg_time[27] 	0.004025612445
scalar tree_4_3_u03_r9_network.client[28] 	hdistance[28] 	2.6317680481283
scalar tree_4_3_u03_r9_network.client[28] 	downloads[28] 	11968
scalar tree_4_3_u03_r9_network.client[28] 	avg_time[28] 	0.004146892812
scalar tree_4_3_u03_r9_network.client[29] 	hdistance[29] 	2.6456849428524
scalar tree_4_3_u03_r9_network.client[29] 	downloads[29] 	12074
scalar tree_4_3_u03_r9_network.client[29] 	avg_time[29] 	0.004158188142
scalar tree_4_3_u03_r9_network.client[30] 	hdistance[30] 	2.6457951706911
scalar tree_4_3_u03_r9_network.client[30] 	downloads[30] 	12010
scalar tree_4_3_u03_r9_network.client[30] 	avg_time[30] 	0.004168356685
scalar tree_4_3_u03_r9_network.client[31] 	hdistance[31] 	2.658264947245
scalar tree_4_3_u03_r9_network.client[31] 	downloads[31] 	11942
scalar tree_4_3_u03_r9_network.client[31] 	avg_time[31] 	0.004168490611
scalar tree_4_3_u03_r9_network.client[32] 	hdistance[32] 	2.6498015035054
scalar tree_4_3_u03_r9_network.client[32] 	downloads[32] 	11839
scalar tree_4_3_u03_r9_network.client[32] 	avg_time[32] 	0.004148827194
scalar tree_4_3_u03_r9_network.client[33] 	hdistance[33] 	2.6702535869203
scalar tree_4_3_u03_r9_network.client[33] 	downloads[33] 	11988
scalar tree_4_3_u03_r9_network.client[33] 	avg_time[33] 	0.004180844521
scalar tree_4_3_u03_r9_network.client[34] 	hdistance[34] 	2.6656967076821
scalar tree_4_3_u03_r9_network.client[34] 	downloads[34] 	12028
scalar tree_4_3_u03_r9_network.client[34] 	avg_time[34] 	0.004198588868
scalar tree_4_3_u03_r9_network.client[35] 	hdistance[35] 	2.6283464566929
scalar tree_4_3_u03_r9_network.client[35] 	downloads[35] 	12065
scalar tree_4_3_u03_r9_network.client[35] 	avg_time[35] 	0.004142615582
scalar tree_4_3_u03_r9_network.client[36] 	hdistance[36] 	2.6466454743182
scalar tree_4_3_u03_r9_network.client[36] 	downloads[36] 	11954
scalar tree_4_3_u03_r9_network.client[36] 	avg_time[36] 	0.004171822328
scalar tree_4_3_u03_r9_network.client[37] 	hdistance[37] 	2.6739408405081
scalar tree_4_3_u03_r9_network.client[37] 	downloads[37] 	11731
scalar tree_4_3_u03_r9_network.client[37] 	avg_time[37] 	0.004184124615
scalar tree_4_3_u03_r9_network.client[38] 	hdistance[38] 	2.6851528020651
scalar tree_4_3_u03_r9_network.client[38] 	downloads[38] 	12009
scalar tree_4_3_u03_r9_network.client[38] 	avg_time[38] 	0.004207174954
scalar tree_4_3_u03_r9_network.client[39] 	hdistance[39] 	2.670328755722
scalar tree_4_3_u03_r9_network.client[39] 	downloads[39] 	12015
scalar tree_4_3_u03_r9_network.client[39] 	avg_time[39] 	0.004178607066
