version 2
run General-183-20160901-00:03:17-8710
attr a 0.9
attr cd ffc
attr configname General
attr cr lru
attr datetime 20160901-00:03:17
attr experiment General
attr fsize 1
attr inifile hw5115/scenario_Y/omnetp.ini
attr iterationvars "$name=tree_4_3, $un=03, $rep=2, $cd=ffc, $cr=lru, $fsize=1, $a=0.9, $sl=nrr, $ttl=1000, $variance=0.05"
attr iterationvars2 "$name=tree_4_3, $un=03, $rep=2, $cd=ffc, $cr=lru, $fsize=1, $a=0.9, $sl=nrr, $ttl=1000, $variance=0.05, $repetition=0"
attr measurement "$name=tree_4_3, $un=03, $rep=2, $cd=ffc, $cr=lru, $fsize=1, $a=0.9, $sl=nrr, $ttl=1000, $variance=0.05"
attr name tree_4_3
attr network networks.${name}_u${un}_r${rep}_network
attr processid 8710
attr rep 2
attr repetition 0
attr replication #0
attr resultdir results
attr runnumber 183
attr seedset 2
attr sl nrr
attr ttl 1000
attr un 03
attr variance 0.05

scalar . 	a 	0.9
scalar . 	fsize 	1
scalar . 	rep 	2
scalar . 	ttl 	1000
scalar . 	un 	03
scalar . 	variance 	0.05
scalar tree_4_3_u03_r2_network.content_distribution 	repo-0 	0
scalar tree_4_3_u03_r2_network.content_distribution 	client-0 	13
scalar tree_4_3_u03_r2_network.content_distribution 	client-1 	14
scalar tree_4_3_u03_r2_network.content_distribution 	client-2 	15
scalar tree_4_3_u03_r2_network.content_distribution 	client-3 	16
scalar tree_4_3_u03_r2_network.content_distribution 	client-4 	17
scalar tree_4_3_u03_r2_network.content_distribution 	client-5 	18
scalar tree_4_3_u03_r2_network.content_distribution 	client-6 	19
scalar tree_4_3_u03_r2_network.content_distribution 	client-7 	20
scalar tree_4_3_u03_r2_network.content_distribution 	client-8 	21
scalar tree_4_3_u03_r2_network.content_distribution 	client-9 	22
scalar tree_4_3_u03_r2_network.content_distribution 	client-10 	23
scalar tree_4_3_u03_r2_network.content_distribution 	client-11 	24
scalar tree_4_3_u03_r2_network.content_distribution 	client-12 	25
scalar tree_4_3_u03_r2_network.content_distribution 	client-13 	26
scalar tree_4_3_u03_r2_network.content_distribution 	client-14 	27
scalar tree_4_3_u03_r2_network.content_distribution 	client-15 	28
scalar tree_4_3_u03_r2_network.content_distribution 	client-16 	29
scalar tree_4_3_u03_r2_network.content_distribution 	client-17 	30
scalar tree_4_3_u03_r2_network.content_distribution 	client-18 	31
scalar tree_4_3_u03_r2_network.content_distribution 	client-19 	32
scalar tree_4_3_u03_r2_network.content_distribution 	client-20 	33
scalar tree_4_3_u03_r2_network.content_distribution 	client-21 	34
scalar tree_4_3_u03_r2_network.content_distribution 	client-22 	35
scalar tree_4_3_u03_r2_network.content_distribution 	client-23 	36
scalar tree_4_3_u03_r2_network.content_distribution 	client-24 	37
scalar tree_4_3_u03_r2_network.content_distribution 	client-25 	38
scalar tree_4_3_u03_r2_network.content_distribution 	client-26 	39
scalar tree_4_3_u03_r2_network.content_distribution 	repo-0_card 	100000
scalar tree_4_3_u03_r2_network.content_distribution 	repo-0_price 	0
scalar tree_4_3_u03_r2_network.statistics 	stabilization_time 	1041.3
scalar tree_4_3_u03_r2_network.statistics 	p_hit 	0.22866234139273
scalar tree_4_3_u03_r2_network.statistics 	interests 	24848.55
scalar tree_4_3_u03_r2_network.statistics 	data 	16753.075
scalar tree_4_3_u03_r2_network.statistics 	hdistance 	2.6564720601925
scalar tree_4_3_u03_r2_network.statistics 	avg_time 	0.004138840703
scalar tree_4_3_u03_r2_network.statistics 	downloads 	323819
scalar tree_4_3_u03_r2_network.statistics 	total_cost 	0
scalar tree_4_3_u03_r2_network.statistics 	total_replicas 	100000
scalar tree_4_3_u03_r2_network.statistics 	inner_hit 	0.41294982690948
scalar tree_4_3_u03_r2_network.node[0].core_layer 	interests[0] 	193124
scalar tree_4_3_u03_r2_network.node[0].core_layer 	repo_load[0] 	190098
scalar tree_4_3_u03_r2_network.node[0].core_layer 	data[0] 	0
scalar tree_4_3_u03_r2_network.node[0].core_layer 	repo_int[0] 	190098
scalar tree_4_3_u03_r2_network.node[0].content_store 	p_hit[0] 	0.015668689546613
scalar tree_4_3_u03_r2_network.node[0].content_store 	hits[0] 	3026
scalar tree_4_3_u03_r2_network.node[0].content_store 	misses[0] 	190098
scalar tree_4_3_u03_r2_network.node[0].content_store 	decision_yes[0] 	912
scalar tree_4_3_u03_r2_network.node[0].content_store 	decision_no[0] 	189186
scalar tree_4_3_u03_r2_network.node[0].content_store 	decision_ratio[0] 	0.0047975254868541
scalar tree_4_3_u03_r2_network.node[1].core_layer 	interests[1] 	69652
scalar tree_4_3_u03_r2_network.node[1].core_layer 	data[1] 	68188
scalar tree_4_3_u03_r2_network.node[1].content_store 	p_hit[1] 	0.021033136162637
scalar tree_4_3_u03_r2_network.node[1].content_store 	hits[1] 	1465
scalar tree_4_3_u03_r2_network.node[1].content_store 	misses[1] 	68187
scalar tree_4_3_u03_r2_network.node[1].content_store 	decision_yes[1] 	428
scalar tree_4_3_u03_r2_network.node[1].content_store 	decision_no[1] 	67760
scalar tree_4_3_u03_r2_network.node[1].content_store 	decision_ratio[1] 	0.0062767642400422
scalar tree_4_3_u03_r2_network.node[2].core_layer 	interests[2] 	91030
scalar tree_4_3_u03_r2_network.node[2].core_layer 	data[2] 	88855
scalar tree_4_3_u03_r2_network.node[2].content_store 	p_hit[2] 	0.023871251235856
scalar tree_4_3_u03_r2_network.node[2].content_store 	hits[2] 	2173
scalar tree_4_3_u03_r2_network.node[2].content_store 	misses[2] 	88857
scalar tree_4_3_u03_r2_network.node[2].content_store 	decision_yes[2] 	546
scalar tree_4_3_u03_r2_network.node[2].content_store 	decision_no[2] 	88309
scalar tree_4_3_u03_r2_network.node[2].content_store 	decision_ratio[2] 	0.0061448427212875
scalar tree_4_3_u03_r2_network.node[3].core_layer 	interests[3] 	51081
scalar tree_4_3_u03_r2_network.node[3].core_layer 	data[3] 	48297
scalar tree_4_3_u03_r2_network.node[3].content_store 	p_hit[3] 	0.054501673812181
scalar tree_4_3_u03_r2_network.node[3].content_store 	hits[3] 	2784
scalar tree_4_3_u03_r2_network.node[3].content_store 	misses[3] 	48297
scalar tree_4_3_u03_r2_network.node[3].content_store 	decision_yes[3] 	376
scalar tree_4_3_u03_r2_network.node[3].content_store 	decision_no[3] 	47921
scalar tree_4_3_u03_r2_network.node[3].content_store 	decision_ratio[3] 	0.0077851626395014
scalar tree_4_3_u03_r2_network.node[4].core_layer 	interests[4] 	43733
scalar tree_4_3_u03_r2_network.node[4].core_layer 	data[4] 	41151
scalar tree_4_3_u03_r2_network.node[4].content_store 	p_hit[4] 	0.058994352091098
scalar tree_4_3_u03_r2_network.node[4].content_store 	hits[4] 	2580
scalar tree_4_3_u03_r2_network.node[4].content_store 	misses[4] 	41153
scalar tree_4_3_u03_r2_network.node[4].content_store 	decision_yes[4] 	371
scalar tree_4_3_u03_r2_network.node[4].content_store 	decision_no[4] 	40780
scalar tree_4_3_u03_r2_network.node[4].content_store 	decision_ratio[4] 	0.0090155767782071
scalar tree_4_3_u03_r2_network.node[5].core_layer 	interests[5] 	27240
scalar tree_4_3_u03_r2_network.node[5].core_layer 	data[5] 	25059
scalar tree_4_3_u03_r2_network.node[5].content_store 	p_hit[5] 	0.080102790014684
scalar tree_4_3_u03_r2_network.node[5].content_store 	hits[5] 	2182
scalar tree_4_3_u03_r2_network.node[5].content_store 	misses[5] 	25058
scalar tree_4_3_u03_r2_network.node[5].content_store 	decision_yes[5] 	291
scalar tree_4_3_u03_r2_network.node[5].content_store 	decision_no[5] 	24768
scalar tree_4_3_u03_r2_network.node[5].content_store 	decision_ratio[5] 	0.011612594277505
scalar tree_4_3_u03_r2_network.node[6].core_layer 	interests[6] 	10680
scalar tree_4_3_u03_r2_network.node[6].core_layer 	data[6] 	8754
scalar tree_4_3_u03_r2_network.node[6].content_store 	p_hit[6] 	0.18033707865169
scalar tree_4_3_u03_r2_network.node[6].content_store 	hits[6] 	1926
scalar tree_4_3_u03_r2_network.node[6].content_store 	misses[6] 	8754
scalar tree_4_3_u03_r2_network.node[6].content_store 	decision_yes[6] 	124
scalar tree_4_3_u03_r2_network.node[6].content_store 	decision_no[6] 	8630
scalar tree_4_3_u03_r2_network.node[6].content_store 	decision_ratio[6] 	0.014164953164268
scalar tree_4_3_u03_r2_network.node[7].core_layer 	interests[7] 	43246
scalar tree_4_3_u03_r2_network.node[7].core_layer 	data[7] 	40552
scalar tree_4_3_u03_r2_network.node[7].content_store 	p_hit[7] 	0.062271655181982
scalar tree_4_3_u03_r2_network.node[7].content_store 	hits[7] 	2693
scalar tree_4_3_u03_r2_network.node[7].content_store 	misses[7] 	40553
scalar tree_4_3_u03_r2_network.node[7].content_store 	decision_yes[7] 	368
scalar tree_4_3_u03_r2_network.node[7].content_store 	decision_no[7] 	40184
scalar tree_4_3_u03_r2_network.node[7].content_store 	decision_ratio[7] 	0.0090747681988558
scalar tree_4_3_u03_r2_network.node[8].core_layer 	interests[8] 	19646
scalar tree_4_3_u03_r2_network.node[8].core_layer 	data[8] 	17121
scalar tree_4_3_u03_r2_network.node[8].content_store 	p_hit[8] 	0.12852489056296
scalar tree_4_3_u03_r2_network.node[8].content_store 	hits[8] 	2525
scalar tree_4_3_u03_r2_network.node[8].content_store 	misses[8] 	17121
scalar tree_4_3_u03_r2_network.node[8].content_store 	decision_yes[8] 	214
scalar tree_4_3_u03_r2_network.node[8].content_store 	decision_no[8] 	16907
scalar tree_4_3_u03_r2_network.node[8].content_store 	decision_ratio[8] 	0.012499269902459
scalar tree_4_3_u03_r2_network.node[9].core_layer 	interests[9] 	20779
scalar tree_4_3_u03_r2_network.node[9].core_layer 	data[9] 	17606
scalar tree_4_3_u03_r2_network.node[9].content_store 	p_hit[9] 	0.15270224746138
scalar tree_4_3_u03_r2_network.node[9].content_store 	hits[9] 	3173
scalar tree_4_3_u03_r2_network.node[9].content_store 	misses[9] 	17606
scalar tree_4_3_u03_r2_network.node[9].content_store 	decision_yes[9] 	237
scalar tree_4_3_u03_r2_network.node[9].content_store 	decision_no[9] 	17369
scalar tree_4_3_u03_r2_network.node[9].content_store 	decision_ratio[9] 	0.013461320004544
scalar tree_4_3_u03_r2_network.node[10].core_layer 	interests[10] 	27550
scalar tree_4_3_u03_r2_network.node[10].core_layer 	data[10] 	25631
scalar tree_4_3_u03_r2_network.node[10].content_store 	p_hit[10] 	0.06961887477314
scalar tree_4_3_u03_r2_network.node[10].content_store 	hits[10] 	1918
scalar tree_4_3_u03_r2_network.node[10].content_store 	misses[10] 	25632
scalar tree_4_3_u03_r2_network.node[10].content_store 	decision_yes[10] 	299
scalar tree_4_3_u03_r2_network.node[10].content_store 	decision_no[10] 	25332
scalar tree_4_3_u03_r2_network.node[10].content_store 	decision_ratio[10] 	0.011665561234443
scalar tree_4_3_u03_r2_network.node[11].core_layer 	interests[11] 	28797
scalar tree_4_3_u03_r2_network.node[11].core_layer 	data[11] 	25745
scalar tree_4_3_u03_r2_network.node[11].content_store 	p_hit[11] 	0.10598326214536
scalar tree_4_3_u03_r2_network.node[11].content_store 	hits[11] 	3052
scalar tree_4_3_u03_r2_network.node[11].content_store 	misses[11] 	25745
scalar tree_4_3_u03_r2_network.node[11].content_store 	decision_yes[11] 	330
scalar tree_4_3_u03_r2_network.node[11].content_store 	decision_no[11] 	25415
scalar tree_4_3_u03_r2_network.node[11].content_store 	decision_ratio[11] 	0.012818022917071
scalar tree_4_3_u03_r2_network.node[12].core_layer 	interests[12] 	27890
scalar tree_4_3_u03_r2_network.node[12].core_layer 	data[12] 	25819
scalar tree_4_3_u03_r2_network.node[12].content_store 	p_hit[12] 	0.074256005736823
scalar tree_4_3_u03_r2_network.node[12].content_store 	hits[12] 	2071
scalar tree_4_3_u03_r2_network.node[12].content_store 	misses[12] 	25819
scalar tree_4_3_u03_r2_network.node[12].content_store 	decision_yes[12] 	273
scalar tree_4_3_u03_r2_network.node[12].content_store 	decision_no[12] 	25546
scalar tree_4_3_u03_r2_network.node[12].content_store 	decision_ratio[12] 	0.010573608582827
scalar tree_4_3_u03_r2_network.node[13].core_layer 	interests[13] 	12439
scalar tree_4_3_u03_r2_network.node[13].core_layer 	data[13] 	8669
scalar tree_4_3_u03_r2_network.node[13].content_store 	p_hit[13] 	0.30307902564515
scalar tree_4_3_u03_r2_network.node[13].content_store 	hits[13] 	3770
scalar tree_4_3_u03_r2_network.node[13].content_store 	misses[13] 	8669
scalar tree_4_3_u03_r2_network.node[13].content_store 	decision_yes[13] 	108
scalar tree_4_3_u03_r2_network.node[13].content_store 	decision_no[13] 	8561
scalar tree_4_3_u03_r2_network.node[13].content_store 	decision_ratio[13] 	0.012458184334987
scalar tree_4_3_u03_r2_network.node[14].core_layer 	interests[14] 	12715
scalar tree_4_3_u03_r2_network.node[14].core_layer 	data[14] 	8809
scalar tree_4_3_u03_r2_network.node[14].content_store 	p_hit[14] 	0.30719622493118
scalar tree_4_3_u03_r2_network.node[14].content_store 	hits[14] 	3906
scalar tree_4_3_u03_r2_network.node[14].content_store 	misses[14] 	8809
scalar tree_4_3_u03_r2_network.node[14].content_store 	decision_yes[14] 	114
scalar tree_4_3_u03_r2_network.node[14].content_store 	decision_no[14] 	8695
scalar tree_4_3_u03_r2_network.node[14].content_store 	decision_ratio[14] 	0.012941310023839
scalar tree_4_3_u03_r2_network.node[15].core_layer 	interests[15] 	12442
scalar tree_4_3_u03_r2_network.node[15].core_layer 	data[15] 	8743
scalar tree_4_3_u03_r2_network.node[15].content_store 	p_hit[15] 	0.29729946953866
scalar tree_4_3_u03_r2_network.node[15].content_store 	hits[15] 	3699
scalar tree_4_3_u03_r2_network.node[15].content_store 	misses[15] 	8743
scalar tree_4_3_u03_r2_network.node[15].content_store 	decision_yes[15] 	105
scalar tree_4_3_u03_r2_network.node[15].content_store 	decision_no[15] 	8638
scalar tree_4_3_u03_r2_network.node[15].content_store 	decision_ratio[15] 	0.012009607686149
scalar tree_4_3_u03_r2_network.node[16].core_layer 	interests[16] 	13119
scalar tree_4_3_u03_r2_network.node[16].core_layer 	data[16] 	8874
scalar tree_4_3_u03_r2_network.node[16].content_store 	p_hit[16] 	0.32357649211068
scalar tree_4_3_u03_r2_network.node[16].content_store 	hits[16] 	4245
scalar tree_4_3_u03_r2_network.node[16].content_store 	misses[16] 	8874
scalar tree_4_3_u03_r2_network.node[16].content_store 	decision_yes[16] 	130
scalar tree_4_3_u03_r2_network.node[16].content_store 	decision_no[16] 	8744
scalar tree_4_3_u03_r2_network.node[16].content_store 	decision_ratio[16] 	0.01464953797611
scalar tree_4_3_u03_r2_network.node[17].core_layer 	interests[17] 	12288
scalar tree_4_3_u03_r2_network.node[17].core_layer 	data[17] 	8715
scalar tree_4_3_u03_r2_network.node[17].content_store 	p_hit[17] 	0.29085286458333
scalar tree_4_3_u03_r2_network.node[17].content_store 	hits[17] 	3574
scalar tree_4_3_u03_r2_network.node[17].content_store 	misses[17] 	8714
scalar tree_4_3_u03_r2_network.node[17].content_store 	decision_yes[17] 	124
scalar tree_4_3_u03_r2_network.node[17].content_store 	decision_no[17] 	8591
scalar tree_4_3_u03_r2_network.node[17].content_store 	decision_ratio[17] 	0.014228341939185
scalar tree_4_3_u03_r2_network.node[18].core_layer 	interests[18] 	12411
scalar tree_4_3_u03_r2_network.node[18].core_layer 	data[18] 	8812
scalar tree_4_3_u03_r2_network.node[18].content_store 	p_hit[18] 	0.28998469099992
scalar tree_4_3_u03_r2_network.node[18].content_store 	hits[18] 	3599
scalar tree_4_3_u03_r2_network.node[18].content_store 	misses[18] 	8812
scalar tree_4_3_u03_r2_network.node[18].content_store 	decision_yes[18] 	113
scalar tree_4_3_u03_r2_network.node[18].content_store 	decision_no[18] 	8699
scalar tree_4_3_u03_r2_network.node[18].content_store 	decision_ratio[18] 	0.012823422605538
scalar tree_4_3_u03_r2_network.node[19].core_layer 	interests[19] 	12843
scalar tree_4_3_u03_r2_network.node[19].core_layer 	data[19] 	8796
scalar tree_4_3_u03_r2_network.node[19].content_store 	p_hit[19] 	0.31511329128708
scalar tree_4_3_u03_r2_network.node[19].content_store 	hits[19] 	4047
scalar tree_4_3_u03_r2_network.node[19].content_store 	misses[19] 	8796
scalar tree_4_3_u03_r2_network.node[19].content_store 	decision_yes[19] 	117
scalar tree_4_3_u03_r2_network.node[19].content_store 	decision_no[19] 	8679
scalar tree_4_3_u03_r2_network.node[19].content_store 	decision_ratio[19] 	0.013301500682128
scalar tree_4_3_u03_r2_network.node[20].core_layer 	interests[20] 	12746
scalar tree_4_3_u03_r2_network.node[20].core_layer 	data[20] 	8831
scalar tree_4_3_u03_r2_network.node[20].content_store 	p_hit[20] 	0.30715518594069
scalar tree_4_3_u03_r2_network.node[20].content_store 	hits[20] 	3915
scalar tree_4_3_u03_r2_network.node[20].content_store 	misses[20] 	8831
scalar tree_4_3_u03_r2_network.node[20].content_store 	decision_yes[20] 	147
scalar tree_4_3_u03_r2_network.node[20].content_store 	decision_no[20] 	8684
scalar tree_4_3_u03_r2_network.node[20].content_store 	decision_ratio[20] 	0.016645906465859
scalar tree_4_3_u03_r2_network.node[21].core_layer 	interests[21] 	12216
scalar tree_4_3_u03_r2_network.node[21].core_layer 	data[21] 	8805
scalar tree_4_3_u03_r2_network.node[21].content_store 	p_hit[21] 	0.27922396856582
scalar tree_4_3_u03_r2_network.node[21].content_store 	hits[21] 	3411
scalar tree_4_3_u03_r2_network.node[21].content_store 	misses[21] 	8805
scalar tree_4_3_u03_r2_network.node[21].content_store 	decision_yes[21] 	106
scalar tree_4_3_u03_r2_network.node[21].content_store 	decision_no[21] 	8699
scalar tree_4_3_u03_r2_network.node[21].content_store 	decision_ratio[21] 	0.012038614423623
scalar tree_4_3_u03_r2_network.node[22].core_layer 	interests[22] 	12510
scalar tree_4_3_u03_r2_network.node[22].core_layer 	data[22] 	8787
scalar tree_4_3_u03_r2_network.node[22].content_store 	p_hit[22] 	0.29744204636291
scalar tree_4_3_u03_r2_network.node[22].content_store 	hits[22] 	3721
scalar tree_4_3_u03_r2_network.node[22].content_store 	misses[22] 	8789
scalar tree_4_3_u03_r2_network.node[22].content_store 	decision_yes[22] 	105
scalar tree_4_3_u03_r2_network.node[22].content_store 	decision_no[22] 	8682
scalar tree_4_3_u03_r2_network.node[22].content_store 	decision_ratio[22] 	0.01194947080915
scalar tree_4_3_u03_r2_network.node[23].core_layer 	interests[23] 	13028
scalar tree_4_3_u03_r2_network.node[23].core_layer 	data[23] 	8853
scalar tree_4_3_u03_r2_network.node[23].content_store 	p_hit[23] 	0.3204636168253
scalar tree_4_3_u03_r2_network.node[23].content_store 	hits[23] 	4175
scalar tree_4_3_u03_r2_network.node[23].content_store 	misses[23] 	8853
scalar tree_4_3_u03_r2_network.node[23].content_store 	decision_yes[23] 	106
scalar tree_4_3_u03_r2_network.node[23].content_store 	decision_no[23] 	8747
scalar tree_4_3_u03_r2_network.node[23].content_store 	decision_ratio[23] 	0.011973342369818
scalar tree_4_3_u03_r2_network.node[24].core_layer 	interests[24] 	12354
scalar tree_4_3_u03_r2_network.node[24].core_layer 	data[24] 	8705
scalar tree_4_3_u03_r2_network.node[24].content_store 	p_hit[24] 	0.29536992067347
scalar tree_4_3_u03_r2_network.node[24].content_store 	hits[24] 	3649
scalar tree_4_3_u03_r2_network.node[24].content_store 	misses[24] 	8705
scalar tree_4_3_u03_r2_network.node[24].content_store 	decision_yes[24] 	109
scalar tree_4_3_u03_r2_network.node[24].content_store 	decision_no[24] 	8596
scalar tree_4_3_u03_r2_network.node[24].content_store 	decision_ratio[24] 	0.012521539345204
scalar tree_4_3_u03_r2_network.node[25].core_layer 	interests[25] 	12837
scalar tree_4_3_u03_r2_network.node[25].core_layer 	data[25] 	8815
scalar tree_4_3_u03_r2_network.node[25].content_store 	p_hit[25] 	0.31331307937992
scalar tree_4_3_u03_r2_network.node[25].content_store 	hits[25] 	4022
scalar tree_4_3_u03_r2_network.node[25].content_store 	misses[25] 	8815
scalar tree_4_3_u03_r2_network.node[25].content_store 	decision_yes[25] 	141
scalar tree_4_3_u03_r2_network.node[25].content_store 	decision_no[25] 	8674
scalar tree_4_3_u03_r2_network.node[25].content_store 	decision_ratio[25] 	0.015995462280204
scalar tree_4_3_u03_r2_network.node[26].core_layer 	interests[26] 	12350
scalar tree_4_3_u03_r2_network.node[26].core_layer 	data[26] 	8787
scalar tree_4_3_u03_r2_network.node[26].content_store 	p_hit[26] 	0.2885020242915
scalar tree_4_3_u03_r2_network.node[26].content_store 	hits[26] 	3563
scalar tree_4_3_u03_r2_network.node[26].content_store 	misses[26] 	8787
scalar tree_4_3_u03_r2_network.node[26].content_store 	decision_yes[26] 	113
scalar tree_4_3_u03_r2_network.node[26].content_store 	decision_no[26] 	8674
scalar tree_4_3_u03_r2_network.node[26].content_store 	decision_ratio[26] 	0.012859906680323
scalar tree_4_3_u03_r2_network.node[27].core_layer 	interests[27] 	12267
scalar tree_4_3_u03_r2_network.node[27].core_layer 	data[27] 	8752
scalar tree_4_3_u03_r2_network.node[27].content_store 	p_hit[27] 	0.28654112659982
scalar tree_4_3_u03_r2_network.node[27].content_store 	hits[27] 	3515
scalar tree_4_3_u03_r2_network.node[27].content_store 	misses[27] 	8752
scalar tree_4_3_u03_r2_network.node[27].content_store 	decision_yes[27] 	110
scalar tree_4_3_u03_r2_network.node[27].content_store 	decision_no[27] 	8642
scalar tree_4_3_u03_r2_network.node[27].content_store 	decision_ratio[27] 	0.012568555758684
scalar tree_4_3_u03_r2_network.node[28].core_layer 	interests[28] 	13085
scalar tree_4_3_u03_r2_network.node[28].core_layer 	data[28] 	8797
scalar tree_4_3_u03_r2_network.node[28].content_store 	p_hit[28] 	0.32770347726404
scalar tree_4_3_u03_r2_network.node[28].content_store 	hits[28] 	4288
scalar tree_4_3_u03_r2_network.node[28].content_store 	misses[28] 	8797
scalar tree_4_3_u03_r2_network.node[28].content_store 	decision_yes[28] 	107
scalar tree_4_3_u03_r2_network.node[28].content_store 	decision_no[28] 	8690
scalar tree_4_3_u03_r2_network.node[28].content_store 	decision_ratio[28] 	0.012163237467318
scalar tree_4_3_u03_r2_network.node[29].core_layer 	interests[29] 	12409
scalar tree_4_3_u03_r2_network.node[29].core_layer 	data[29] 	8793
scalar tree_4_3_u03_r2_network.node[29].content_store 	p_hit[29] 	0.29140140220807
scalar tree_4_3_u03_r2_network.node[29].content_store 	hits[29] 	3616
scalar tree_4_3_u03_r2_network.node[29].content_store 	misses[29] 	8793
scalar tree_4_3_u03_r2_network.node[29].content_store 	decision_yes[29] 	116
scalar tree_4_3_u03_r2_network.node[29].content_store 	decision_no[29] 	8677
scalar tree_4_3_u03_r2_network.node[29].content_store 	decision_ratio[29] 	0.013192312066416
scalar tree_4_3_u03_r2_network.node[30].core_layer 	interests[30] 	12270
scalar tree_4_3_u03_r2_network.node[30].core_layer 	data[30] 	8631
scalar tree_4_3_u03_r2_network.node[30].content_store 	p_hit[30] 	0.29657701711491
scalar tree_4_3_u03_r2_network.node[30].content_store 	hits[30] 	3639
scalar tree_4_3_u03_r2_network.node[30].content_store 	misses[30] 	8631
scalar tree_4_3_u03_r2_network.node[30].content_store 	decision_yes[30] 	108
scalar tree_4_3_u03_r2_network.node[30].content_store 	decision_no[30] 	8523
scalar tree_4_3_u03_r2_network.node[30].content_store 	decision_ratio[30] 	0.012513034410845
scalar tree_4_3_u03_r2_network.node[31].core_layer 	interests[31] 	12593
scalar tree_4_3_u03_r2_network.node[31].core_layer 	data[31] 	8858
scalar tree_4_3_u03_r2_network.node[31].content_store 	p_hit[31] 	0.29659334550941
scalar tree_4_3_u03_r2_network.node[31].content_store 	hits[31] 	3735
scalar tree_4_3_u03_r2_network.node[31].content_store 	misses[31] 	8858
scalar tree_4_3_u03_r2_network.node[31].content_store 	decision_yes[31] 	120
scalar tree_4_3_u03_r2_network.node[31].content_store 	decision_no[31] 	8738
scalar tree_4_3_u03_r2_network.node[31].content_store 	decision_ratio[31] 	0.013547076089411
scalar tree_4_3_u03_r2_network.node[32].core_layer 	interests[32] 	12566
scalar tree_4_3_u03_r2_network.node[32].core_layer 	data[32] 	8872
scalar tree_4_3_u03_r2_network.node[32].content_store 	p_hit[32] 	0.2939678497533
scalar tree_4_3_u03_r2_network.node[32].content_store 	hits[32] 	3694
scalar tree_4_3_u03_r2_network.node[32].content_store 	misses[32] 	8872
scalar tree_4_3_u03_r2_network.node[32].content_store 	decision_yes[32] 	115
scalar tree_4_3_u03_r2_network.node[32].content_store 	decision_no[32] 	8757
scalar tree_4_3_u03_r2_network.node[32].content_store 	decision_ratio[32] 	0.012962128043282
scalar tree_4_3_u03_r2_network.node[33].core_layer 	interests[33] 	12496
scalar tree_4_3_u03_r2_network.node[33].core_layer 	data[33] 	8755
scalar tree_4_3_u03_r2_network.node[33].content_store 	p_hit[33] 	0.29937580025608
scalar tree_4_3_u03_r2_network.node[33].content_store 	hits[33] 	3741
scalar tree_4_3_u03_r2_network.node[33].content_store 	misses[33] 	8755
scalar tree_4_3_u03_r2_network.node[33].content_store 	decision_yes[33] 	133
scalar tree_4_3_u03_r2_network.node[33].content_store 	decision_no[33] 	8622
scalar tree_4_3_u03_r2_network.node[33].content_store 	decision_ratio[33] 	0.015191319246145
scalar tree_4_3_u03_r2_network.node[34].core_layer 	interests[34] 	12654
scalar tree_4_3_u03_r2_network.node[34].core_layer 	data[34] 	8856
scalar tree_4_3_u03_r2_network.node[34].content_store 	p_hit[34] 	0.30014224751067
scalar tree_4_3_u03_r2_network.node[34].content_store 	hits[34] 	3798
scalar tree_4_3_u03_r2_network.node[34].content_store 	misses[34] 	8856
scalar tree_4_3_u03_r2_network.node[34].content_store 	decision_yes[34] 	117
scalar tree_4_3_u03_r2_network.node[34].content_store 	decision_no[34] 	8739
scalar tree_4_3_u03_r2_network.node[34].content_store 	decision_ratio[34] 	0.013211382113821
scalar tree_4_3_u03_r2_network.node[35].core_layer 	interests[35] 	12352
scalar tree_4_3_u03_r2_network.node[35].core_layer 	data[35] 	8609
scalar tree_4_3_u03_r2_network.node[35].content_store 	p_hit[35] 	0.30302784974093
scalar tree_4_3_u03_r2_network.node[35].content_store 	hits[35] 	3743
scalar tree_4_3_u03_r2_network.node[35].content_store 	misses[35] 	8609
scalar tree_4_3_u03_r2_network.node[35].content_store 	decision_yes[35] 	96
scalar tree_4_3_u03_r2_network.node[35].content_store 	decision_no[35] 	8513
scalar tree_4_3_u03_r2_network.node[35].content_store 	decision_ratio[35] 	0.011151120919967
scalar tree_4_3_u03_r2_network.node[36].core_layer 	interests[36] 	12610
scalar tree_4_3_u03_r2_network.node[36].core_layer 	data[36] 	8793
scalar tree_4_3_u03_r2_network.node[36].content_store 	p_hit[36] 	0.30269627279937
scalar tree_4_3_u03_r2_network.node[36].content_store 	hits[36] 	3817
scalar tree_4_3_u03_r2_network.node[36].content_store 	misses[36] 	8793
scalar tree_4_3_u03_r2_network.node[36].content_store 	decision_yes[36] 	124
scalar tree_4_3_u03_r2_network.node[36].content_store 	decision_no[36] 	8669
scalar tree_4_3_u03_r2_network.node[36].content_store 	decision_ratio[36] 	0.014102126691687
scalar tree_4_3_u03_r2_network.node[37].core_layer 	interests[37] 	12632
scalar tree_4_3_u03_r2_network.node[37].core_layer 	data[37] 	8823
scalar tree_4_3_u03_r2_network.node[37].content_store 	p_hit[37] 	0.3015357821406
scalar tree_4_3_u03_r2_network.node[37].content_store 	hits[37] 	3809
scalar tree_4_3_u03_r2_network.node[37].content_store 	misses[37] 	8823
scalar tree_4_3_u03_r2_network.node[37].content_store 	decision_yes[37] 	125
scalar tree_4_3_u03_r2_network.node[37].content_store 	decision_no[37] 	8698
scalar tree_4_3_u03_r2_network.node[37].content_store 	decision_ratio[37] 	0.01416751671767
scalar tree_4_3_u03_r2_network.node[38].core_layer 	interests[38] 	12657
scalar tree_4_3_u03_r2_network.node[38].core_layer 	data[38] 	9048
scalar tree_4_3_u03_r2_network.node[38].content_store 	p_hit[38] 	0.28513865844987
scalar tree_4_3_u03_r2_network.node[38].content_store 	hits[38] 	3609
scalar tree_4_3_u03_r2_network.node[38].content_store 	misses[38] 	9048
scalar tree_4_3_u03_r2_network.node[38].content_store 	decision_yes[38] 	96
scalar tree_4_3_u03_r2_network.node[38].content_store 	decision_no[38] 	8952
scalar tree_4_3_u03_r2_network.node[38].content_store 	decision_ratio[38] 	0.010610079575597
scalar tree_4_3_u03_r2_network.node[39].core_layer 	interests[39] 	12605
scalar tree_4_3_u03_r2_network.node[39].core_layer 	data[39] 	8757
scalar tree_4_3_u03_r2_network.node[39].content_store 	p_hit[39] 	0.30535501785006
scalar tree_4_3_u03_r2_network.node[39].content_store 	hits[39] 	3849
scalar tree_4_3_u03_r2_network.node[39].content_store 	misses[39] 	8756
scalar tree_4_3_u03_r2_network.node[39].content_store 	decision_yes[39] 	123
scalar tree_4_3_u03_r2_network.node[39].content_store 	decision_no[39] 	8634
scalar tree_4_3_u03_r2_network.node[39].content_store 	decision_ratio[39] 	0.014045906132237
scalar tree_4_3_u03_r2_network.client[13] 	hdistance[13] 	2.6556229978081
scalar tree_4_3_u03_r2_network.client[13] 	downloads[13] 	11862
scalar tree_4_3_u03_r2_network.client[13] 	avg_time[13] 	0.004120799656
scalar tree_4_3_u03_r2_network.client[14] 	hdistance[14] 	2.6352999340804
scalar tree_4_3_u03_r2_network.client[14] 	downloads[14] 	12136
scalar tree_4_3_u03_r2_network.client[14] 	avg_time[14] 	0.004087340446
scalar tree_4_3_u03_r2_network.client[15] 	hdistance[15] 	2.68254101809
scalar tree_4_3_u03_r2_network.client[15] 	downloads[15] 	11885
scalar tree_4_3_u03_r2_network.client[15] 	avg_time[15] 	0.004153467772
scalar tree_4_3_u03_r2_network.client[16] 	hdistance[16] 	2.624387407592
scalar tree_4_3_u03_r2_network.client[16] 	downloads[16] 	12039
scalar tree_4_3_u03_r2_network.client[16] 	avg_time[16] 	0.004052160776
scalar tree_4_3_u03_r2_network.client[17] 	hdistance[17] 	2.6661640278127
scalar tree_4_3_u03_r2_network.client[17] 	downloads[17] 	11937
scalar tree_4_3_u03_r2_network.client[17] 	avg_time[17] 	0.004142076287
scalar tree_4_3_u03_r2_network.client[18] 	hdistance[18] 	2.6932811589376
scalar tree_4_3_u03_r2_network.client[18] 	downloads[18] 	12011
scalar tree_4_3_u03_r2_network.client[18] 	avg_time[18] 	0.004188823924
scalar tree_4_3_u03_r2_network.client[19] 	hdistance[19] 	2.6388819148046
scalar tree_4_3_u03_r2_network.client[19] 	downloads[19] 	11949
scalar tree_4_3_u03_r2_network.client[19] 	avg_time[19] 	0.00407200333
scalar tree_4_3_u03_r2_network.client[20] 	hdistance[20] 	2.626050769871
scalar tree_4_3_u03_r2_network.client[20] 	downloads[20] 	12015
scalar tree_4_3_u03_r2_network.client[20] 	avg_time[20] 	0.00406158668
scalar tree_4_3_u03_r2_network.client[21] 	hdistance[21] 	2.695983436853
scalar tree_4_3_u03_r2_network.client[21] 	downloads[21] 	12075
scalar tree_4_3_u03_r2_network.client[21] 	avg_time[21] 	0.004187823068
scalar tree_4_3_u03_r2_network.client[22] 	hdistance[22] 	2.6576990558944
scalar tree_4_3_u03_r2_network.client[22] 	downloads[22] 	11969
scalar tree_4_3_u03_r2_network.client[22] 	avg_time[22] 	0.004143200276
scalar tree_4_3_u03_r2_network.client[23] 	hdistance[23] 	2.6043474667328
scalar tree_4_3_u03_r2_network.client[23] 	downloads[23] 	12099
scalar tree_4_3_u03_r2_network.client[23] 	avg_time[23] 	0.004033057561
scalar tree_4_3_u03_r2_network.client[24] 	hdistance[24] 	2.6692021636241
scalar tree_4_3_u03_r2_network.client[24] 	downloads[24] 	11832
scalar tree_4_3_u03_r2_network.client[24] 	avg_time[24] 	0.004163452093
scalar tree_4_3_u03_r2_network.client[25] 	hdistance[25] 	2.6012203276496
scalar tree_4_3_u03_r2_network.client[25] 	downloads[25] 	11964
scalar tree_4_3_u03_r2_network.client[25] 	avg_time[25] 	0.004042792036
scalar tree_4_3_u03_r2_network.client[26] 	hdistance[26] 	2.6717607973422
scalar tree_4_3_u03_r2_network.client[26] 	downloads[26] 	12040
scalar tree_4_3_u03_r2_network.client[26] 	avg_time[26] 	0.004164947213
scalar tree_4_3_u03_r2_network.client[27] 	hdistance[27] 	2.6765175048275
scalar tree_4_3_u03_r2_network.client[27] 	downloads[27] 	11911
scalar tree_4_3_u03_r2_network.client[27] 	avg_time[27] 	0.004175129266
scalar tree_4_3_u03_r2_network.client[28] 	hdistance[28] 	2.5950330295175
scalar tree_4_3_u03_r2_network.client[28] 	downloads[28] 	11959
scalar tree_4_3_u03_r2_network.client[28] 	avg_time[28] 	0.004045987485
scalar tree_4_3_u03_r2_network.client[29] 	hdistance[29] 	2.6475054229935
scalar tree_4_3_u03_r2_network.client[29] 	downloads[29] 	11986
scalar tree_4_3_u03_r2_network.client[29] 	avg_time[29] 	0.004162656328
scalar tree_4_3_u03_r2_network.client[30] 	hdistance[30] 	2.6320054017556
scalar tree_4_3_u03_r2_network.client[30] 	downloads[30] 	11848
scalar tree_4_3_u03_r2_network.client[30] 	avg_time[30] 	0.004133184087
scalar tree_4_3_u03_r2_network.client[31] 	hdistance[31] 	2.6761433868974
scalar tree_4_3_u03_r2_network.client[31] 	downloads[31] 	12135
scalar tree_4_3_u03_r2_network.client[31] 	avg_time[31] 	0.004178818579
scalar tree_4_3_u03_r2_network.client[32] 	hdistance[32] 	2.6997014430254
scalar tree_4_3_u03_r2_network.client[32] 	downloads[32] 	12058
scalar tree_4_3_u03_r2_network.client[32] 	avg_time[32] 	0.00421219967
scalar tree_4_3_u03_r2_network.client[33] 	hdistance[33] 	2.674621653085
scalar tree_4_3_u03_r2_network.client[33] 	downloads[33] 	12026
scalar tree_4_3_u03_r2_network.client[33] 	avg_time[33] 	0.004173620824
scalar tree_4_3_u03_r2_network.client[34] 	hdistance[34] 	2.6657822734433
scalar tree_4_3_u03_r2_network.client[34] 	downloads[34] 	12061
scalar tree_4_3_u03_r2_network.client[34] 	avg_time[34] 	0.004184061295
scalar tree_4_3_u03_r2_network.client[35] 	hdistance[35] 	2.6392496392496
scalar tree_4_3_u03_r2_network.client[35] 	downloads[35] 	11781
scalar tree_4_3_u03_r2_network.client[35] 	avg_time[35] 	0.00415006919
scalar tree_4_3_u03_r2_network.client[36] 	hdistance[36] 	2.636703187251
scalar tree_4_3_u03_r2_network.client[36] 	downloads[36] 	12048
scalar tree_4_3_u03_r2_network.client[36] 	avg_time[36] 	0.004143257277
scalar tree_4_3_u03_r2_network.client[37] 	hdistance[37] 	2.6662803212187
scalar tree_4_3_u03_r2_network.client[37] 	downloads[37] 	12079
scalar tree_4_3_u03_r2_network.client[37] 	avg_time[37] 	0.004163255534
scalar tree_4_3_u03_r2_network.client[38] 	hdistance[38] 	2.7320337022964
scalar tree_4_3_u03_r2_network.client[38] 	downloads[38] 	12106
scalar tree_4_3_u03_r2_network.client[38] 	avg_time[38] 	0.004260033255
scalar tree_4_3_u03_r2_network.client[39] 	hdistance[39] 	2.660726182545
scalar tree_4_3_u03_r2_network.client[39] 	downloads[39] 	12008
scalar tree_4_3_u03_r2_network.client[39] 	avg_time[39] 	0.004152895079
