version 2
run General-354-20160901-06:09:53-8710
attr a 0.9
attr cd ffc
attr configname General
attr cr lru
attr datetime 20160901-06:09:53
attr experiment General
attr fsize 1
attr inifile hw5115/scenario_Y/omnetp.ini
attr iterationvars "$name=tree_4_3, $un=05, $rep=19, $cd=ffc, $cr=lru, $fsize=1, $a=0.9, $sl=nrr, $ttl=1000, $variance=0.05"
attr iterationvars2 "$name=tree_4_3, $un=05, $rep=19, $cd=ffc, $cr=lru, $fsize=1, $a=0.9, $sl=nrr, $ttl=1000, $variance=0.05, $repetition=0"
attr measurement "$name=tree_4_3, $un=05, $rep=19, $cd=ffc, $cr=lru, $fsize=1, $a=0.9, $sl=nrr, $ttl=1000, $variance=0.05"
attr name tree_4_3
attr network networks.${name}_u${un}_r${rep}_network
attr processid 8710
attr rep 19
attr repetition 0
attr replication #0
attr resultdir results
attr runnumber 354
attr seedset 19
attr sl nrr
attr ttl 1000
attr un 05
attr variance 0.05

scalar . 	a 	0.9
scalar . 	fsize 	1
scalar . 	rep 	19
scalar . 	ttl 	1000
scalar . 	un 	05
scalar . 	variance 	0.05
scalar tree_4_3_u05_r19_network.content_distribution 	repo-0 	0
scalar tree_4_3_u05_r19_network.content_distribution 	client-0 	13
scalar tree_4_3_u05_r19_network.content_distribution 	client-1 	14
scalar tree_4_3_u05_r19_network.content_distribution 	client-2 	15
scalar tree_4_3_u05_r19_network.content_distribution 	client-3 	16
scalar tree_4_3_u05_r19_network.content_distribution 	client-4 	17
scalar tree_4_3_u05_r19_network.content_distribution 	client-5 	18
scalar tree_4_3_u05_r19_network.content_distribution 	client-6 	19
scalar tree_4_3_u05_r19_network.content_distribution 	client-7 	20
scalar tree_4_3_u05_r19_network.content_distribution 	client-8 	21
scalar tree_4_3_u05_r19_network.content_distribution 	client-9 	22
scalar tree_4_3_u05_r19_network.content_distribution 	client-10 	23
scalar tree_4_3_u05_r19_network.content_distribution 	client-11 	24
scalar tree_4_3_u05_r19_network.content_distribution 	client-12 	25
scalar tree_4_3_u05_r19_network.content_distribution 	client-13 	26
scalar tree_4_3_u05_r19_network.content_distribution 	client-14 	27
scalar tree_4_3_u05_r19_network.content_distribution 	client-15 	28
scalar tree_4_3_u05_r19_network.content_distribution 	client-16 	29
scalar tree_4_3_u05_r19_network.content_distribution 	client-17 	30
scalar tree_4_3_u05_r19_network.content_distribution 	client-18 	31
scalar tree_4_3_u05_r19_network.content_distribution 	client-19 	32
scalar tree_4_3_u05_r19_network.content_distribution 	client-20 	33
scalar tree_4_3_u05_r19_network.content_distribution 	client-21 	34
scalar tree_4_3_u05_r19_network.content_distribution 	client-22 	35
scalar tree_4_3_u05_r19_network.content_distribution 	client-23 	36
scalar tree_4_3_u05_r19_network.content_distribution 	client-24 	37
scalar tree_4_3_u05_r19_network.content_distribution 	client-25 	38
scalar tree_4_3_u05_r19_network.content_distribution 	client-26 	39
scalar tree_4_3_u05_r19_network.content_distribution 	repo-0_card 	100000
scalar tree_4_3_u05_r19_network.content_distribution 	repo-0_price 	0
scalar tree_4_3_u05_r19_network.statistics 	stabilization_time 	983.6
scalar tree_4_3_u05_r19_network.statistics 	p_hit 	0.23285085357062
scalar tree_4_3_u05_r19_network.statistics 	interests 	24830.95
scalar tree_4_3_u05_r19_network.statistics 	data 	16732.6
scalar tree_4_3_u05_r19_network.statistics 	hdistance 	2.6360073772159
scalar tree_4_3_u05_r19_network.statistics 	avg_time 	0.004132500052
scalar tree_4_3_u05_r19_network.statistics 	downloads 	323919
scalar tree_4_3_u05_r19_network.statistics 	total_cost 	0
scalar tree_4_3_u05_r19_network.statistics 	total_replicas 	100000
scalar tree_4_3_u05_r19_network.statistics 	inner_hit 	0.43026497365082
scalar tree_4_3_u05_r19_network.node[0].core_layer 	interests[0] 	187311
scalar tree_4_3_u05_r19_network.node[0].core_layer 	repo_load[0] 	184548
scalar tree_4_3_u05_r19_network.node[0].core_layer 	data[0] 	0
scalar tree_4_3_u05_r19_network.node[0].core_layer 	repo_int[0] 	184548
scalar tree_4_3_u05_r19_network.node[0].content_store 	p_hit[0] 	0.014750868875827
scalar tree_4_3_u05_r19_network.node[0].content_store 	hits[0] 	2763
scalar tree_4_3_u05_r19_network.node[0].content_store 	misses[0] 	184548
scalar tree_4_3_u05_r19_network.node[0].content_store 	decision_yes[0] 	801
scalar tree_4_3_u05_r19_network.node[0].content_store 	decision_no[0] 	183747
scalar tree_4_3_u05_r19_network.node[0].content_store 	decision_ratio[0] 	0.004340334221991
scalar tree_4_3_u05_r19_network.node[1].core_layer 	interests[1] 	88867
scalar tree_4_3_u05_r19_network.node[1].core_layer 	data[1] 	86712
scalar tree_4_3_u05_r19_network.node[1].content_store 	p_hit[1] 	0.024238468722923
scalar tree_4_3_u05_r19_network.node[1].content_store 	hits[1] 	2154
scalar tree_4_3_u05_r19_network.node[1].content_store 	misses[1] 	86713
scalar tree_4_3_u05_r19_network.node[1].content_store 	decision_yes[1] 	448
scalar tree_4_3_u05_r19_network.node[1].content_store 	decision_no[1] 	86264
scalar tree_4_3_u05_r19_network.node[1].content_store 	decision_ratio[1] 	0.0051665282775164
scalar tree_4_3_u05_r19_network.node[2].core_layer 	interests[2] 	69429
scalar tree_4_3_u05_r19_network.node[2].core_layer 	data[2] 	67387
scalar tree_4_3_u05_r19_network.node[2].content_store 	p_hit[2] 	0.029382534675712
scalar tree_4_3_u05_r19_network.node[2].content_store 	hits[2] 	2040
scalar tree_4_3_u05_r19_network.node[2].content_store 	misses[2] 	67389
scalar tree_4_3_u05_r19_network.node[2].content_store 	decision_yes[2] 	392
scalar tree_4_3_u05_r19_network.node[2].content_store 	decision_no[2] 	66995
scalar tree_4_3_u05_r19_network.node[2].content_store 	decision_ratio[2] 	0.0058171457402763
scalar tree_4_3_u05_r19_network.node[3].core_layer 	interests[3] 	53027
scalar tree_4_3_u05_r19_network.node[3].core_layer 	data[3] 	49550
scalar tree_4_3_u05_r19_network.node[3].content_store 	p_hit[3] 	0.065551511494144
scalar tree_4_3_u05_r19_network.node[3].content_store 	hits[3] 	3476
scalar tree_4_3_u05_r19_network.node[3].content_store 	misses[3] 	49551
scalar tree_4_3_u05_r19_network.node[3].content_store 	decision_yes[3] 	494
scalar tree_4_3_u05_r19_network.node[3].content_store 	decision_no[3] 	49056
scalar tree_4_3_u05_r19_network.node[3].content_store 	decision_ratio[3] 	0.0099697275479314
scalar tree_4_3_u05_r19_network.node[4].core_layer 	interests[4] 	43099
scalar tree_4_3_u05_r19_network.node[4].core_layer 	data[4] 	40452
scalar tree_4_3_u05_r19_network.node[4].content_store 	p_hit[4] 	0.061393535812896
scalar tree_4_3_u05_r19_network.node[4].content_store 	hits[4] 	2646
scalar tree_4_3_u05_r19_network.node[4].content_store 	misses[4] 	40453
scalar tree_4_3_u05_r19_network.node[4].content_store 	decision_yes[4] 	361
scalar tree_4_3_u05_r19_network.node[4].content_store 	decision_no[4] 	40091
scalar tree_4_3_u05_r19_network.node[4].content_store 	decision_ratio[4] 	0.0089241570256106
scalar tree_4_3_u05_r19_network.node[5].core_layer 	interests[5] 	19893
scalar tree_4_3_u05_r19_network.node[5].core_layer 	data[5] 	16952
scalar tree_4_3_u05_r19_network.node[5].content_store 	p_hit[5] 	0.14784094907756
scalar tree_4_3_u05_r19_network.node[5].content_store 	hits[5] 	2941
scalar tree_4_3_u05_r19_network.node[5].content_store 	misses[5] 	16952
scalar tree_4_3_u05_r19_network.node[5].content_store 	decision_yes[5] 	206
scalar tree_4_3_u05_r19_network.node[5].content_store 	decision_no[5] 	16746
scalar tree_4_3_u05_r19_network.node[5].content_store 	decision_ratio[5] 	0.012151958470977
scalar tree_4_3_u05_r19_network.node[6].core_layer 	interests[6] 	22148
scalar tree_4_3_u05_r19_network.node[6].core_layer 	data[6] 	18619
scalar tree_4_3_u05_r19_network.node[6].content_store 	p_hit[6] 	0.15933718620191
scalar tree_4_3_u05_r19_network.node[6].content_store 	hits[6] 	3529
scalar tree_4_3_u05_r19_network.node[6].content_store 	misses[6] 	18619
scalar tree_4_3_u05_r19_network.node[6].content_store 	decision_yes[6] 	290
scalar tree_4_3_u05_r19_network.node[6].content_store 	decision_no[6] 	18329
scalar tree_4_3_u05_r19_network.node[6].content_store 	decision_ratio[6] 	0.015575487405339
scalar tree_4_3_u05_r19_network.node[7].core_layer 	interests[7] 	26389
scalar tree_4_3_u05_r19_network.node[7].core_layer 	data[7] 	24483
scalar tree_4_3_u05_r19_network.node[7].content_store 	p_hit[7] 	0.072227064307098
scalar tree_4_3_u05_r19_network.node[7].content_store 	hits[7] 	1906
scalar tree_4_3_u05_r19_network.node[7].content_store 	misses[7] 	24483
scalar tree_4_3_u05_r19_network.node[7].content_store 	decision_yes[7] 	239
scalar tree_4_3_u05_r19_network.node[7].content_store 	decision_no[7] 	24244
scalar tree_4_3_u05_r19_network.node[7].content_store 	decision_ratio[7] 	0.0097618755871421
scalar tree_4_3_u05_r19_network.node[8].core_layer 	interests[8] 	33907
scalar tree_4_3_u05_r19_network.node[8].core_layer 	data[8] 	31856
scalar tree_4_3_u05_r19_network.node[8].content_store 	p_hit[8] 	0.060371014834695
scalar tree_4_3_u05_r19_network.node[8].content_store 	hits[8] 	2047
scalar tree_4_3_u05_r19_network.node[8].content_store 	misses[8] 	31860
scalar tree_4_3_u05_r19_network.node[8].content_store 	decision_yes[8] 	248
scalar tree_4_3_u05_r19_network.node[8].content_store 	decision_no[8] 	31608
scalar tree_4_3_u05_r19_network.node[8].content_store 	decision_ratio[8] 	0.0077850326469111
scalar tree_4_3_u05_r19_network.node[9].core_layer 	interests[9] 	24331
scalar tree_4_3_u05_r19_network.node[9].core_layer 	data[9] 	20343
scalar tree_4_3_u05_r19_network.node[9].content_store 	p_hit[9] 	0.16386502815338
scalar tree_4_3_u05_r19_network.node[9].content_store 	hits[9] 	3987
scalar tree_4_3_u05_r19_network.node[9].content_store 	misses[9] 	20344
scalar tree_4_3_u05_r19_network.node[9].content_store 	decision_yes[9] 	472
scalar tree_4_3_u05_r19_network.node[9].content_store 	decision_no[9] 	19871
scalar tree_4_3_u05_r19_network.node[9].content_store 	decision_ratio[9] 	0.023202084255026
scalar tree_4_3_u05_r19_network.node[10].core_layer 	interests[10] 	28603
scalar tree_4_3_u05_r19_network.node[10].core_layer 	data[10] 	25517
scalar tree_4_3_u05_r19_network.node[10].content_store 	p_hit[10] 	0.10782085795196
scalar tree_4_3_u05_r19_network.node[10].content_store 	hits[10] 	3084
scalar tree_4_3_u05_r19_network.node[10].content_store 	misses[10] 	25519
scalar tree_4_3_u05_r19_network.node[10].content_store 	decision_yes[10] 	332
scalar tree_4_3_u05_r19_network.node[10].content_store 	decision_no[10] 	25185
scalar tree_4_3_u05_r19_network.node[10].content_store 	decision_ratio[10] 	0.013010933887212
scalar tree_4_3_u05_r19_network.node[11].core_layer 	interests[11] 	35324
scalar tree_4_3_u05_r19_network.node[11].core_layer 	data[11] 	32949
scalar tree_4_3_u05_r19_network.node[11].content_store 	p_hit[11] 	0.067234741252406
scalar tree_4_3_u05_r19_network.node[11].content_store 	hits[11] 	2375
scalar tree_4_3_u05_r19_network.node[11].content_store 	misses[11] 	32949
scalar tree_4_3_u05_r19_network.node[11].content_store 	decision_yes[11] 	334
scalar tree_4_3_u05_r19_network.node[11].content_store 	decision_no[11] 	32615
scalar tree_4_3_u05_r19_network.node[11].content_store 	decision_ratio[11] 	0.010136878205712
scalar tree_4_3_u05_r19_network.node[12].core_layer 	interests[12] 	19931
scalar tree_4_3_u05_r19_network.node[12].core_layer 	data[12] 	17202
scalar tree_4_3_u05_r19_network.node[12].content_store 	p_hit[12] 	0.13687220912147
scalar tree_4_3_u05_r19_network.node[12].content_store 	hits[12] 	2728
scalar tree_4_3_u05_r19_network.node[12].content_store 	misses[12] 	17203
scalar tree_4_3_u05_r19_network.node[12].content_store 	decision_yes[12] 	219
scalar tree_4_3_u05_r19_network.node[12].content_store 	decision_no[12] 	16983
scalar tree_4_3_u05_r19_network.node[12].content_store 	decision_ratio[12] 	0.012731077781653
scalar tree_4_3_u05_r19_network.node[13].core_layer 	interests[13] 	12575
scalar tree_4_3_u05_r19_network.node[13].core_layer 	data[13] 	8850
scalar tree_4_3_u05_r19_network.node[13].content_store 	p_hit[13] 	0.2962226640159
scalar tree_4_3_u05_r19_network.node[13].content_store 	hits[13] 	3725
scalar tree_4_3_u05_r19_network.node[13].content_store 	misses[13] 	8850
scalar tree_4_3_u05_r19_network.node[13].content_store 	decision_yes[13] 	136
scalar tree_4_3_u05_r19_network.node[13].content_store 	decision_no[13] 	8714
scalar tree_4_3_u05_r19_network.node[13].content_store 	decision_ratio[13] 	0.015367231638418
scalar tree_4_3_u05_r19_network.node[14].core_layer 	interests[14] 	12568
scalar tree_4_3_u05_r19_network.node[14].core_layer 	data[14] 	8931
scalar tree_4_3_u05_r19_network.node[14].content_store 	p_hit[14] 	0.28938574156588
scalar tree_4_3_u05_r19_network.node[14].content_store 	hits[14] 	3637
scalar tree_4_3_u05_r19_network.node[14].content_store 	misses[14] 	8931
scalar tree_4_3_u05_r19_network.node[14].content_store 	decision_yes[14] 	97
scalar tree_4_3_u05_r19_network.node[14].content_store 	decision_no[14] 	8834
scalar tree_4_3_u05_r19_network.node[14].content_store 	decision_ratio[14] 	0.010861045795544
scalar tree_4_3_u05_r19_network.node[15].core_layer 	interests[15] 	12241
scalar tree_4_3_u05_r19_network.node[15].core_layer 	data[15] 	8605
scalar tree_4_3_u05_r19_network.node[15].content_store 	p_hit[15] 	0.29703455600033
scalar tree_4_3_u05_r19_network.node[15].content_store 	hits[15] 	3636
scalar tree_4_3_u05_r19_network.node[15].content_store 	misses[15] 	8605
scalar tree_4_3_u05_r19_network.node[15].content_store 	decision_yes[15] 	108
scalar tree_4_3_u05_r19_network.node[15].content_store 	decision_no[15] 	8497
scalar tree_4_3_u05_r19_network.node[15].content_store 	decision_ratio[15] 	0.012550842533411
scalar tree_4_3_u05_r19_network.node[16].core_layer 	interests[16] 	13007
scalar tree_4_3_u05_r19_network.node[16].core_layer 	data[16] 	8745
scalar tree_4_3_u05_r19_network.node[16].content_store 	p_hit[16] 	0.32759283462751
scalar tree_4_3_u05_r19_network.node[16].content_store 	hits[16] 	4261
scalar tree_4_3_u05_r19_network.node[16].content_store 	misses[16] 	8746
scalar tree_4_3_u05_r19_network.node[16].content_store 	decision_yes[16] 	99
scalar tree_4_3_u05_r19_network.node[16].content_store 	decision_no[16] 	8646
scalar tree_4_3_u05_r19_network.node[16].content_store 	decision_ratio[16] 	0.011320754716981
scalar tree_4_3_u05_r19_network.node[17].core_layer 	interests[17] 	12369
scalar tree_4_3_u05_r19_network.node[17].core_layer 	data[17] 	8786
scalar tree_4_3_u05_r19_network.node[17].content_store 	p_hit[17] 	0.28967580240925
scalar tree_4_3_u05_r19_network.node[17].content_store 	hits[17] 	3583
scalar tree_4_3_u05_r19_network.node[17].content_store 	misses[17] 	8786
scalar tree_4_3_u05_r19_network.node[17].content_store 	decision_yes[17] 	104
scalar tree_4_3_u05_r19_network.node[17].content_store 	decision_no[17] 	8682
scalar tree_4_3_u05_r19_network.node[17].content_store 	decision_ratio[17] 	0.011837013430458
scalar tree_4_3_u05_r19_network.node[18].core_layer 	interests[18] 	12961
scalar tree_4_3_u05_r19_network.node[18].core_layer 	data[18] 	8784
scalar tree_4_3_u05_r19_network.node[18].content_store 	p_hit[18] 	0.32227451585526
scalar tree_4_3_u05_r19_network.node[18].content_store 	hits[18] 	4177
scalar tree_4_3_u05_r19_network.node[18].content_store 	misses[18] 	8784
scalar tree_4_3_u05_r19_network.node[18].content_store 	decision_yes[18] 	115
scalar tree_4_3_u05_r19_network.node[18].content_store 	decision_no[18] 	8669
scalar tree_4_3_u05_r19_network.node[18].content_store 	decision_ratio[18] 	0.013091985428051
scalar tree_4_3_u05_r19_network.node[19].core_layer 	interests[19] 	13313
scalar tree_4_3_u05_r19_network.node[19].core_layer 	data[19] 	8871
scalar tree_4_3_u05_r19_network.node[19].content_store 	p_hit[19] 	0.33365882971532
scalar tree_4_3_u05_r19_network.node[19].content_store 	hits[19] 	4442
scalar tree_4_3_u05_r19_network.node[19].content_store 	misses[19] 	8871
scalar tree_4_3_u05_r19_network.node[19].content_store 	decision_yes[19] 	111
scalar tree_4_3_u05_r19_network.node[19].content_store 	decision_no[19] 	8760
scalar tree_4_3_u05_r19_network.node[19].content_store 	decision_ratio[19] 	0.012512681772066
scalar tree_4_3_u05_r19_network.node[20].core_layer 	interests[20] 	12467
scalar tree_4_3_u05_r19_network.node[20].core_layer 	data[20] 	8762
scalar tree_4_3_u05_r19_network.node[20].content_store 	p_hit[20] 	0.29718456725756
scalar tree_4_3_u05_r19_network.node[20].content_store 	hits[20] 	3705
scalar tree_4_3_u05_r19_network.node[20].content_store 	misses[20] 	8762
scalar tree_4_3_u05_r19_network.node[20].content_store 	decision_yes[20] 	115
scalar tree_4_3_u05_r19_network.node[20].content_store 	decision_no[20] 	8647
scalar tree_4_3_u05_r19_network.node[20].content_store 	decision_ratio[20] 	0.013124857338507
scalar tree_4_3_u05_r19_network.node[21].core_layer 	interests[21] 	12485
scalar tree_4_3_u05_r19_network.node[21].core_layer 	data[21] 	8728
scalar tree_4_3_u05_r19_network.node[21].content_store 	p_hit[21] 	0.30084100921105
scalar tree_4_3_u05_r19_network.node[21].content_store 	hits[21] 	3756
scalar tree_4_3_u05_r19_network.node[21].content_store 	misses[21] 	8729
scalar tree_4_3_u05_r19_network.node[21].content_store 	decision_yes[21] 	95
scalar tree_4_3_u05_r19_network.node[21].content_store 	decision_no[21] 	8633
scalar tree_4_3_u05_r19_network.node[21].content_store 	decision_ratio[21] 	0.010884509624198
scalar tree_4_3_u05_r19_network.node[22].core_layer 	interests[22] 	12412
scalar tree_4_3_u05_r19_network.node[22].core_layer 	data[22] 	8913
scalar tree_4_3_u05_r19_network.node[22].content_store 	p_hit[22] 	0.28190460844344
scalar tree_4_3_u05_r19_network.node[22].content_store 	hits[22] 	3499
scalar tree_4_3_u05_r19_network.node[22].content_store 	misses[22] 	8913
scalar tree_4_3_u05_r19_network.node[22].content_store 	decision_yes[22] 	112
scalar tree_4_3_u05_r19_network.node[22].content_store 	decision_no[22] 	8801
scalar tree_4_3_u05_r19_network.node[22].content_store 	decision_ratio[22] 	0.012565914955683
scalar tree_4_3_u05_r19_network.node[23].core_layer 	interests[23] 	12354
scalar tree_4_3_u05_r19_network.node[23].core_layer 	data[23] 	8817
scalar tree_4_3_u05_r19_network.node[23].content_store 	p_hit[23] 	0.28630403108305
scalar tree_4_3_u05_r19_network.node[23].content_store 	hits[23] 	3537
scalar tree_4_3_u05_r19_network.node[23].content_store 	misses[23] 	8817
scalar tree_4_3_u05_r19_network.node[23].content_store 	decision_yes[23] 	105
scalar tree_4_3_u05_r19_network.node[23].content_store 	decision_no[23] 	8712
scalar tree_4_3_u05_r19_network.node[23].content_store 	decision_ratio[23] 	0.011908812521266
scalar tree_4_3_u05_r19_network.node[24].core_layer 	interests[24] 	13179
scalar tree_4_3_u05_r19_network.node[24].core_layer 	data[24] 	8919
scalar tree_4_3_u05_r19_network.node[24].content_store 	p_hit[24] 	0.32324152060096
scalar tree_4_3_u05_r19_network.node[24].content_store 	hits[24] 	4260
scalar tree_4_3_u05_r19_network.node[24].content_store 	misses[24] 	8919
scalar tree_4_3_u05_r19_network.node[24].content_store 	decision_yes[24] 	119
scalar tree_4_3_u05_r19_network.node[24].content_store 	decision_no[24] 	8800
scalar tree_4_3_u05_r19_network.node[24].content_store 	decision_ratio[24] 	0.013342302948761
scalar tree_4_3_u05_r19_network.node[25].core_layer 	interests[25] 	12589
scalar tree_4_3_u05_r19_network.node[25].core_layer 	data[25] 	8908
scalar tree_4_3_u05_r19_network.node[25].content_store 	p_hit[25] 	0.29223925649376
scalar tree_4_3_u05_r19_network.node[25].content_store 	hits[25] 	3679
scalar tree_4_3_u05_r19_network.node[25].content_store 	misses[25] 	8910
scalar tree_4_3_u05_r19_network.node[25].content_store 	decision_yes[25] 	107
scalar tree_4_3_u05_r19_network.node[25].content_store 	decision_no[25] 	8801
scalar tree_4_3_u05_r19_network.node[25].content_store 	decision_ratio[25] 	0.012011674898967
scalar tree_4_3_u05_r19_network.node[26].core_layer 	interests[26] 	12539
scalar tree_4_3_u05_r19_network.node[26].core_layer 	data[26] 	8790
scalar tree_4_3_u05_r19_network.node[26].content_store 	p_hit[26] 	0.29898716006061
scalar tree_4_3_u05_r19_network.node[26].content_store 	hits[26] 	3749
scalar tree_4_3_u05_r19_network.node[26].content_store 	misses[26] 	8790
scalar tree_4_3_u05_r19_network.node[26].content_store 	decision_yes[26] 	121
scalar tree_4_3_u05_r19_network.node[26].content_store 	decision_no[26] 	8669
scalar tree_4_3_u05_r19_network.node[26].content_store 	decision_ratio[26] 	0.013765642775882
scalar tree_4_3_u05_r19_network.node[27].core_layer 	interests[27] 	13008
scalar tree_4_3_u05_r19_network.node[27].core_layer 	data[27] 	8791
scalar tree_4_3_u05_r19_network.node[27].content_store 	p_hit[27] 	0.32410824108241
scalar tree_4_3_u05_r19_network.node[27].content_store 	hits[27] 	4216
scalar tree_4_3_u05_r19_network.node[27].content_store 	misses[27] 	8792
scalar tree_4_3_u05_r19_network.node[27].content_store 	decision_yes[27] 	118
scalar tree_4_3_u05_r19_network.node[27].content_store 	decision_no[27] 	8673
scalar tree_4_3_u05_r19_network.node[27].content_store 	decision_ratio[27] 	0.013422818791946
scalar tree_4_3_u05_r19_network.node[28].core_layer 	interests[28] 	12594
scalar tree_4_3_u05_r19_network.node[28].core_layer 	data[28] 	8852
scalar tree_4_3_u05_r19_network.node[28].content_store 	p_hit[28] 	0.29704621248213
scalar tree_4_3_u05_r19_network.node[28].content_store 	hits[28] 	3741
scalar tree_4_3_u05_r19_network.node[28].content_store 	misses[28] 	8853
scalar tree_4_3_u05_r19_network.node[28].content_store 	decision_yes[28] 	125
scalar tree_4_3_u05_r19_network.node[28].content_store 	decision_no[28] 	8727
scalar tree_4_3_u05_r19_network.node[28].content_store 	decision_ratio[28] 	0.014121102575689
scalar tree_4_3_u05_r19_network.node[29].core_layer 	interests[29] 	12855
scalar tree_4_3_u05_r19_network.node[29].core_layer 	data[29] 	8651
scalar tree_4_3_u05_r19_network.node[29].content_store 	p_hit[29] 	0.3270322831583
scalar tree_4_3_u05_r19_network.node[29].content_store 	hits[29] 	4204
scalar tree_4_3_u05_r19_network.node[29].content_store 	misses[29] 	8651
scalar tree_4_3_u05_r19_network.node[29].content_store 	decision_yes[29] 	122
scalar tree_4_3_u05_r19_network.node[29].content_store 	decision_no[29] 	8529
scalar tree_4_3_u05_r19_network.node[29].content_store 	decision_ratio[29] 	0.014102415905676
scalar tree_4_3_u05_r19_network.node[30].core_layer 	interests[30] 	12812
scalar tree_4_3_u05_r19_network.node[30].core_layer 	data[30] 	8974
scalar tree_4_3_u05_r19_network.node[30].content_store 	p_hit[30] 	0.29956290977209
scalar tree_4_3_u05_r19_network.node[30].content_store 	hits[30] 	3838
scalar tree_4_3_u05_r19_network.node[30].content_store 	misses[30] 	8974
scalar tree_4_3_u05_r19_network.node[30].content_store 	decision_yes[30] 	144
scalar tree_4_3_u05_r19_network.node[30].content_store 	decision_no[30] 	8830
scalar tree_4_3_u05_r19_network.node[30].content_store 	decision_ratio[30] 	0.01604635613996
scalar tree_4_3_u05_r19_network.node[31].core_layer 	interests[31] 	12436
scalar tree_4_3_u05_r19_network.node[31].core_layer 	data[31] 	8706
scalar tree_4_3_u05_r19_network.node[31].content_store 	p_hit[31] 	0.2998552589257
scalar tree_4_3_u05_r19_network.node[31].content_store 	hits[31] 	3729
scalar tree_4_3_u05_r19_network.node[31].content_store 	misses[31] 	8707
scalar tree_4_3_u05_r19_network.node[31].content_store 	decision_yes[31] 	136
scalar tree_4_3_u05_r19_network.node[31].content_store 	decision_no[31] 	8570
scalar tree_4_3_u05_r19_network.node[31].content_store 	decision_ratio[31] 	0.015621410521479
scalar tree_4_3_u05_r19_network.node[32].core_layer 	interests[32] 	12601
scalar tree_4_3_u05_r19_network.node[32].core_layer 	data[32] 	8765
scalar tree_4_3_u05_r19_network.node[32].content_store 	p_hit[32] 	0.30442028410444
scalar tree_4_3_u05_r19_network.node[32].content_store 	hits[32] 	3836
scalar tree_4_3_u05_r19_network.node[32].content_store 	misses[32] 	8765
scalar tree_4_3_u05_r19_network.node[32].content_store 	decision_yes[32] 	104
scalar tree_4_3_u05_r19_network.node[32].content_store 	decision_no[32] 	8661
scalar tree_4_3_u05_r19_network.node[32].content_store 	decision_ratio[32] 	0.01186537364518
scalar tree_4_3_u05_r19_network.node[33].core_layer 	interests[33] 	12493
scalar tree_4_3_u05_r19_network.node[33].core_layer 	data[33] 	8709
scalar tree_4_3_u05_r19_network.node[33].content_store 	p_hit[33] 	0.30288961818618
scalar tree_4_3_u05_r19_network.node[33].content_store 	hits[33] 	3784
scalar tree_4_3_u05_r19_network.node[33].content_store 	misses[33] 	8709
scalar tree_4_3_u05_r19_network.node[33].content_store 	decision_yes[33] 	111
scalar tree_4_3_u05_r19_network.node[33].content_store 	decision_no[33] 	8598
scalar tree_4_3_u05_r19_network.node[33].content_store 	decision_ratio[33] 	0.012745435756114
scalar tree_4_3_u05_r19_network.node[34].core_layer 	interests[34] 	12295
scalar tree_4_3_u05_r19_network.node[34].core_layer 	data[34] 	8679
scalar tree_4_3_u05_r19_network.node[34].content_store 	p_hit[34] 	0.29410329402196
scalar tree_4_3_u05_r19_network.node[34].content_store 	hits[34] 	3616
scalar tree_4_3_u05_r19_network.node[34].content_store 	misses[34] 	8679
scalar tree_4_3_u05_r19_network.node[34].content_store 	decision_yes[34] 	112
scalar tree_4_3_u05_r19_network.node[34].content_store 	decision_no[34] 	8567
scalar tree_4_3_u05_r19_network.node[34].content_store 	decision_ratio[34] 	0.012904712524484
scalar tree_4_3_u05_r19_network.node[35].core_layer 	interests[35] 	12440
scalar tree_4_3_u05_r19_network.node[35].core_layer 	data[35] 	8741
scalar tree_4_3_u05_r19_network.node[35].content_store 	p_hit[35] 	0.29734726688103
scalar tree_4_3_u05_r19_network.node[35].content_store 	hits[35] 	3699
scalar tree_4_3_u05_r19_network.node[35].content_store 	misses[35] 	8741
scalar tree_4_3_u05_r19_network.node[35].content_store 	decision_yes[35] 	104
scalar tree_4_3_u05_r19_network.node[35].content_store 	decision_no[35] 	8637
scalar tree_4_3_u05_r19_network.node[35].content_store 	decision_ratio[35] 	0.011897952179385
scalar tree_4_3_u05_r19_network.node[36].core_layer 	interests[36] 	12778
scalar tree_4_3_u05_r19_network.node[36].core_layer 	data[36] 	8714
scalar tree_4_3_u05_r19_network.node[36].content_store 	p_hit[36] 	0.31804664266708
scalar tree_4_3_u05_r19_network.node[36].content_store 	hits[36] 	4064
scalar tree_4_3_u05_r19_network.node[36].content_store 	misses[36] 	8714
scalar tree_4_3_u05_r19_network.node[36].content_store 	decision_yes[36] 	119
scalar tree_4_3_u05_r19_network.node[36].content_store 	decision_no[36] 	8595
scalar tree_4_3_u05_r19_network.node[36].content_store 	decision_ratio[36] 	0.013656185448703
scalar tree_4_3_u05_r19_network.node[37].core_layer 	interests[37] 	12400
scalar tree_4_3_u05_r19_network.node[37].core_layer 	data[37] 	8853
scalar tree_4_3_u05_r19_network.node[37].content_store 	p_hit[37] 	0.28604838709677
scalar tree_4_3_u05_r19_network.node[37].content_store 	hits[37] 	3547
scalar tree_4_3_u05_r19_network.node[37].content_store 	misses[37] 	8853
scalar tree_4_3_u05_r19_network.node[37].content_store 	decision_yes[37] 	117
scalar tree_4_3_u05_r19_network.node[37].content_store 	decision_no[37] 	8736
scalar tree_4_3_u05_r19_network.node[37].content_store 	decision_ratio[37] 	0.013215859030837
scalar tree_4_3_u05_r19_network.node[38].core_layer 	interests[38] 	12820
scalar tree_4_3_u05_r19_network.node[38].core_layer 	data[38] 	8747
scalar tree_4_3_u05_r19_network.node[38].content_store 	p_hit[38] 	0.31770670826833
scalar tree_4_3_u05_r19_network.node[38].content_store 	hits[38] 	4073
scalar tree_4_3_u05_r19_network.node[38].content_store 	misses[38] 	8747
scalar tree_4_3_u05_r19_network.node[38].content_store 	decision_yes[38] 	123
scalar tree_4_3_u05_r19_network.node[38].content_store 	decision_no[38] 	8624
scalar tree_4_3_u05_r19_network.node[38].content_store 	decision_ratio[38] 	0.014061964101978
scalar tree_4_3_u05_r19_network.node[39].core_layer 	interests[39] 	12388
scalar tree_4_3_u05_r19_network.node[39].core_layer 	data[39] 	8691
scalar tree_4_3_u05_r19_network.node[39].content_store 	p_hit[39] 	0.29843396835647
scalar tree_4_3_u05_r19_network.node[39].content_store 	hits[39] 	3697
scalar tree_4_3_u05_r19_network.node[39].content_store 	misses[39] 	8691
scalar tree_4_3_u05_r19_network.node[39].content_store 	decision_yes[39] 	109
scalar tree_4_3_u05_r19_network.node[39].content_store 	decision_no[39] 	8582
scalar tree_4_3_u05_r19_network.node[39].content_store 	decision_ratio[39] 	0.012541709814751
scalar tree_4_3_u05_r19_network.client[13] 	hdistance[13] 	2.6455570291777
scalar tree_4_3_u05_r19_network.client[13] 	downloads[13] 	12064
scalar tree_4_3_u05_r19_network.client[13] 	avg_time[13] 	0.004136435939
scalar tree_4_3_u05_r19_network.client[14] 	hdistance[14] 	2.683687825871
scalar tree_4_3_u05_r19_network.client[14] 	downloads[14] 	12083
scalar tree_4_3_u05_r19_network.client[14] 	avg_time[14] 	0.004181574397
scalar tree_4_3_u05_r19_network.client[15] 	hdistance[15] 	2.6634541577825
scalar tree_4_3_u05_r19_network.client[15] 	downloads[15] 	11725
scalar tree_4_3_u05_r19_network.client[15] 	avg_time[15] 	0.004152832907
scalar tree_4_3_u05_r19_network.client[16] 	hdistance[16] 	2.5675540348828
scalar tree_4_3_u05_r19_network.client[16] 	downloads[16] 	11983
scalar tree_4_3_u05_r19_network.client[16] 	avg_time[16] 	0.004021268514
scalar tree_4_3_u05_r19_network.client[17] 	hdistance[17] 	2.6493474104248
scalar tree_4_3_u05_r19_network.client[17] 	downloads[17] 	12029
scalar tree_4_3_u05_r19_network.client[17] 	avg_time[17] 	0.004178897972
scalar tree_4_3_u05_r19_network.client[18] 	hdistance[18] 	2.565819091288
scalar tree_4_3_u05_r19_network.client[18] 	downloads[18] 	11995
scalar tree_4_3_u05_r19_network.client[18] 	avg_time[18] 	0.004040013682
scalar tree_4_3_u05_r19_network.client[19] 	hdistance[19] 	2.593137254902
scalar tree_4_3_u05_r19_network.client[19] 	downloads[19] 	12036
scalar tree_4_3_u05_r19_network.client[19] 	avg_time[19] 	0.004058322009
scalar tree_4_3_u05_r19_network.client[20] 	hdistance[20] 	2.6257490013316
scalar tree_4_3_u05_r19_network.client[20] 	downloads[20] 	12016
scalar tree_4_3_u05_r19_network.client[20] 	avg_time[20] 	0.004136648119
scalar tree_4_3_u05_r19_network.client[21] 	hdistance[21] 	2.6267054908486
scalar tree_4_3_u05_r19_network.client[21] 	downloads[21] 	12020
scalar tree_4_3_u05_r19_network.client[21] 	avg_time[21] 	0.004133774062
scalar tree_4_3_u05_r19_network.client[22] 	hdistance[22] 	2.7092298745535
scalar tree_4_3_u05_r19_network.client[22] 	downloads[22] 	12037
scalar tree_4_3_u05_r19_network.client[22] 	avg_time[22] 	0.004231283849
scalar tree_4_3_u05_r19_network.client[23] 	hdistance[23] 	2.7041677106824
scalar tree_4_3_u05_r19_network.client[23] 	downloads[23] 	11973
scalar tree_4_3_u05_r19_network.client[23] 	avg_time[23] 	0.004220660176
scalar tree_4_3_u05_r19_network.client[24] 	hdistance[24] 	2.5888106092002
scalar tree_4_3_u05_r19_network.client[24] 	downloads[24] 	12065
scalar tree_4_3_u05_r19_network.client[24] 	avg_time[24] 	0.004065475647
scalar tree_4_3_u05_r19_network.client[25] 	hdistance[25] 	2.6888815843537
scalar tree_4_3_u05_r19_network.client[25] 	downloads[25] 	12169
scalar tree_4_3_u05_r19_network.client[25] 	avg_time[25] 	0.004193274962
scalar tree_4_3_u05_r19_network.client[26] 	hdistance[26] 	2.6537224833045
scalar tree_4_3_u05_r19_network.client[26] 	downloads[26] 	12129
scalar tree_4_3_u05_r19_network.client[26] 	avg_time[26] 	0.00413405677
scalar tree_4_3_u05_r19_network.client[27] 	hdistance[27] 	2.5871306960441
scalar tree_4_3_u05_r19_network.client[27] 	downloads[27] 	11982
scalar tree_4_3_u05_r19_network.client[27] 	avg_time[27] 	0.004051741278
scalar tree_4_3_u05_r19_network.client[28] 	hdistance[28] 	2.6487230846269
scalar tree_4_3_u05_r19_network.client[28] 	downloads[28] 	11982
scalar tree_4_3_u05_r19_network.client[28] 	avg_time[28] 	0.004167414809
scalar tree_4_3_u05_r19_network.client[29] 	hdistance[29] 	2.5822549268375
scalar tree_4_3_u05_r19_network.client[29] 	downloads[29] 	11823
scalar tree_4_3_u05_r19_network.client[29] 	avg_time[29] 	0.004049919279
scalar tree_4_3_u05_r19_network.client[30] 	hdistance[30] 	2.6294040171221
scalar tree_4_3_u05_r19_network.client[30] 	downloads[30] 	12148
scalar tree_4_3_u05_r19_network.client[30] 	avg_time[30] 	0.004147510962
scalar tree_4_3_u05_r19_network.client[31] 	hdistance[31] 	2.6346234573084
scalar tree_4_3_u05_r19_network.client[31] 	downloads[31] 	11911
scalar tree_4_3_u05_r19_network.client[31] 	avg_time[31] 	0.004157834306
scalar tree_4_3_u05_r19_network.client[32] 	hdistance[32] 	2.621957277695
scalar tree_4_3_u05_r19_network.client[32] 	downloads[32] 	12078
scalar tree_4_3_u05_r19_network.client[32] 	avg_time[32] 	0.004129824674
scalar tree_4_3_u05_r19_network.client[33] 	hdistance[33] 	2.6375575073191
scalar tree_4_3_u05_r19_network.client[33] 	downloads[33] 	11955
scalar tree_4_3_u05_r19_network.client[33] 	avg_time[33] 	0.004162238858
scalar tree_4_3_u05_r19_network.client[34] 	hdistance[34] 	2.6789518174134
scalar tree_4_3_u05_r19_network.client[34] 	downloads[34] 	11830
scalar tree_4_3_u05_r19_network.client[34] 	avg_time[34] 	0.004197292064
scalar tree_4_3_u05_r19_network.client[35] 	hdistance[35] 	2.6736700563072
scalar tree_4_3_u05_r19_network.client[35] 	downloads[35] 	11899
scalar tree_4_3_u05_r19_network.client[35] 	avg_time[35] 	0.00419557443
scalar tree_4_3_u05_r19_network.client[36] 	hdistance[36] 	2.6093736899472
scalar tree_4_3_u05_r19_network.client[36] 	downloads[36] 	11927
scalar tree_4_3_u05_r19_network.client[36] 	avg_time[36] 	0.00407009008
scalar tree_4_3_u05_r19_network.client[37] 	hdistance[37] 	2.6669154228856
scalar tree_4_3_u05_r19_network.client[37] 	downloads[37] 	12060
scalar tree_4_3_u05_r19_network.client[37] 	avg_time[37] 	0.004181423216
scalar tree_4_3_u05_r19_network.client[38] 	hdistance[38] 	2.6002507312996
scalar tree_4_3_u05_r19_network.client[38] 	downloads[38] 	11965
scalar tree_4_3_u05_r19_network.client[38] 	avg_time[38] 	0.004056662297
scalar tree_4_3_u05_r19_network.client[39] 	hdistance[39] 	2.6355629414209
scalar tree_4_3_u05_r19_network.client[39] 	downloads[39] 	12035
scalar tree_4_3_u05_r19_network.client[39] 	avg_time[39] 	0.00412545617
