version 2
run General-342-20160901-05:44:29-8710
attr a 0.9
attr cd ffc
attr configname General
attr cr lru
attr datetime 20160901-05:44:29
attr experiment General
attr fsize 1
attr inifile hw5115/scenario_Y/omnetp.ini
attr iterationvars "$name=tree_4_3, $un=05, $rep=15, $cd=ffc, $cr=lru, $fsize=1, $a=0.9, $sl=nrr, $ttl=1000, $variance=0.05"
attr iterationvars2 "$name=tree_4_3, $un=05, $rep=15, $cd=ffc, $cr=lru, $fsize=1, $a=0.9, $sl=nrr, $ttl=1000, $variance=0.05, $repetition=0"
attr measurement "$name=tree_4_3, $un=05, $rep=15, $cd=ffc, $cr=lru, $fsize=1, $a=0.9, $sl=nrr, $ttl=1000, $variance=0.05"
attr name tree_4_3
attr network networks.${name}_u${un}_r${rep}_network
attr processid 8710
attr rep 15
attr repetition 0
attr replication #0
attr resultdir results
attr runnumber 342
attr seedset 15
attr sl nrr
attr ttl 1000
attr un 05
attr variance 0.05

scalar . 	a 	0.9
scalar . 	fsize 	1
scalar . 	rep 	15
scalar . 	ttl 	1000
scalar . 	un 	05
scalar . 	variance 	0.05
scalar tree_4_3_u05_r15_network.content_distribution 	repo-0 	0
scalar tree_4_3_u05_r15_network.content_distribution 	client-0 	13
scalar tree_4_3_u05_r15_network.content_distribution 	client-1 	14
scalar tree_4_3_u05_r15_network.content_distribution 	client-2 	15
scalar tree_4_3_u05_r15_network.content_distribution 	client-3 	16
scalar tree_4_3_u05_r15_network.content_distribution 	client-4 	17
scalar tree_4_3_u05_r15_network.content_distribution 	client-5 	18
scalar tree_4_3_u05_r15_network.content_distribution 	client-6 	19
scalar tree_4_3_u05_r15_network.content_distribution 	client-7 	20
scalar tree_4_3_u05_r15_network.content_distribution 	client-8 	21
scalar tree_4_3_u05_r15_network.content_distribution 	client-9 	22
scalar tree_4_3_u05_r15_network.content_distribution 	client-10 	23
scalar tree_4_3_u05_r15_network.content_distribution 	client-11 	24
scalar tree_4_3_u05_r15_network.content_distribution 	client-12 	25
scalar tree_4_3_u05_r15_network.content_distribution 	client-13 	26
scalar tree_4_3_u05_r15_network.content_distribution 	client-14 	27
scalar tree_4_3_u05_r15_network.content_distribution 	client-15 	28
scalar tree_4_3_u05_r15_network.content_distribution 	client-16 	29
scalar tree_4_3_u05_r15_network.content_distribution 	client-17 	30
scalar tree_4_3_u05_r15_network.content_distribution 	client-18 	31
scalar tree_4_3_u05_r15_network.content_distribution 	client-19 	32
scalar tree_4_3_u05_r15_network.content_distribution 	client-20 	33
scalar tree_4_3_u05_r15_network.content_distribution 	client-21 	34
scalar tree_4_3_u05_r15_network.content_distribution 	client-22 	35
scalar tree_4_3_u05_r15_network.content_distribution 	client-23 	36
scalar tree_4_3_u05_r15_network.content_distribution 	client-24 	37
scalar tree_4_3_u05_r15_network.content_distribution 	client-25 	38
scalar tree_4_3_u05_r15_network.content_distribution 	client-26 	39
scalar tree_4_3_u05_r15_network.content_distribution 	repo-0_card 	100000
scalar tree_4_3_u05_r15_network.content_distribution 	repo-0_price 	0
scalar tree_4_3_u05_r15_network.statistics 	stabilization_time 	1120.4
scalar tree_4_3_u05_r15_network.statistics 	p_hit 	0.23379917512136
scalar tree_4_3_u05_r15_network.statistics 	interests 	24919.475
scalar tree_4_3_u05_r15_network.statistics 	data 	16805.7
scalar tree_4_3_u05_r15_network.statistics 	hdistance 	2.6328495800361
scalar tree_4_3_u05_r15_network.statistics 	avg_time 	0.004142625002
scalar tree_4_3_u05_r15_network.statistics 	downloads 	324556
scalar tree_4_3_u05_r15_network.statistics 	total_cost 	0
scalar tree_4_3_u05_r15_network.statistics 	total_replicas 	100000
scalar tree_4_3_u05_r15_network.statistics 	inner_hit 	0.43851600340157
scalar tree_4_3_u05_r15_network.node[0].core_layer 	interests[0] 	184687
scalar tree_4_3_u05_r15_network.node[0].core_layer 	repo_load[0] 	182233
scalar tree_4_3_u05_r15_network.node[0].core_layer 	data[0] 	0
scalar tree_4_3_u05_r15_network.node[0].core_layer 	repo_int[0] 	182233
scalar tree_4_3_u05_r15_network.node[0].content_store 	p_hit[0] 	0.013287345617179
scalar tree_4_3_u05_r15_network.node[0].content_store 	hits[0] 	2454
scalar tree_4_3_u05_r15_network.node[0].content_store 	misses[0] 	182233
scalar tree_4_3_u05_r15_network.node[0].content_store 	decision_yes[0] 	793
scalar tree_4_3_u05_r15_network.node[0].content_store 	decision_no[0] 	181440
scalar tree_4_3_u05_r15_network.node[0].content_store 	decision_ratio[0] 	0.0043515718887358
scalar tree_4_3_u05_r15_network.node[1].core_layer 	interests[1] 	111577
scalar tree_4_3_u05_r15_network.node[1].core_layer 	data[1] 	109151
scalar tree_4_3_u05_r15_network.node[1].content_store 	p_hit[1] 	0.021742832304149
scalar tree_4_3_u05_r15_network.node[1].content_store 	hits[1] 	2426
scalar tree_4_3_u05_r15_network.node[1].content_store 	misses[1] 	109151
scalar tree_4_3_u05_r15_network.node[1].content_store 	decision_yes[1] 	596
scalar tree_4_3_u05_r15_network.node[1].content_store 	decision_no[1] 	108555
scalar tree_4_3_u05_r15_network.node[1].content_store 	decision_ratio[1] 	0.0054603256039798
scalar tree_4_3_u05_r15_network.node[2].core_layer 	interests[2] 	71758
scalar tree_4_3_u05_r15_network.node[2].core_layer 	data[2] 	68404
scalar tree_4_3_u05_r15_network.node[2].content_store 	p_hit[2] 	0.046712561665598
scalar tree_4_3_u05_r15_network.node[2].content_store 	hits[2] 	3352
scalar tree_4_3_u05_r15_network.node[2].content_store 	misses[2] 	68406
scalar tree_4_3_u05_r15_network.node[2].content_store 	decision_yes[2] 	459
scalar tree_4_3_u05_r15_network.node[2].content_store 	decision_no[2] 	67945
scalar tree_4_3_u05_r15_network.node[2].content_store 	decision_ratio[2] 	0.0067101339102976
scalar tree_4_3_u05_r15_network.node[3].core_layer 	interests[3] 	30155
scalar tree_4_3_u05_r15_network.node[3].core_layer 	data[3] 	26582
scalar tree_4_3_u05_r15_network.node[3].content_store 	p_hit[3] 	0.11848781296634
scalar tree_4_3_u05_r15_network.node[3].content_store 	hits[3] 	3573
scalar tree_4_3_u05_r15_network.node[3].content_store 	misses[3] 	26582
scalar tree_4_3_u05_r15_network.node[3].content_store 	decision_yes[3] 	362
scalar tree_4_3_u05_r15_network.node[3].content_store 	decision_no[3] 	26220
scalar tree_4_3_u05_r15_network.node[3].content_store 	decision_ratio[3] 	0.013618237905349
scalar tree_4_3_u05_r15_network.node[4].core_layer 	interests[4] 	26595
scalar tree_4_3_u05_r15_network.node[4].core_layer 	data[4] 	24564
scalar tree_4_3_u05_r15_network.node[4].content_store 	p_hit[4] 	0.076367738296672
scalar tree_4_3_u05_r15_network.node[4].content_store 	hits[4] 	2031
scalar tree_4_3_u05_r15_network.node[4].content_store 	misses[4] 	24564
scalar tree_4_3_u05_r15_network.node[4].content_store 	decision_yes[4] 	228
scalar tree_4_3_u05_r15_network.node[4].content_store 	decision_no[4] 	24336
scalar tree_4_3_u05_r15_network.node[4].content_store 	decision_ratio[4] 	0.0092818759159746
scalar tree_4_3_u05_r15_network.node[5].core_layer 	interests[5] 	38692
scalar tree_4_3_u05_r15_network.node[5].core_layer 	data[5] 	34801
scalar tree_4_3_u05_r15_network.node[5].content_store 	p_hit[5] 	0.10056342396361
scalar tree_4_3_u05_r15_network.node[5].content_store 	hits[5] 	3891
scalar tree_4_3_u05_r15_network.node[5].content_store 	misses[5] 	34801
scalar tree_4_3_u05_r15_network.node[5].content_store 	decision_yes[5] 	441
scalar tree_4_3_u05_r15_network.node[5].content_store 	decision_no[5] 	34360
scalar tree_4_3_u05_r15_network.node[5].content_store 	decision_ratio[5] 	0.012672049653746
scalar tree_4_3_u05_r15_network.node[6].core_layer 	interests[6] 	20826
scalar tree_4_3_u05_r15_network.node[6].core_layer 	data[6] 	17625
scalar tree_4_3_u05_r15_network.node[6].content_store 	p_hit[6] 	0.15370210314031
scalar tree_4_3_u05_r15_network.node[6].content_store 	hits[6] 	3201
scalar tree_4_3_u05_r15_network.node[6].content_store 	misses[6] 	17625
scalar tree_4_3_u05_r15_network.node[6].content_store 	decision_yes[6] 	257
scalar tree_4_3_u05_r15_network.node[6].content_store 	decision_no[6] 	17368
scalar tree_4_3_u05_r15_network.node[6].content_store 	decision_ratio[6] 	0.014581560283688
scalar tree_4_3_u05_r15_network.node[7].core_layer 	interests[7] 	28495
scalar tree_4_3_u05_r15_network.node[7].core_layer 	data[7] 	25371
scalar tree_4_3_u05_r15_network.node[7].content_store 	p_hit[7] 	0.10966836287068
scalar tree_4_3_u05_r15_network.node[7].content_store 	hits[7] 	3125
scalar tree_4_3_u05_r15_network.node[7].content_store 	misses[7] 	25370
scalar tree_4_3_u05_r15_network.node[7].content_store 	decision_yes[7] 	261
scalar tree_4_3_u05_r15_network.node[7].content_store 	decision_no[7] 	25110
scalar tree_4_3_u05_r15_network.node[7].content_store 	decision_ratio[7] 	0.010287335934729
scalar tree_4_3_u05_r15_network.node[8].core_layer 	interests[8] 	35435
scalar tree_4_3_u05_r15_network.node[8].core_layer 	data[8] 	32965
scalar tree_4_3_u05_r15_network.node[8].content_store 	p_hit[8] 	0.069648652462255
scalar tree_4_3_u05_r15_network.node[8].content_store 	hits[8] 	2468
scalar tree_4_3_u05_r15_network.node[8].content_store 	misses[8] 	32967
scalar tree_4_3_u05_r15_network.node[8].content_store 	decision_yes[8] 	323
scalar tree_4_3_u05_r15_network.node[8].content_store 	decision_no[8] 	32642
scalar tree_4_3_u05_r15_network.node[8].content_store 	decision_ratio[8] 	0.0097982708933718
scalar tree_4_3_u05_r15_network.node[9].core_layer 	interests[9] 	21894
scalar tree_4_3_u05_r15_network.node[9].core_layer 	data[9] 	18459
scalar tree_4_3_u05_r15_network.node[9].content_store 	p_hit[9] 	0.15693797387412
scalar tree_4_3_u05_r15_network.node[9].content_store 	hits[9] 	3436
scalar tree_4_3_u05_r15_network.node[9].content_store 	misses[9] 	18458
scalar tree_4_3_u05_r15_network.node[9].content_store 	decision_yes[9] 	310
scalar tree_4_3_u05_r15_network.node[9].content_store 	decision_no[9] 	18149
scalar tree_4_3_u05_r15_network.node[9].content_store 	decision_ratio[9] 	0.016793975838344
scalar tree_4_3_u05_r15_network.node[10].core_layer 	interests[10] 	28384
scalar tree_4_3_u05_r15_network.node[10].core_layer 	data[10] 	25349
scalar tree_4_3_u05_r15_network.node[10].content_store 	p_hit[10] 	0.10692643742954
scalar tree_4_3_u05_r15_network.node[10].content_store 	hits[10] 	3035
scalar tree_4_3_u05_r15_network.node[10].content_store 	misses[10] 	25349
scalar tree_4_3_u05_r15_network.node[10].content_store 	decision_yes[10] 	256
scalar tree_4_3_u05_r15_network.node[10].content_store 	decision_no[10] 	25093
scalar tree_4_3_u05_r15_network.node[10].content_store 	decision_ratio[10] 	0.01009901771273
scalar tree_4_3_u05_r15_network.node[11].core_layer 	interests[11] 	28100
scalar tree_4_3_u05_r15_network.node[11].core_layer 	data[11] 	24941
scalar tree_4_3_u05_r15_network.node[11].content_store 	p_hit[11] 	0.11241992882562
scalar tree_4_3_u05_r15_network.node[11].content_store 	hits[11] 	3159
scalar tree_4_3_u05_r15_network.node[11].content_store 	misses[11] 	24941
scalar tree_4_3_u05_r15_network.node[11].content_store 	decision_yes[11] 	257
scalar tree_4_3_u05_r15_network.node[11].content_store 	decision_no[11] 	24684
scalar tree_4_3_u05_r15_network.node[11].content_store 	decision_ratio[11] 	0.010304318190931
scalar tree_4_3_u05_r15_network.node[12].core_layer 	interests[12] 	28955
scalar tree_4_3_u05_r15_network.node[12].core_layer 	data[12] 	26088
scalar tree_4_3_u05_r15_network.node[12].content_store 	p_hit[12] 	0.099015714039026
scalar tree_4_3_u05_r15_network.node[12].content_store 	hits[12] 	2867
scalar tree_4_3_u05_r15_network.node[12].content_store 	misses[12] 	26088
scalar tree_4_3_u05_r15_network.node[12].content_store 	decision_yes[12] 	310
scalar tree_4_3_u05_r15_network.node[12].content_store 	decision_no[12] 	25778
scalar tree_4_3_u05_r15_network.node[12].content_store 	decision_ratio[12] 	0.011882858019013
scalar tree_4_3_u05_r15_network.node[13].core_layer 	interests[13] 	12355
scalar tree_4_3_u05_r15_network.node[13].core_layer 	data[13] 	8745
scalar tree_4_3_u05_r15_network.node[13].content_store 	p_hit[13] 	0.29218939700526
scalar tree_4_3_u05_r15_network.node[13].content_store 	hits[13] 	3610
scalar tree_4_3_u05_r15_network.node[13].content_store 	misses[13] 	8745
scalar tree_4_3_u05_r15_network.node[13].content_store 	decision_yes[13] 	102
scalar tree_4_3_u05_r15_network.node[13].content_store 	decision_no[13] 	8643
scalar tree_4_3_u05_r15_network.node[13].content_store 	decision_ratio[13] 	0.011663807890223
scalar tree_4_3_u05_r15_network.node[14].core_layer 	interests[14] 	13296
scalar tree_4_3_u05_r15_network.node[14].core_layer 	data[14] 	9015
scalar tree_4_3_u05_r15_network.node[14].content_store 	p_hit[14] 	0.32197653429603
scalar tree_4_3_u05_r15_network.node[14].content_store 	hits[14] 	4281
scalar tree_4_3_u05_r15_network.node[14].content_store 	misses[14] 	9015
scalar tree_4_3_u05_r15_network.node[14].content_store 	decision_yes[14] 	121
scalar tree_4_3_u05_r15_network.node[14].content_store 	decision_no[14] 	8894
scalar tree_4_3_u05_r15_network.node[14].content_store 	decision_ratio[14] 	0.013422074320577
scalar tree_4_3_u05_r15_network.node[15].core_layer 	interests[15] 	12272
scalar tree_4_3_u05_r15_network.node[15].core_layer 	data[15] 	8784
scalar tree_4_3_u05_r15_network.node[15].content_store 	p_hit[15] 	0.28422425032595
scalar tree_4_3_u05_r15_network.node[15].content_store 	hits[15] 	3488
scalar tree_4_3_u05_r15_network.node[15].content_store 	misses[15] 	8784
scalar tree_4_3_u05_r15_network.node[15].content_store 	decision_yes[15] 	129
scalar tree_4_3_u05_r15_network.node[15].content_store 	decision_no[15] 	8655
scalar tree_4_3_u05_r15_network.node[15].content_store 	decision_ratio[15] 	0.014685792349727
scalar tree_4_3_u05_r15_network.node[16].core_layer 	interests[16] 	12658
scalar tree_4_3_u05_r15_network.node[16].core_layer 	data[16] 	8764
scalar tree_4_3_u05_r15_network.node[16].content_store 	p_hit[16] 	0.30763153736767
scalar tree_4_3_u05_r15_network.node[16].content_store 	hits[16] 	3894
scalar tree_4_3_u05_r15_network.node[16].content_store 	misses[16] 	8764
scalar tree_4_3_u05_r15_network.node[16].content_store 	decision_yes[16] 	98
scalar tree_4_3_u05_r15_network.node[16].content_store 	decision_no[16] 	8666
scalar tree_4_3_u05_r15_network.node[16].content_store 	decision_ratio[16] 	0.011182108626198
scalar tree_4_3_u05_r15_network.node[17].core_layer 	interests[17] 	12832
scalar tree_4_3_u05_r15_network.node[17].core_layer 	data[17] 	8885
scalar tree_4_3_u05_r15_network.node[17].content_store 	p_hit[17] 	0.30759039900249
scalar tree_4_3_u05_r15_network.node[17].content_store 	hits[17] 	3947
scalar tree_4_3_u05_r15_network.node[17].content_store 	misses[17] 	8885
scalar tree_4_3_u05_r15_network.node[17].content_store 	decision_yes[17] 	118
scalar tree_4_3_u05_r15_network.node[17].content_store 	decision_no[17] 	8767
scalar tree_4_3_u05_r15_network.node[17].content_store 	decision_ratio[17] 	0.01328081035453
scalar tree_4_3_u05_r15_network.node[18].core_layer 	interests[18] 	12666
scalar tree_4_3_u05_r15_network.node[18].core_layer 	data[18] 	8768
scalar tree_4_3_u05_r15_network.node[18].content_store 	p_hit[18] 	0.30775303963366
scalar tree_4_3_u05_r15_network.node[18].content_store 	hits[18] 	3898
scalar tree_4_3_u05_r15_network.node[18].content_store 	misses[18] 	8768
scalar tree_4_3_u05_r15_network.node[18].content_store 	decision_yes[18] 	122
scalar tree_4_3_u05_r15_network.node[18].content_store 	decision_no[18] 	8646
scalar tree_4_3_u05_r15_network.node[18].content_store 	decision_ratio[18] 	0.013914233576642
scalar tree_4_3_u05_r15_network.node[19].core_layer 	interests[19] 	12516
scalar tree_4_3_u05_r15_network.node[19].core_layer 	data[19] 	8887
scalar tree_4_3_u05_r15_network.node[19].content_store 	p_hit[19] 	0.28994886545222
scalar tree_4_3_u05_r15_network.node[19].content_store 	hits[19] 	3629
scalar tree_4_3_u05_r15_network.node[19].content_store 	misses[19] 	8887
scalar tree_4_3_u05_r15_network.node[19].content_store 	decision_yes[19] 	124
scalar tree_4_3_u05_r15_network.node[19].content_store 	decision_no[19] 	8763
scalar tree_4_3_u05_r15_network.node[19].content_store 	decision_ratio[19] 	0.013952965005064
scalar tree_4_3_u05_r15_network.node[20].core_layer 	interests[20] 	13208
scalar tree_4_3_u05_r15_network.node[20].core_layer 	data[20] 	8892
scalar tree_4_3_u05_r15_network.node[20].content_store 	p_hit[20] 	0.32677165354331
scalar tree_4_3_u05_r15_network.node[20].content_store 	hits[20] 	4316
scalar tree_4_3_u05_r15_network.node[20].content_store 	misses[20] 	8892
scalar tree_4_3_u05_r15_network.node[20].content_store 	decision_yes[20] 	128
scalar tree_4_3_u05_r15_network.node[20].content_store 	decision_no[20] 	8764
scalar tree_4_3_u05_r15_network.node[20].content_store 	decision_ratio[20] 	0.014394961763383
scalar tree_4_3_u05_r15_network.node[21].core_layer 	interests[21] 	12411
scalar tree_4_3_u05_r15_network.node[21].core_layer 	data[21] 	8725
scalar tree_4_3_u05_r15_network.node[21].content_store 	p_hit[21] 	0.29699460156313
scalar tree_4_3_u05_r15_network.node[21].content_store 	hits[21] 	3686
scalar tree_4_3_u05_r15_network.node[21].content_store 	misses[21] 	8725
scalar tree_4_3_u05_r15_network.node[21].content_store 	decision_yes[21] 	110
scalar tree_4_3_u05_r15_network.node[21].content_store 	decision_no[21] 	8615
scalar tree_4_3_u05_r15_network.node[21].content_store 	decision_ratio[21] 	0.012607449856734
scalar tree_4_3_u05_r15_network.node[22].core_layer 	interests[22] 	12436
scalar tree_4_3_u05_r15_network.node[22].core_layer 	data[22] 	8871
scalar tree_4_3_u05_r15_network.node[22].content_store 	p_hit[22] 	0.28666773882277
scalar tree_4_3_u05_r15_network.node[22].content_store 	hits[22] 	3565
scalar tree_4_3_u05_r15_network.node[22].content_store 	misses[22] 	8871
scalar tree_4_3_u05_r15_network.node[22].content_store 	decision_yes[22] 	126
scalar tree_4_3_u05_r15_network.node[22].content_store 	decision_no[22] 	8745
scalar tree_4_3_u05_r15_network.node[22].content_store 	decision_ratio[22] 	0.014203584714237
scalar tree_4_3_u05_r15_network.node[23].core_layer 	interests[23] 	12637
scalar tree_4_3_u05_r15_network.node[23].core_layer 	data[23] 	8901
scalar tree_4_3_u05_r15_network.node[23].content_store 	p_hit[23] 	0.29563978792435
scalar tree_4_3_u05_r15_network.node[23].content_store 	hits[23] 	3736
scalar tree_4_3_u05_r15_network.node[23].content_store 	misses[23] 	8901
scalar tree_4_3_u05_r15_network.node[23].content_store 	decision_yes[23] 	107
scalar tree_4_3_u05_r15_network.node[23].content_store 	decision_no[23] 	8794
scalar tree_4_3_u05_r15_network.node[23].content_store 	decision_ratio[23] 	0.012021121222335
scalar tree_4_3_u05_r15_network.node[24].core_layer 	interests[24] 	13200
scalar tree_4_3_u05_r15_network.node[24].core_layer 	data[24] 	8892
scalar tree_4_3_u05_r15_network.node[24].content_store 	p_hit[24] 	0.32643939393939
scalar tree_4_3_u05_r15_network.node[24].content_store 	hits[24] 	4309
scalar tree_4_3_u05_r15_network.node[24].content_store 	misses[24] 	8891
scalar tree_4_3_u05_r15_network.node[24].content_store 	decision_yes[24] 	102
scalar tree_4_3_u05_r15_network.node[24].content_store 	decision_no[24] 	8790
scalar tree_4_3_u05_r15_network.node[24].content_store 	decision_ratio[24] 	0.011470985155196
scalar tree_4_3_u05_r15_network.node[25].core_layer 	interests[25] 	12445
scalar tree_4_3_u05_r15_network.node[25].core_layer 	data[25] 	8758
scalar tree_4_3_u05_r15_network.node[25].content_store 	p_hit[25] 	0.29626355966252
scalar tree_4_3_u05_r15_network.node[25].content_store 	hits[25] 	3687
scalar tree_4_3_u05_r15_network.node[25].content_store 	misses[25] 	8758
scalar tree_4_3_u05_r15_network.node[25].content_store 	decision_yes[25] 	108
scalar tree_4_3_u05_r15_network.node[25].content_store 	decision_no[25] 	8650
scalar tree_4_3_u05_r15_network.node[25].content_store 	decision_ratio[25] 	0.012331582553094
scalar tree_4_3_u05_r15_network.node[26].core_layer 	interests[26] 	12328
scalar tree_4_3_u05_r15_network.node[26].core_layer 	data[26] 	8698
scalar tree_4_3_u05_r15_network.node[26].content_store 	p_hit[26] 	0.29445165476963
scalar tree_4_3_u05_r15_network.node[26].content_store 	hits[26] 	3630
scalar tree_4_3_u05_r15_network.node[26].content_store 	misses[26] 	8698
scalar tree_4_3_u05_r15_network.node[26].content_store 	decision_yes[26] 	117
scalar tree_4_3_u05_r15_network.node[26].content_store 	decision_no[26] 	8581
scalar tree_4_3_u05_r15_network.node[26].content_store 	decision_ratio[26] 	0.013451368130605
scalar tree_4_3_u05_r15_network.node[27].core_layer 	interests[27] 	12569
scalar tree_4_3_u05_r15_network.node[27].core_layer 	data[27] 	8753
scalar tree_4_3_u05_r15_network.node[27].content_store 	p_hit[27] 	0.30360410533853
scalar tree_4_3_u05_r15_network.node[27].content_store 	hits[27] 	3816
scalar tree_4_3_u05_r15_network.node[27].content_store 	misses[27] 	8753
scalar tree_4_3_u05_r15_network.node[27].content_store 	decision_yes[27] 	109
scalar tree_4_3_u05_r15_network.node[27].content_store 	decision_no[27] 	8644
scalar tree_4_3_u05_r15_network.node[27].content_store 	decision_ratio[27] 	0.012452873300583
scalar tree_4_3_u05_r15_network.node[28].core_layer 	interests[28] 	12409
scalar tree_4_3_u05_r15_network.node[28].core_layer 	data[28] 	8700
scalar tree_4_3_u05_r15_network.node[28].content_store 	p_hit[28] 	0.29889596260778
scalar tree_4_3_u05_r15_network.node[28].content_store 	hits[28] 	3709
scalar tree_4_3_u05_r15_network.node[28].content_store 	misses[28] 	8700
scalar tree_4_3_u05_r15_network.node[28].content_store 	decision_yes[28] 	119
scalar tree_4_3_u05_r15_network.node[28].content_store 	decision_no[28] 	8581
scalar tree_4_3_u05_r15_network.node[28].content_store 	decision_ratio[28] 	0.01367816091954
scalar tree_4_3_u05_r15_network.node[29].core_layer 	interests[29] 	13191
scalar tree_4_3_u05_r15_network.node[29].core_layer 	data[29] 	8994
scalar tree_4_3_u05_r15_network.node[29].content_store 	p_hit[29] 	0.31817148055492
scalar tree_4_3_u05_r15_network.node[29].content_store 	hits[29] 	4197
scalar tree_4_3_u05_r15_network.node[29].content_store 	misses[29] 	8994
scalar tree_4_3_u05_r15_network.node[29].content_store 	decision_yes[29] 	115
scalar tree_4_3_u05_r15_network.node[29].content_store 	decision_no[29] 	8879
scalar tree_4_3_u05_r15_network.node[29].content_store 	decision_ratio[29] 	0.012786301979097
scalar tree_4_3_u05_r15_network.node[30].core_layer 	interests[30] 	12471
scalar tree_4_3_u05_r15_network.node[30].core_layer 	data[30] 	8832
scalar tree_4_3_u05_r15_network.node[30].content_store 	p_hit[30] 	0.2918771549996
scalar tree_4_3_u05_r15_network.node[30].content_store 	hits[30] 	3640
scalar tree_4_3_u05_r15_network.node[30].content_store 	misses[30] 	8831
scalar tree_4_3_u05_r15_network.node[30].content_store 	decision_yes[30] 	112
scalar tree_4_3_u05_r15_network.node[30].content_store 	decision_no[30] 	8720
scalar tree_4_3_u05_r15_network.node[30].content_store 	decision_ratio[30] 	0.01268115942029
scalar tree_4_3_u05_r15_network.node[31].core_layer 	interests[31] 	12516
scalar tree_4_3_u05_r15_network.node[31].core_layer 	data[31] 	8864
scalar tree_4_3_u05_r15_network.node[31].content_store 	p_hit[31] 	0.29178651326302
scalar tree_4_3_u05_r15_network.node[31].content_store 	hits[31] 	3652
scalar tree_4_3_u05_r15_network.node[31].content_store 	misses[31] 	8864
scalar tree_4_3_u05_r15_network.node[31].content_store 	decision_yes[31] 	113
scalar tree_4_3_u05_r15_network.node[31].content_store 	decision_no[31] 	8751
scalar tree_4_3_u05_r15_network.node[31].content_store 	decision_ratio[31] 	0.012748194945848
scalar tree_4_3_u05_r15_network.node[32].core_layer 	interests[32] 	12248
scalar tree_4_3_u05_r15_network.node[32].core_layer 	data[32] 	8603
scalar tree_4_3_u05_r15_network.node[32].content_store 	p_hit[32] 	0.29759960809928
scalar tree_4_3_u05_r15_network.node[32].content_store 	hits[32] 	3645
scalar tree_4_3_u05_r15_network.node[32].content_store 	misses[32] 	8603
scalar tree_4_3_u05_r15_network.node[32].content_store 	decision_yes[32] 	112
scalar tree_4_3_u05_r15_network.node[32].content_store 	decision_no[32] 	8491
scalar tree_4_3_u05_r15_network.node[32].content_store 	decision_ratio[32] 	0.013018714401953
scalar tree_4_3_u05_r15_network.node[33].core_layer 	interests[33] 	13120
scalar tree_4_3_u05_r15_network.node[33].core_layer 	data[33] 	8946
scalar tree_4_3_u05_r15_network.node[33].content_store 	p_hit[33] 	0.31814024390244
scalar tree_4_3_u05_r15_network.node[33].content_store 	hits[33] 	4174
scalar tree_4_3_u05_r15_network.node[33].content_store 	misses[33] 	8946
scalar tree_4_3_u05_r15_network.node[33].content_store 	decision_yes[33] 	126
scalar tree_4_3_u05_r15_network.node[33].content_store 	decision_no[33] 	8820
scalar tree_4_3_u05_r15_network.node[33].content_store 	decision_ratio[33] 	0.014084507042254
scalar tree_4_3_u05_r15_network.node[34].core_layer 	interests[34] 	12427
scalar tree_4_3_u05_r15_network.node[34].core_layer 	data[34] 	8738
scalar tree_4_3_u05_r15_network.node[34].content_store 	p_hit[34] 	0.296853625171
scalar tree_4_3_u05_r15_network.node[34].content_store 	hits[34] 	3689
scalar tree_4_3_u05_r15_network.node[34].content_store 	misses[34] 	8738
scalar tree_4_3_u05_r15_network.node[34].content_store 	decision_yes[34] 	97
scalar tree_4_3_u05_r15_network.node[34].content_store 	decision_no[34] 	8641
scalar tree_4_3_u05_r15_network.node[34].content_store 	decision_ratio[34] 	0.011100938429847
scalar tree_4_3_u05_r15_network.node[35].core_layer 	interests[35] 	12487
scalar tree_4_3_u05_r15_network.node[35].core_layer 	data[35] 	8699
scalar tree_4_3_u05_r15_network.node[35].content_store 	p_hit[35] 	0.3033554897093
scalar tree_4_3_u05_r15_network.node[35].content_store 	hits[35] 	3788
scalar tree_4_3_u05_r15_network.node[35].content_store 	misses[35] 	8699
scalar tree_4_3_u05_r15_network.node[35].content_store 	decision_yes[35] 	82
scalar tree_4_3_u05_r15_network.node[35].content_store 	decision_no[35] 	8617
scalar tree_4_3_u05_r15_network.node[35].content_store 	decision_ratio[35] 	0.0094263708472238
scalar tree_4_3_u05_r15_network.node[36].core_layer 	interests[36] 	12896
scalar tree_4_3_u05_r15_network.node[36].core_layer 	data[36] 	8689
scalar tree_4_3_u05_r15_network.node[36].content_store 	p_hit[36] 	0.32622518610422
scalar tree_4_3_u05_r15_network.node[36].content_store 	hits[36] 	4207
scalar tree_4_3_u05_r15_network.node[36].content_store 	misses[36] 	8689
scalar tree_4_3_u05_r15_network.node[36].content_store 	decision_yes[36] 	120
scalar tree_4_3_u05_r15_network.node[36].content_store 	decision_no[36] 	8569
scalar tree_4_3_u05_r15_network.node[36].content_store 	decision_ratio[36] 	0.013810565082288
scalar tree_4_3_u05_r15_network.node[37].core_layer 	interests[37] 	12538
scalar tree_4_3_u05_r15_network.node[37].core_layer 	data[37] 	8793
scalar tree_4_3_u05_r15_network.node[37].content_store 	p_hit[37] 	0.29869197639177
scalar tree_4_3_u05_r15_network.node[37].content_store 	hits[37] 	3745
scalar tree_4_3_u05_r15_network.node[37].content_store 	misses[37] 	8793
scalar tree_4_3_u05_r15_network.node[37].content_store 	decision_yes[37] 	108
scalar tree_4_3_u05_r15_network.node[37].content_store 	decision_no[37] 	8685
scalar tree_4_3_u05_r15_network.node[37].content_store 	decision_ratio[37] 	0.012282497441146
scalar tree_4_3_u05_r15_network.node[38].core_layer 	interests[38] 	12566
scalar tree_4_3_u05_r15_network.node[38].core_layer 	data[38] 	8832
scalar tree_4_3_u05_r15_network.node[38].content_store 	p_hit[38] 	0.29715104249562
scalar tree_4_3_u05_r15_network.node[38].content_store 	hits[38] 	3734
scalar tree_4_3_u05_r15_network.node[38].content_store 	misses[38] 	8832
scalar tree_4_3_u05_r15_network.node[38].content_store 	decision_yes[38] 	102
scalar tree_4_3_u05_r15_network.node[38].content_store 	decision_no[38] 	8730
scalar tree_4_3_u05_r15_network.node[38].content_store 	decision_ratio[38] 	0.011548913043478
scalar tree_4_3_u05_r15_network.node[39].core_layer 	interests[39] 	12528
scalar tree_4_3_u05_r15_network.node[39].core_layer 	data[39] 	8900
scalar tree_4_3_u05_r15_network.node[39].content_store 	p_hit[39] 	0.28959131545338
scalar tree_4_3_u05_r15_network.node[39].content_store 	hits[39] 	3628
scalar tree_4_3_u05_r15_network.node[39].content_store 	misses[39] 	8900
scalar tree_4_3_u05_r15_network.node[39].content_store 	decision_yes[39] 	88
scalar tree_4_3_u05_r15_network.node[39].content_store 	decision_no[39] 	8812
scalar tree_4_3_u05_r15_network.node[39].content_store 	decision_ratio[39] 	0.0098876404494382
scalar tree_4_3_u05_r15_network.client[13] 	hdistance[13] 	2.6795460235333
scalar tree_4_3_u05_r15_network.client[13] 	downloads[13] 	11983
scalar tree_4_3_u05_r15_network.client[13] 	avg_time[13] 	0.004204620229
scalar tree_4_3_u05_r15_network.client[14] 	hdistance[14] 	2.5996538081108
scalar tree_4_3_u05_r15_network.client[14] 	downloads[14] 	12132
scalar tree_4_3_u05_r15_network.client[14] 	avg_time[14] 	0.004084731519
scalar tree_4_3_u05_r15_network.client[15] 	hdistance[15] 	2.706711409396
scalar tree_4_3_u05_r15_network.client[15] 	downloads[15] 	11920
scalar tree_4_3_u05_r15_network.client[15] 	avg_time[15] 	0.004248319158
scalar tree_4_3_u05_r15_network.client[16] 	hdistance[16] 	2.6210289335446
scalar tree_4_3_u05_r15_network.client[16] 	downloads[16] 	11993
scalar tree_4_3_u05_r15_network.client[16] 	avg_time[16] 	0.004129906118
scalar tree_4_3_u05_r15_network.client[17] 	hdistance[17] 	2.6073070607553
scalar tree_4_3_u05_r15_network.client[17] 	downloads[17] 	12180
scalar tree_4_3_u05_r15_network.client[17] 	avg_time[17] 	0.004107878717
scalar tree_4_3_u05_r15_network.client[18] 	hdistance[18] 	2.6161220406802
scalar tree_4_3_u05_r15_network.client[18] 	downloads[18] 	11996
scalar tree_4_3_u05_r15_network.client[18] 	avg_time[18] 	0.004124538545
scalar tree_4_3_u05_r15_network.client[19] 	hdistance[19] 	2.6396477946017
scalar tree_4_3_u05_r15_network.client[19] 	downloads[19] 	12152
scalar tree_4_3_u05_r15_network.client[19] 	avg_time[19] 	0.004167223737
scalar tree_4_3_u05_r15_network.client[20] 	hdistance[20] 	2.5711447727837
scalar tree_4_3_u05_r15_network.client[20] 	downloads[20] 	12081
scalar tree_4_3_u05_r15_network.client[20] 	avg_time[20] 	0.004048668418
scalar tree_4_3_u05_r15_network.client[21] 	hdistance[21] 	2.6282490597576
scalar tree_4_3_u05_r15_network.client[21] 	downloads[21] 	11965
scalar tree_4_3_u05_r15_network.client[21] 	avg_time[21] 	0.004149600006
scalar tree_4_3_u05_r15_network.client[22] 	hdistance[22] 	2.6699102424293
scalar tree_4_3_u05_r15_network.client[22] 	downloads[22] 	11921
scalar tree_4_3_u05_r15_network.client[22] 	avg_time[22] 	0.004227494709
scalar tree_4_3_u05_r15_network.client[23] 	hdistance[23] 	2.6479881510738
scalar tree_4_3_u05_r15_network.client[23] 	downloads[23] 	12153
scalar tree_4_3_u05_r15_network.client[23] 	avg_time[23] 	0.004186617564
scalar tree_4_3_u05_r15_network.client[24] 	hdistance[24] 	2.5760598503741
scalar tree_4_3_u05_r15_network.client[24] 	downloads[24] 	12030
scalar tree_4_3_u05_r15_network.client[24] 	avg_time[24] 	0.004064668639
scalar tree_4_3_u05_r15_network.client[25] 	hdistance[25] 	2.6713421804132
scalar tree_4_3_u05_r15_network.client[25] 	downloads[25] 	11906
scalar tree_4_3_u05_r15_network.client[25] 	avg_time[25] 	0.004186121664
scalar tree_4_3_u05_r15_network.client[26] 	hdistance[26] 	2.6819527878839
scalar tree_4_3_u05_r15_network.client[26] 	downloads[26] 	11819
scalar tree_4_3_u05_r15_network.client[26] 	avg_time[26] 	0.004199355664
scalar tree_4_3_u05_r15_network.client[27] 	hdistance[27] 	2.6478278858088
scalar tree_4_3_u05_r15_network.client[27] 	downloads[27] 	12085
scalar tree_4_3_u05_r15_network.client[27] 	avg_time[27] 	0.004144871
scalar tree_4_3_u05_r15_network.client[28] 	hdistance[28] 	2.6225720026792
scalar tree_4_3_u05_r15_network.client[28] 	downloads[28] 	11944
scalar tree_4_3_u05_r15_network.client[28] 	avg_time[28] 	0.004129457678
scalar tree_4_3_u05_r15_network.client[29] 	hdistance[29] 	2.597352089367
scalar tree_4_3_u05_r15_network.client[29] 	downloads[29] 	12085
scalar tree_4_3_u05_r15_network.client[29] 	avg_time[29] 	0.00408901876
scalar tree_4_3_u05_r15_network.client[30] 	hdistance[30] 	2.6204983856279
scalar tree_4_3_u05_r15_network.client[30] 	downloads[30] 	12079
scalar tree_4_3_u05_r15_network.client[30] 	avg_time[30] 	0.004137260006
scalar tree_4_3_u05_r15_network.client[31] 	hdistance[31] 	2.648834701833
scalar tree_4_3_u05_r15_network.client[31] 	downloads[31] 	12057
scalar tree_4_3_u05_r15_network.client[31] 	avg_time[31] 	0.00418030718
scalar tree_4_3_u05_r15_network.client[32] 	hdistance[32] 	2.6523401002293
scalar tree_4_3_u05_r15_network.client[32] 	downloads[32] 	11773
scalar tree_4_3_u05_r15_network.client[32] 	avg_time[32] 	0.004187035193
scalar tree_4_3_u05_r15_network.client[33] 	hdistance[33] 	2.6166611350813
scalar tree_4_3_u05_r15_network.client[33] 	downloads[33] 	12052
scalar tree_4_3_u05_r15_network.client[33] 	avg_time[33] 	0.00411267539
scalar tree_4_3_u05_r15_network.client[34] 	hdistance[34] 	2.6305163927588
scalar tree_4_3_u05_r15_network.client[34] 	downloads[34] 	11987
scalar tree_4_3_u05_r15_network.client[34] 	avg_time[34] 	0.004158835684
scalar tree_4_3_u05_r15_network.client[35] 	hdistance[35] 	2.6007934540045
scalar tree_4_3_u05_r15_network.client[35] 	downloads[35] 	12099
scalar tree_4_3_u05_r15_network.client[35] 	avg_time[35] 	0.004110419344
scalar tree_4_3_u05_r15_network.client[36] 	hdistance[36] 	2.5593914569924
scalar tree_4_3_u05_r15_network.client[36] 	downloads[36] 	11963
scalar tree_4_3_u05_r15_network.client[36] 	avg_time[36] 	0.00401404033
scalar tree_4_3_u05_r15_network.client[37] 	hdistance[37] 	2.6461128239313
scalar tree_4_3_u05_r15_network.client[37] 	downloads[37] 	12001
scalar tree_4_3_u05_r15_network.client[37] 	avg_time[37] 	0.004141151909
scalar tree_4_3_u05_r15_network.client[38] 	hdistance[38] 	2.6510859691139
scalar tree_4_3_u05_r15_network.client[38] 	downloads[38] 	12109
scalar tree_4_3_u05_r15_network.client[38] 	avg_time[38] 	0.004137250254
scalar tree_4_3_u05_r15_network.client[39] 	hdistance[39] 	2.6762881482094
scalar tree_4_3_u05_r15_network.client[39] 	downloads[39] 	12091
scalar tree_4_3_u05_r15_network.client[39] 	avg_time[39] 	0.004178807654
