version 2
run General-300-20160901-04:12:12-8710
attr a 0.9
attr cd ffc
attr configname General
attr cr lru
attr datetime 20160901-04:12:12
attr experiment General
attr fsize 1
attr inifile hw5115/scenario_Y/omnetp.ini
attr iterationvars "$name=tree_4_3, $un=05, $rep=1, $cd=ffc, $cr=lru, $fsize=1, $a=0.9, $sl=nrr, $ttl=1000, $variance=0.05"
attr iterationvars2 "$name=tree_4_3, $un=05, $rep=1, $cd=ffc, $cr=lru, $fsize=1, $a=0.9, $sl=nrr, $ttl=1000, $variance=0.05, $repetition=0"
attr measurement "$name=tree_4_3, $un=05, $rep=1, $cd=ffc, $cr=lru, $fsize=1, $a=0.9, $sl=nrr, $ttl=1000, $variance=0.05"
attr name tree_4_3
attr network networks.${name}_u${un}_r${rep}_network
attr processid 8710
attr rep 1
attr repetition 0
attr replication #0
attr resultdir results
attr runnumber 300
attr seedset 1
attr sl nrr
attr ttl 1000
attr un 05
attr variance 0.05

scalar . 	a 	0.9
scalar . 	fsize 	1
scalar . 	rep 	1
scalar . 	ttl 	1000
scalar . 	un 	05
scalar . 	variance 	0.05
scalar tree_4_3_u05_r1_network.content_distribution 	repo-0 	0
scalar tree_4_3_u05_r1_network.content_distribution 	client-0 	13
scalar tree_4_3_u05_r1_network.content_distribution 	client-1 	14
scalar tree_4_3_u05_r1_network.content_distribution 	client-2 	15
scalar tree_4_3_u05_r1_network.content_distribution 	client-3 	16
scalar tree_4_3_u05_r1_network.content_distribution 	client-4 	17
scalar tree_4_3_u05_r1_network.content_distribution 	client-5 	18
scalar tree_4_3_u05_r1_network.content_distribution 	client-6 	19
scalar tree_4_3_u05_r1_network.content_distribution 	client-7 	20
scalar tree_4_3_u05_r1_network.content_distribution 	client-8 	21
scalar tree_4_3_u05_r1_network.content_distribution 	client-9 	22
scalar tree_4_3_u05_r1_network.content_distribution 	client-10 	23
scalar tree_4_3_u05_r1_network.content_distribution 	client-11 	24
scalar tree_4_3_u05_r1_network.content_distribution 	client-12 	25
scalar tree_4_3_u05_r1_network.content_distribution 	client-13 	26
scalar tree_4_3_u05_r1_network.content_distribution 	client-14 	27
scalar tree_4_3_u05_r1_network.content_distribution 	client-15 	28
scalar tree_4_3_u05_r1_network.content_distribution 	client-16 	29
scalar tree_4_3_u05_r1_network.content_distribution 	client-17 	30
scalar tree_4_3_u05_r1_network.content_distribution 	client-18 	31
scalar tree_4_3_u05_r1_network.content_distribution 	client-19 	32
scalar tree_4_3_u05_r1_network.content_distribution 	client-20 	33
scalar tree_4_3_u05_r1_network.content_distribution 	client-21 	34
scalar tree_4_3_u05_r1_network.content_distribution 	client-22 	35
scalar tree_4_3_u05_r1_network.content_distribution 	client-23 	36
scalar tree_4_3_u05_r1_network.content_distribution 	client-24 	37
scalar tree_4_3_u05_r1_network.content_distribution 	client-25 	38
scalar tree_4_3_u05_r1_network.content_distribution 	client-26 	39
scalar tree_4_3_u05_r1_network.content_distribution 	repo-0_card 	100000
scalar tree_4_3_u05_r1_network.content_distribution 	repo-0_price 	0
scalar tree_4_3_u05_r1_network.statistics 	stabilization_time 	1058.3
scalar tree_4_3_u05_r1_network.statistics 	p_hit 	0.23229251723595
scalar tree_4_3_u05_r1_network.statistics 	interests 	24850.575
scalar tree_4_3_u05_r1_network.statistics 	data 	16753.4
scalar tree_4_3_u05_r1_network.statistics 	hdistance 	2.6365896537543
scalar tree_4_3_u05_r1_network.statistics 	avg_time 	0.004137834024
scalar tree_4_3_u05_r1_network.statistics 	downloads 	323889
scalar tree_4_3_u05_r1_network.statistics 	total_cost 	0
scalar tree_4_3_u05_r1_network.statistics 	total_replicas 	100000
scalar tree_4_3_u05_r1_network.statistics 	inner_hit 	0.43232712441608
scalar tree_4_3_u05_r1_network.node[0].core_layer 	interests[0] 	186384
scalar tree_4_3_u05_r1_network.node[0].core_layer 	repo_load[0] 	183863
scalar tree_4_3_u05_r1_network.node[0].core_layer 	data[0] 	0
scalar tree_4_3_u05_r1_network.node[0].core_layer 	repo_int[0] 	183863
scalar tree_4_3_u05_r1_network.node[0].content_store 	p_hit[0] 	0.013525839127822
scalar tree_4_3_u05_r1_network.node[0].content_store 	hits[0] 	2521
scalar tree_4_3_u05_r1_network.node[0].content_store 	misses[0] 	183863
scalar tree_4_3_u05_r1_network.node[0].content_store 	decision_yes[0] 	828
scalar tree_4_3_u05_r1_network.node[0].content_store 	decision_no[0] 	183035
scalar tree_4_3_u05_r1_network.node[0].content_store 	decision_ratio[0] 	0.0045033530400352
scalar tree_4_3_u05_r1_network.node[1].core_layer 	interests[1] 	95171
scalar tree_4_3_u05_r1_network.node[1].core_layer 	data[1] 	93258
scalar tree_4_3_u05_r1_network.node[1].content_store 	p_hit[1] 	0.02009015351315
scalar tree_4_3_u05_r1_network.node[1].content_store 	hits[1] 	1912
scalar tree_4_3_u05_r1_network.node[1].content_store 	misses[1] 	93259
scalar tree_4_3_u05_r1_network.node[1].content_store 	decision_yes[1] 	478
scalar tree_4_3_u05_r1_network.node[1].content_store 	decision_no[1] 	92780
scalar tree_4_3_u05_r1_network.node[1].content_store 	decision_ratio[1] 	0.0051255656351198
scalar tree_4_3_u05_r1_network.node[2].core_layer 	interests[2] 	72984
scalar tree_4_3_u05_r1_network.node[2].core_layer 	data[2] 	69473
scalar tree_4_3_u05_r1_network.node[2].content_store 	p_hit[2] 	0.048106434286967
scalar tree_4_3_u05_r1_network.node[2].content_store 	hits[2] 	3511
scalar tree_4_3_u05_r1_network.node[2].content_store 	misses[2] 	69473
scalar tree_4_3_u05_r1_network.node[2].content_store 	decision_yes[2] 	453
scalar tree_4_3_u05_r1_network.node[2].content_store 	decision_no[2] 	69020
scalar tree_4_3_u05_r1_network.node[2].content_store 	decision_ratio[2] 	0.0065205187626848
scalar tree_4_3_u05_r1_network.node[3].core_layer 	interests[3] 	43032
scalar tree_4_3_u05_r1_network.node[3].core_layer 	data[3] 	40358
scalar tree_4_3_u05_r1_network.node[3].content_store 	p_hit[3] 	0.062139802937349
scalar tree_4_3_u05_r1_network.node[3].content_store 	hits[3] 	2674
scalar tree_4_3_u05_r1_network.node[3].content_store 	misses[3] 	40358
scalar tree_4_3_u05_r1_network.node[3].content_store 	decision_yes[3] 	375
scalar tree_4_3_u05_r1_network.node[3].content_store 	decision_no[3] 	39983
scalar tree_4_3_u05_r1_network.node[3].content_store 	decision_ratio[3] 	0.0092918380494574
scalar tree_4_3_u05_r1_network.node[4].core_layer 	interests[4] 	26089
scalar tree_4_3_u05_r1_network.node[4].core_layer 	data[4] 	24304
scalar tree_4_3_u05_r1_network.node[4].content_store 	p_hit[4] 	0.068381310130706
scalar tree_4_3_u05_r1_network.node[4].content_store 	hits[4] 	1784
scalar tree_4_3_u05_r1_network.node[4].content_store 	misses[4] 	24305
scalar tree_4_3_u05_r1_network.node[4].content_store 	decision_yes[4] 	215
scalar tree_4_3_u05_r1_network.node[4].content_store 	decision_no[4] 	24089
scalar tree_4_3_u05_r1_network.node[4].content_store 	decision_ratio[4] 	0.0088462804476629
scalar tree_4_3_u05_r1_network.node[5].core_layer 	interests[5] 	37803
scalar tree_4_3_u05_r1_network.node[5].core_layer 	data[5] 	34295
scalar tree_4_3_u05_r1_network.node[5].content_store 	p_hit[5] 	0.092770415046425
scalar tree_4_3_u05_r1_network.node[5].content_store 	hits[5] 	3507
scalar tree_4_3_u05_r1_network.node[5].content_store 	misses[5] 	34296
scalar tree_4_3_u05_r1_network.node[5].content_store 	decision_yes[5] 	414
scalar tree_4_3_u05_r1_network.node[5].content_store 	decision_no[5] 	33881
scalar tree_4_3_u05_r1_network.node[5].content_store 	decision_ratio[5] 	0.01207173057297
scalar tree_4_3_u05_r1_network.node[6].core_layer 	interests[6] 	21713
scalar tree_4_3_u05_r1_network.node[6].core_layer 	data[6] 	18362
scalar tree_4_3_u05_r1_network.node[6].content_store 	p_hit[6] 	0.15433150647078
scalar tree_4_3_u05_r1_network.node[6].content_store 	hits[6] 	3351
scalar tree_4_3_u05_r1_network.node[6].content_store 	misses[6] 	18362
scalar tree_4_3_u05_r1_network.node[6].content_store 	decision_yes[6] 	317
scalar tree_4_3_u05_r1_network.node[6].content_store 	decision_no[6] 	18045
scalar tree_4_3_u05_r1_network.node[6].content_store 	decision_ratio[6] 	0.017263914606252
scalar tree_4_3_u05_r1_network.node[7].core_layer 	interests[7] 	36466
scalar tree_4_3_u05_r1_network.node[7].core_layer 	data[7] 	33276
scalar tree_4_3_u05_r1_network.node[7].content_store 	p_hit[7] 	0.087451324521472
scalar tree_4_3_u05_r1_network.node[7].content_store 	hits[7] 	3189
scalar tree_4_3_u05_r1_network.node[7].content_store 	misses[7] 	33277
scalar tree_4_3_u05_r1_network.node[7].content_store 	decision_yes[7] 	347
scalar tree_4_3_u05_r1_network.node[7].content_store 	decision_no[7] 	32929
scalar tree_4_3_u05_r1_network.node[7].content_store 	decision_ratio[7] 	0.010427936050006
scalar tree_4_3_u05_r1_network.node[8].core_layer 	interests[8] 	18846
scalar tree_4_3_u05_r1_network.node[8].core_layer 	data[8] 	16557
scalar tree_4_3_u05_r1_network.node[8].content_store 	p_hit[8] 	0.12145813435212
scalar tree_4_3_u05_r1_network.node[8].content_store 	hits[8] 	2289
scalar tree_4_3_u05_r1_network.node[8].content_store 	misses[8] 	16557
scalar tree_4_3_u05_r1_network.node[8].content_store 	decision_yes[8] 	173
scalar tree_4_3_u05_r1_network.node[8].content_store 	decision_no[8] 	16384
scalar tree_4_3_u05_r1_network.node[8].content_store 	decision_ratio[8] 	0.01044875279338
scalar tree_4_3_u05_r1_network.node[9].core_layer 	interests[9] 	29517
scalar tree_4_3_u05_r1_network.node[9].core_layer 	data[9] 	26545
scalar tree_4_3_u05_r1_network.node[9].content_store 	p_hit[9] 	0.10061998170546
scalar tree_4_3_u05_r1_network.node[9].content_store 	hits[9] 	2970
scalar tree_4_3_u05_r1_network.node[9].content_store 	misses[9] 	26547
scalar tree_4_3_u05_r1_network.node[9].content_store 	decision_yes[9] 	354
scalar tree_4_3_u05_r1_network.node[9].content_store 	decision_no[9] 	26191
scalar tree_4_3_u05_r1_network.node[9].content_store 	decision_ratio[9] 	0.013335844791863
scalar tree_4_3_u05_r1_network.node[10].core_layer 	interests[10] 	28418
scalar tree_4_3_u05_r1_network.node[10].core_layer 	data[10] 	26106
scalar tree_4_3_u05_r1_network.node[10].content_store 	p_hit[10] 	0.0813568864804
scalar tree_4_3_u05_r1_network.node[10].content_store 	hits[10] 	2312
scalar tree_4_3_u05_r1_network.node[10].content_store 	misses[10] 	26106
scalar tree_4_3_u05_r1_network.node[10].content_store 	decision_yes[10] 	301
scalar tree_4_3_u05_r1_network.node[10].content_store 	decision_no[10] 	25805
scalar tree_4_3_u05_r1_network.node[10].content_store 	decision_ratio[10] 	0.011529916494293
scalar tree_4_3_u05_r1_network.node[11].core_layer 	interests[11] 	36507
scalar tree_4_3_u05_r1_network.node[11].core_layer 	data[11] 	33070
scalar tree_4_3_u05_r1_network.node[11].content_store 	p_hit[11] 	0.094118936094448
scalar tree_4_3_u05_r1_network.node[11].content_store 	hits[11] 	3436
scalar tree_4_3_u05_r1_network.node[11].content_store 	misses[11] 	33071
scalar tree_4_3_u05_r1_network.node[11].content_store 	decision_yes[11] 	343
scalar tree_4_3_u05_r1_network.node[11].content_store 	decision_no[11] 	32727
scalar tree_4_3_u05_r1_network.node[11].content_store 	decision_ratio[11] 	0.01037193831267
scalar tree_4_3_u05_r1_network.node[12].core_layer 	interests[12] 	18970
scalar tree_4_3_u05_r1_network.node[12].core_layer 	data[12] 	16906
scalar tree_4_3_u05_r1_network.node[12].content_store 	p_hit[12] 	0.10875065893516
scalar tree_4_3_u05_r1_network.node[12].content_store 	hits[12] 	2063
scalar tree_4_3_u05_r1_network.node[12].content_store 	misses[12] 	16907
scalar tree_4_3_u05_r1_network.node[12].content_store 	decision_yes[12] 	203
scalar tree_4_3_u05_r1_network.node[12].content_store 	decision_no[12] 	16703
scalar tree_4_3_u05_r1_network.node[12].content_store 	decision_ratio[12] 	0.01200757127647
scalar tree_4_3_u05_r1_network.node[13].core_layer 	interests[13] 	12409
scalar tree_4_3_u05_r1_network.node[13].core_layer 	data[13] 	8723
scalar tree_4_3_u05_r1_network.node[13].content_store 	p_hit[13] 	0.2970424691756
scalar tree_4_3_u05_r1_network.node[13].content_store 	hits[13] 	3686
scalar tree_4_3_u05_r1_network.node[13].content_store 	misses[13] 	8723
scalar tree_4_3_u05_r1_network.node[13].content_store 	decision_yes[13] 	112
scalar tree_4_3_u05_r1_network.node[13].content_store 	decision_no[13] 	8611
scalar tree_4_3_u05_r1_network.node[13].content_store 	decision_ratio[13] 	0.012839619396996
scalar tree_4_3_u05_r1_network.node[14].core_layer 	interests[14] 	13144
scalar tree_4_3_u05_r1_network.node[14].core_layer 	data[14] 	8800
scalar tree_4_3_u05_r1_network.node[14].content_store 	p_hit[14] 	0.33049300060864
scalar tree_4_3_u05_r1_network.node[14].content_store 	hits[14] 	4344
scalar tree_4_3_u05_r1_network.node[14].content_store 	misses[14] 	8800
scalar tree_4_3_u05_r1_network.node[14].content_store 	decision_yes[14] 	111
scalar tree_4_3_u05_r1_network.node[14].content_store 	decision_no[14] 	8689
scalar tree_4_3_u05_r1_network.node[14].content_store 	decision_ratio[14] 	0.012613636363636
scalar tree_4_3_u05_r1_network.node[15].core_layer 	interests[15] 	12531
scalar tree_4_3_u05_r1_network.node[15].core_layer 	data[15] 	8847
scalar tree_4_3_u05_r1_network.node[15].content_store 	p_hit[15] 	0.29399090256165
scalar tree_4_3_u05_r1_network.node[15].content_store 	hits[15] 	3684
scalar tree_4_3_u05_r1_network.node[15].content_store 	misses[15] 	8847
scalar tree_4_3_u05_r1_network.node[15].content_store 	decision_yes[15] 	112
scalar tree_4_3_u05_r1_network.node[15].content_store 	decision_no[15] 	8735
scalar tree_4_3_u05_r1_network.node[15].content_store 	decision_ratio[15] 	0.012659658641347
scalar tree_4_3_u05_r1_network.node[16].core_layer 	interests[16] 	12477
scalar tree_4_3_u05_r1_network.node[16].core_layer 	data[16] 	8679
scalar tree_4_3_u05_r1_network.node[16].content_store 	p_hit[16] 	0.30448024364831
scalar tree_4_3_u05_r1_network.node[16].content_store 	hits[16] 	3799
scalar tree_4_3_u05_r1_network.node[16].content_store 	misses[16] 	8678
scalar tree_4_3_u05_r1_network.node[16].content_store 	decision_yes[16] 	125
scalar tree_4_3_u05_r1_network.node[16].content_store 	decision_no[16] 	8554
scalar tree_4_3_u05_r1_network.node[16].content_store 	decision_ratio[16] 	0.014402580942505
scalar tree_4_3_u05_r1_network.node[17].core_layer 	interests[17] 	12813
scalar tree_4_3_u05_r1_network.node[17].core_layer 	data[17] 	8953
scalar tree_4_3_u05_r1_network.node[17].content_store 	p_hit[17] 	0.30117849059549
scalar tree_4_3_u05_r1_network.node[17].content_store 	hits[17] 	3859
scalar tree_4_3_u05_r1_network.node[17].content_store 	misses[17] 	8954
scalar tree_4_3_u05_r1_network.node[17].content_store 	decision_yes[17] 	117
scalar tree_4_3_u05_r1_network.node[17].content_store 	decision_no[17] 	8836
scalar tree_4_3_u05_r1_network.node[17].content_store 	decision_ratio[17] 	0.013068245280911
scalar tree_4_3_u05_r1_network.node[18].core_layer 	interests[18] 	13049
scalar tree_4_3_u05_r1_network.node[18].core_layer 	data[18] 	8751
scalar tree_4_3_u05_r1_network.node[18].content_store 	p_hit[18] 	0.32937389838302
scalar tree_4_3_u05_r1_network.node[18].content_store 	hits[18] 	4298
scalar tree_4_3_u05_r1_network.node[18].content_store 	misses[18] 	8751
scalar tree_4_3_u05_r1_network.node[18].content_store 	decision_yes[18] 	119
scalar tree_4_3_u05_r1_network.node[18].content_store 	decision_no[18] 	8632
scalar tree_4_3_u05_r1_network.node[18].content_store 	decision_ratio[18] 	0.013598445891898
scalar tree_4_3_u05_r1_network.node[19].core_layer 	interests[19] 	12585
scalar tree_4_3_u05_r1_network.node[19].core_layer 	data[19] 	8815
scalar tree_4_3_u05_r1_network.node[19].content_store 	p_hit[19] 	0.29956297179182
scalar tree_4_3_u05_r1_network.node[19].content_store 	hits[19] 	3770
scalar tree_4_3_u05_r1_network.node[19].content_store 	misses[19] 	8815
scalar tree_4_3_u05_r1_network.node[19].content_store 	decision_yes[19] 	89
scalar tree_4_3_u05_r1_network.node[19].content_store 	decision_no[19] 	8726
scalar tree_4_3_u05_r1_network.node[19].content_store 	decision_ratio[19] 	0.010096426545661
scalar tree_4_3_u05_r1_network.node[20].core_layer 	interests[20] 	13243
scalar tree_4_3_u05_r1_network.node[20].core_layer 	data[20] 	8823
scalar tree_4_3_u05_r1_network.node[20].content_store 	p_hit[20] 	0.33376123234917
scalar tree_4_3_u05_r1_network.node[20].content_store 	hits[20] 	4420
scalar tree_4_3_u05_r1_network.node[20].content_store 	misses[20] 	8823
scalar tree_4_3_u05_r1_network.node[20].content_store 	decision_yes[20] 	99
scalar tree_4_3_u05_r1_network.node[20].content_store 	decision_no[20] 	8724
scalar tree_4_3_u05_r1_network.node[20].content_store 	decision_ratio[20] 	0.011220673240394
scalar tree_4_3_u05_r1_network.node[21].core_layer 	interests[21] 	12712
scalar tree_4_3_u05_r1_network.node[21].core_layer 	data[21] 	8791
scalar tree_4_3_u05_r1_network.node[21].content_store 	p_hit[21] 	0.30844870988043
scalar tree_4_3_u05_r1_network.node[21].content_store 	hits[21] 	3921
scalar tree_4_3_u05_r1_network.node[21].content_store 	misses[21] 	8791
scalar tree_4_3_u05_r1_network.node[21].content_store 	decision_yes[21] 	105
scalar tree_4_3_u05_r1_network.node[21].content_store 	decision_no[21] 	8686
scalar tree_4_3_u05_r1_network.node[21].content_store 	decision_ratio[21] 	0.0119440336708
scalar tree_4_3_u05_r1_network.node[22].core_layer 	interests[22] 	12569
scalar tree_4_3_u05_r1_network.node[22].core_layer 	data[22] 	8791
scalar tree_4_3_u05_r1_network.node[22].content_store 	p_hit[22] 	0.30058079401703
scalar tree_4_3_u05_r1_network.node[22].content_store 	hits[22] 	3778
scalar tree_4_3_u05_r1_network.node[22].content_store 	misses[22] 	8791
scalar tree_4_3_u05_r1_network.node[22].content_store 	decision_yes[22] 	103
scalar tree_4_3_u05_r1_network.node[22].content_store 	decision_no[22] 	8688
scalar tree_4_3_u05_r1_network.node[22].content_store 	decision_ratio[22] 	0.011716528267546
scalar tree_4_3_u05_r1_network.node[23].core_layer 	interests[23] 	12652
scalar tree_4_3_u05_r1_network.node[23].core_layer 	data[23] 	8853
scalar tree_4_3_u05_r1_network.node[23].content_store 	p_hit[23] 	0.30018969332912
scalar tree_4_3_u05_r1_network.node[23].content_store 	hits[23] 	3798
scalar tree_4_3_u05_r1_network.node[23].content_store 	misses[23] 	8854
scalar tree_4_3_u05_r1_network.node[23].content_store 	decision_yes[23] 	108
scalar tree_4_3_u05_r1_network.node[23].content_store 	decision_no[23] 	8745
scalar tree_4_3_u05_r1_network.node[23].content_store 	decision_ratio[23] 	0.012199254490003
scalar tree_4_3_u05_r1_network.node[24].core_layer 	interests[24] 	13162
scalar tree_4_3_u05_r1_network.node[24].core_layer 	data[24] 	8776
scalar tree_4_3_u05_r1_network.node[24].content_store 	p_hit[24] 	0.33323203160614
scalar tree_4_3_u05_r1_network.node[24].content_store 	hits[24] 	4386
scalar tree_4_3_u05_r1_network.node[24].content_store 	misses[24] 	8776
scalar tree_4_3_u05_r1_network.node[24].content_store 	decision_yes[24] 	125
scalar tree_4_3_u05_r1_network.node[24].content_store 	decision_no[24] 	8651
scalar tree_4_3_u05_r1_network.node[24].content_store 	decision_ratio[24] 	0.014243391066545
scalar tree_4_3_u05_r1_network.node[25].core_layer 	interests[25] 	12791
scalar tree_4_3_u05_r1_network.node[25].core_layer 	data[25] 	8635
scalar tree_4_3_u05_r1_network.node[25].content_store 	p_hit[25] 	0.32491595653194
scalar tree_4_3_u05_r1_network.node[25].content_store 	hits[25] 	4156
scalar tree_4_3_u05_r1_network.node[25].content_store 	misses[25] 	8635
scalar tree_4_3_u05_r1_network.node[25].content_store 	decision_yes[25] 	98
scalar tree_4_3_u05_r1_network.node[25].content_store 	decision_no[25] 	8537
scalar tree_4_3_u05_r1_network.node[25].content_store 	decision_ratio[25] 	0.011349160393746
scalar tree_4_3_u05_r1_network.node[26].core_layer 	interests[26] 	12347
scalar tree_4_3_u05_r1_network.node[26].core_layer 	data[26] 	8832
scalar tree_4_3_u05_r1_network.node[26].content_store 	p_hit[26] 	0.28468453875435
scalar tree_4_3_u05_r1_network.node[26].content_store 	hits[26] 	3515
scalar tree_4_3_u05_r1_network.node[26].content_store 	misses[26] 	8832
scalar tree_4_3_u05_r1_network.node[26].content_store 	decision_yes[26] 	135
scalar tree_4_3_u05_r1_network.node[26].content_store 	decision_no[26] 	8697
scalar tree_4_3_u05_r1_network.node[26].content_store 	decision_ratio[26] 	0.015285326086957
scalar tree_4_3_u05_r1_network.node[27].core_layer 	interests[27] 	12902
scalar tree_4_3_u05_r1_network.node[27].core_layer 	data[27] 	8829
scalar tree_4_3_u05_r1_network.node[27].content_store 	p_hit[27] 	0.31568749031158
scalar tree_4_3_u05_r1_network.node[27].content_store 	hits[27] 	4073
scalar tree_4_3_u05_r1_network.node[27].content_store 	misses[27] 	8829
scalar tree_4_3_u05_r1_network.node[27].content_store 	decision_yes[27] 	127
scalar tree_4_3_u05_r1_network.node[27].content_store 	decision_no[27] 	8702
scalar tree_4_3_u05_r1_network.node[27].content_store 	decision_ratio[27] 	0.014384414996036
scalar tree_4_3_u05_r1_network.node[28].core_layer 	interests[28] 	12668
scalar tree_4_3_u05_r1_network.node[28].core_layer 	data[28] 	8929
scalar tree_4_3_u05_r1_network.node[28].content_store 	p_hit[28] 	0.29515314177455
scalar tree_4_3_u05_r1_network.node[28].content_store 	hits[28] 	3739
scalar tree_4_3_u05_r1_network.node[28].content_store 	misses[28] 	8929
scalar tree_4_3_u05_r1_network.node[28].content_store 	decision_yes[28] 	132
scalar tree_4_3_u05_r1_network.node[28].content_store 	decision_no[28] 	8797
scalar tree_4_3_u05_r1_network.node[28].content_store 	decision_ratio[28] 	0.014783290402061
scalar tree_4_3_u05_r1_network.node[29].core_layer 	interests[29] 	12360
scalar tree_4_3_u05_r1_network.node[29].core_layer 	data[29] 	8685
scalar tree_4_3_u05_r1_network.node[29].content_store 	p_hit[29] 	0.29733009708738
scalar tree_4_3_u05_r1_network.node[29].content_store 	hits[29] 	3675
scalar tree_4_3_u05_r1_network.node[29].content_store 	misses[29] 	8685
scalar tree_4_3_u05_r1_network.node[29].content_store 	decision_yes[29] 	114
scalar tree_4_3_u05_r1_network.node[29].content_store 	decision_no[29] 	8571
scalar tree_4_3_u05_r1_network.node[29].content_store 	decision_ratio[29] 	0.013126079447323
scalar tree_4_3_u05_r1_network.node[30].core_layer 	interests[30] 	12950
scalar tree_4_3_u05_r1_network.node[30].core_layer 	data[30] 	9180
scalar tree_4_3_u05_r1_network.node[30].content_store 	p_hit[30] 	0.29111969111969
scalar tree_4_3_u05_r1_network.node[30].content_store 	hits[30] 	3770
scalar tree_4_3_u05_r1_network.node[30].content_store 	misses[30] 	9180
scalar tree_4_3_u05_r1_network.node[30].content_store 	decision_yes[30] 	118
scalar tree_4_3_u05_r1_network.node[30].content_store 	decision_no[30] 	9062
scalar tree_4_3_u05_r1_network.node[30].content_store 	decision_ratio[30] 	0.012854030501089
scalar tree_4_3_u05_r1_network.node[31].core_layer 	interests[31] 	12418
scalar tree_4_3_u05_r1_network.node[31].core_layer 	data[31] 	8781
scalar tree_4_3_u05_r1_network.node[31].content_store 	p_hit[31] 	0.29288130133677
scalar tree_4_3_u05_r1_network.node[31].content_store 	hits[31] 	3637
scalar tree_4_3_u05_r1_network.node[31].content_store 	misses[31] 	8781
scalar tree_4_3_u05_r1_network.node[31].content_store 	decision_yes[31] 	112
scalar tree_4_3_u05_r1_network.node[31].content_store 	decision_no[31] 	8669
scalar tree_4_3_u05_r1_network.node[31].content_store 	decision_ratio[31] 	0.012754811524883
scalar tree_4_3_u05_r1_network.node[32].core_layer 	interests[32] 	12574
scalar tree_4_3_u05_r1_network.node[32].core_layer 	data[32] 	8970
scalar tree_4_3_u05_r1_network.node[32].content_store 	p_hit[32] 	0.28662319071099
scalar tree_4_3_u05_r1_network.node[32].content_store 	hits[32] 	3604
scalar tree_4_3_u05_r1_network.node[32].content_store 	misses[32] 	8970
scalar tree_4_3_u05_r1_network.node[32].content_store 	decision_yes[32] 	105
scalar tree_4_3_u05_r1_network.node[32].content_store 	decision_no[32] 	8865
scalar tree_4_3_u05_r1_network.node[32].content_store 	decision_ratio[32] 	0.011705685618729
scalar tree_4_3_u05_r1_network.node[33].core_layer 	interests[33] 	12485
scalar tree_4_3_u05_r1_network.node[33].core_layer 	data[33] 	8744
scalar tree_4_3_u05_r1_network.node[33].content_store 	p_hit[33] 	0.29963956748098
scalar tree_4_3_u05_r1_network.node[33].content_store 	hits[33] 	3741
scalar tree_4_3_u05_r1_network.node[33].content_store 	misses[33] 	8744
scalar tree_4_3_u05_r1_network.node[33].content_store 	decision_yes[33] 	106
scalar tree_4_3_u05_r1_network.node[33].content_store 	decision_no[33] 	8638
scalar tree_4_3_u05_r1_network.node[33].content_store 	decision_ratio[33] 	0.012122598353156
scalar tree_4_3_u05_r1_network.node[34].core_layer 	interests[34] 	13067
scalar tree_4_3_u05_r1_network.node[34].core_layer 	data[34] 	8810
scalar tree_4_3_u05_r1_network.node[34].content_store 	p_hit[34] 	0.32585903420831
scalar tree_4_3_u05_r1_network.node[34].content_store 	hits[34] 	4258
scalar tree_4_3_u05_r1_network.node[34].content_store 	misses[34] 	8809
scalar tree_4_3_u05_r1_network.node[34].content_store 	decision_yes[34] 	100
scalar tree_4_3_u05_r1_network.node[34].content_store 	decision_no[34] 	8710
scalar tree_4_3_u05_r1_network.node[34].content_store 	decision_ratio[34] 	0.011350737797957
scalar tree_4_3_u05_r1_network.node[35].core_layer 	interests[35] 	12616
scalar tree_4_3_u05_r1_network.node[35].core_layer 	data[35] 	8921
scalar tree_4_3_u05_r1_network.node[35].content_store 	p_hit[35] 	0.29288205453393
scalar tree_4_3_u05_r1_network.node[35].content_store 	hits[35] 	3695
scalar tree_4_3_u05_r1_network.node[35].content_store 	misses[35] 	8921
scalar tree_4_3_u05_r1_network.node[35].content_store 	decision_yes[35] 	110
scalar tree_4_3_u05_r1_network.node[35].content_store 	decision_no[35] 	8811
scalar tree_4_3_u05_r1_network.node[35].content_store 	decision_ratio[35] 	0.01233045622688
scalar tree_4_3_u05_r1_network.node[36].core_layer 	interests[36] 	12409
scalar tree_4_3_u05_r1_network.node[36].core_layer 	data[36] 	8647
scalar tree_4_3_u05_r1_network.node[36].content_store 	p_hit[36] 	0.30316705616891
scalar tree_4_3_u05_r1_network.node[36].content_store 	hits[36] 	3762
scalar tree_4_3_u05_r1_network.node[36].content_store 	misses[36] 	8647
scalar tree_4_3_u05_r1_network.node[36].content_store 	decision_yes[36] 	119
scalar tree_4_3_u05_r1_network.node[36].content_store 	decision_no[36] 	8528
scalar tree_4_3_u05_r1_network.node[36].content_store 	decision_ratio[36] 	0.013761998380941
scalar tree_4_3_u05_r1_network.node[37].core_layer 	interests[37] 	12158
scalar tree_4_3_u05_r1_network.node[37].core_layer 	data[37] 	8785
scalar tree_4_3_u05_r1_network.node[37].content_store 	p_hit[37] 	0.27743049843724
scalar tree_4_3_u05_r1_network.node[37].content_store 	hits[37] 	3373
scalar tree_4_3_u05_r1_network.node[37].content_store 	misses[37] 	8785
scalar tree_4_3_u05_r1_network.node[37].content_store 	decision_yes[37] 	133
scalar tree_4_3_u05_r1_network.node[37].content_store 	decision_no[37] 	8652
scalar tree_4_3_u05_r1_network.node[37].content_store 	decision_ratio[37] 	0.015139442231076
scalar tree_4_3_u05_r1_network.node[38].core_layer 	interests[38] 	12792
scalar tree_4_3_u05_r1_network.node[38].core_layer 	data[38] 	8625
scalar tree_4_3_u05_r1_network.node[38].content_store 	p_hit[38] 	0.32567229518449
scalar tree_4_3_u05_r1_network.node[38].content_store 	hits[38] 	4166
scalar tree_4_3_u05_r1_network.node[38].content_store 	misses[38] 	8626
scalar tree_4_3_u05_r1_network.node[38].content_store 	decision_yes[38] 	119
scalar tree_4_3_u05_r1_network.node[38].content_store 	decision_no[38] 	8506
scalar tree_4_3_u05_r1_network.node[38].content_store 	decision_ratio[38] 	0.013797101449275
scalar tree_4_3_u05_r1_network.node[39].core_layer 	interests[39] 	12240
scalar tree_4_3_u05_r1_network.node[39].core_layer 	data[39] 	8651
scalar tree_4_3_u05_r1_network.node[39].content_store 	p_hit[39] 	0.29321895424837
scalar tree_4_3_u05_r1_network.node[39].content_store 	hits[39] 	3589
scalar tree_4_3_u05_r1_network.node[39].content_store 	misses[39] 	8651
scalar tree_4_3_u05_r1_network.node[39].content_store 	decision_yes[39] 	107
scalar tree_4_3_u05_r1_network.node[39].content_store 	decision_no[39] 	8544
scalar tree_4_3_u05_r1_network.node[39].content_store 	decision_ratio[39] 	0.012368512310716
scalar tree_4_3_u05_r1_network.client[13] 	hdistance[13] 	2.675871246777
scalar tree_4_3_u05_r1_network.client[13] 	downloads[13] 	12023
scalar tree_4_3_u05_r1_network.client[13] 	avg_time[13] 	0.00418081708
scalar tree_4_3_u05_r1_network.client[14] 	hdistance[14] 	2.5708100907502
scalar tree_4_3_u05_r1_network.client[14] 	downloads[14] 	12011
scalar tree_4_3_u05_r1_network.client[14] 	avg_time[14] 	0.004031634683
scalar tree_4_3_u05_r1_network.client[15] 	hdistance[15] 	2.6642863005828
scalar tree_4_3_u05_r1_network.client[15] 	downloads[15] 	12183
scalar tree_4_3_u05_r1_network.client[15] 	avg_time[15] 	0.004167267952
scalar tree_4_3_u05_r1_network.client[16] 	hdistance[16] 	2.626904842533
scalar tree_4_3_u05_r1_network.client[16] 	downloads[16] 	11812
scalar tree_4_3_u05_r1_network.client[16] 	avg_time[16] 	0.004143241214
scalar tree_4_3_u05_r1_network.client[17] 	hdistance[17] 	2.6558420095852
scalar tree_4_3_u05_r1_network.client[17] 	downloads[17] 	12102
scalar tree_4_3_u05_r1_network.client[17] 	avg_time[17] 	0.004190007152
scalar tree_4_3_u05_r1_network.client[18] 	hdistance[18] 	2.5834246690836
scalar tree_4_3_u05_r1_network.client[18] 	downloads[18] 	11861
scalar tree_4_3_u05_r1_network.client[18] 	avg_time[18] 	0.004057159175
scalar tree_4_3_u05_r1_network.client[19] 	hdistance[19] 	2.6361601591644
scalar tree_4_3_u05_r1_network.client[19] 	downloads[19] 	12063
scalar tree_4_3_u05_r1_network.client[19] 	avg_time[19] 	0.004148550399
scalar tree_4_3_u05_r1_network.client[20] 	hdistance[20] 	2.5747327989312
scalar tree_4_3_u05_r1_network.client[20] 	downloads[20] 	11976
scalar tree_4_3_u05_r1_network.client[20] 	avg_time[20] 	0.004047259418
scalar tree_4_3_u05_r1_network.client[21] 	hdistance[21] 	2.604968739717
scalar tree_4_3_u05_r1_network.client[21] 	downloads[21] 	12156
scalar tree_4_3_u05_r1_network.client[21] 	avg_time[21] 	0.004106281921
scalar tree_4_3_u05_r1_network.client[22] 	hdistance[22] 	2.6392062036188
scalar tree_4_3_u05_r1_network.client[22] 	downloads[22] 	11993
scalar tree_4_3_u05_r1_network.client[22] 	avg_time[22] 	0.004158090886
scalar tree_4_3_u05_r1_network.client[23] 	hdistance[23] 	2.6489388264669
scalar tree_4_3_u05_r1_network.client[23] 	downloads[23] 	12015
scalar tree_4_3_u05_r1_network.client[23] 	avg_time[23] 	0.00417245941
scalar tree_4_3_u05_r1_network.client[24] 	hdistance[24] 	2.5762939350725
scalar tree_4_3_u05_r1_network.client[24] 	downloads[24] 	11921
scalar tree_4_3_u05_r1_network.client[24] 	avg_time[24] 	0.004040992258
scalar tree_4_3_u05_r1_network.client[25] 	hdistance[25] 	2.5833051420839
scalar tree_4_3_u05_r1_network.client[25] 	downloads[25] 	11824
scalar tree_4_3_u05_r1_network.client[25] 	avg_time[25] 	0.004052172979
scalar tree_4_3_u05_r1_network.client[26] 	hdistance[26] 	2.6785094604643
scalar tree_4_3_u05_r1_network.client[26] 	downloads[26] 	12103
scalar tree_4_3_u05_r1_network.client[26] 	avg_time[26] 	0.004208009528
scalar tree_4_3_u05_r1_network.client[27] 	hdistance[27] 	2.6062546785328
scalar tree_4_3_u05_r1_network.client[27] 	downloads[27] 	12023
scalar tree_4_3_u05_r1_network.client[27] 	avg_time[27] 	0.004072117154
scalar tree_4_3_u05_r1_network.client[28] 	hdistance[28] 	2.6604317732367
scalar tree_4_3_u05_r1_network.client[28] 	downloads[28] 	12136
scalar tree_4_3_u05_r1_network.client[28] 	avg_time[28] 	0.004170563882
scalar tree_4_3_u05_r1_network.client[29] 	hdistance[29] 	2.6438597965874
scalar tree_4_3_u05_r1_network.client[29] 	downloads[29] 	11897
scalar tree_4_3_u05_r1_network.client[29] 	avg_time[29] 	0.004146638906
scalar tree_4_3_u05_r1_network.client[30] 	hdistance[30] 	2.6724845170112
scalar tree_4_3_u05_r1_network.client[30] 	downloads[30] 	12433
scalar tree_4_3_u05_r1_network.client[30] 	avg_time[30] 	0.004193835868
scalar tree_4_3_u05_r1_network.client[31] 	hdistance[31] 	2.6791900259393
scalar tree_4_3_u05_r1_network.client[31] 	downloads[31] 	11951
scalar tree_4_3_u05_r1_network.client[31] 	avg_time[31] 	0.00417805742
scalar tree_4_3_u05_r1_network.client[32] 	hdistance[32] 	2.6964020465423
scalar tree_4_3_u05_r1_network.client[32] 	downloads[32] 	12118
scalar tree_4_3_u05_r1_network.client[32] 	avg_time[32] 	0.004207952056
scalar tree_4_3_u05_r1_network.client[33] 	hdistance[33] 	2.6683114493602
scalar tree_4_3_u05_r1_network.client[33] 	downloads[33] 	11957
scalar tree_4_3_u05_r1_network.client[33] 	avg_time[33] 	0.004165088569
scalar tree_4_3_u05_r1_network.client[34] 	hdistance[34] 	2.586723589486
scalar tree_4_3_u05_r1_network.client[34] 	downloads[34] 	11946
scalar tree_4_3_u05_r1_network.client[34] 	avg_time[34] 	0.004061440143
scalar tree_4_3_u05_r1_network.client[35] 	hdistance[35] 	2.6681655425098
scalar tree_4_3_u05_r1_network.client[35] 	downloads[35] 	12009
scalar tree_4_3_u05_r1_network.client[35] 	avg_time[35] 	0.004222163726
scalar tree_4_3_u05_r1_network.client[36] 	hdistance[36] 	2.6262643290627
scalar tree_4_3_u05_r1_network.client[36] 	downloads[36] 	11864
scalar tree_4_3_u05_r1_network.client[36] 	avg_time[36] 	0.004149693601
scalar tree_4_3_u05_r1_network.client[37] 	hdistance[37] 	2.7133085627428
scalar tree_4_3_u05_r1_network.client[37] 	downloads[37] 	11842
scalar tree_4_3_u05_r1_network.client[37] 	avg_time[37] 	0.00423642706
scalar tree_4_3_u05_r1_network.client[38] 	hdistance[38] 	2.5865646258503
scalar tree_4_3_u05_r1_network.client[38] 	downloads[38] 	11760
scalar tree_4_3_u05_r1_network.client[38] 	avg_time[38] 	0.004061793991
scalar tree_4_3_u05_r1_network.client[39] 	hdistance[39] 	2.6607052896725
scalar tree_4_3_u05_r1_network.client[39] 	downloads[39] 	11910
scalar tree_4_3_u05_r1_network.client[39] 	avg_time[39] 	0.004151802238
