version 2
run General-333-20160901-05:25:28-8710
attr a 0.9
attr cd ffc
attr configname General
attr cr lru
attr datetime 20160901-05:25:28
attr experiment General
attr fsize 1
attr inifile hw5115/scenario_Y/omnetp.ini
attr iterationvars "$name=tree_4_3, $un=05, $rep=12, $cd=ffc, $cr=lru, $fsize=1, $a=0.9, $sl=nrr, $ttl=1000, $variance=0.05"
attr iterationvars2 "$name=tree_4_3, $un=05, $rep=12, $cd=ffc, $cr=lru, $fsize=1, $a=0.9, $sl=nrr, $ttl=1000, $variance=0.05, $repetition=0"
attr measurement "$name=tree_4_3, $un=05, $rep=12, $cd=ffc, $cr=lru, $fsize=1, $a=0.9, $sl=nrr, $ttl=1000, $variance=0.05"
attr name tree_4_3
attr network networks.${name}_u${un}_r${rep}_network
attr processid 8710
attr rep 12
attr repetition 0
attr replication #0
attr resultdir results
attr runnumber 333
attr seedset 12
attr sl nrr
attr ttl 1000
attr un 05
attr variance 0.05

scalar . 	a 	0.9
scalar . 	fsize 	1
scalar . 	rep 	12
scalar . 	ttl 	1000
scalar . 	un 	05
scalar . 	variance 	0.05
scalar tree_4_3_u05_r12_network.content_distribution 	repo-0 	0
scalar tree_4_3_u05_r12_network.content_distribution 	client-0 	13
scalar tree_4_3_u05_r12_network.content_distribution 	client-1 	14
scalar tree_4_3_u05_r12_network.content_distribution 	client-2 	15
scalar tree_4_3_u05_r12_network.content_distribution 	client-3 	16
scalar tree_4_3_u05_r12_network.content_distribution 	client-4 	17
scalar tree_4_3_u05_r12_network.content_distribution 	client-5 	18
scalar tree_4_3_u05_r12_network.content_distribution 	client-6 	19
scalar tree_4_3_u05_r12_network.content_distribution 	client-7 	20
scalar tree_4_3_u05_r12_network.content_distribution 	client-8 	21
scalar tree_4_3_u05_r12_network.content_distribution 	client-9 	22
scalar tree_4_3_u05_r12_network.content_distribution 	client-10 	23
scalar tree_4_3_u05_r12_network.content_distribution 	client-11 	24
scalar tree_4_3_u05_r12_network.content_distribution 	client-12 	25
scalar tree_4_3_u05_r12_network.content_distribution 	client-13 	26
scalar tree_4_3_u05_r12_network.content_distribution 	client-14 	27
scalar tree_4_3_u05_r12_network.content_distribution 	client-15 	28
scalar tree_4_3_u05_r12_network.content_distribution 	client-16 	29
scalar tree_4_3_u05_r12_network.content_distribution 	client-17 	30
scalar tree_4_3_u05_r12_network.content_distribution 	client-18 	31
scalar tree_4_3_u05_r12_network.content_distribution 	client-19 	32
scalar tree_4_3_u05_r12_network.content_distribution 	client-20 	33
scalar tree_4_3_u05_r12_network.content_distribution 	client-21 	34
scalar tree_4_3_u05_r12_network.content_distribution 	client-22 	35
scalar tree_4_3_u05_r12_network.content_distribution 	client-23 	36
scalar tree_4_3_u05_r12_network.content_distribution 	client-24 	37
scalar tree_4_3_u05_r12_network.content_distribution 	client-25 	38
scalar tree_4_3_u05_r12_network.content_distribution 	client-26 	39
scalar tree_4_3_u05_r12_network.content_distribution 	repo-0_card 	100000
scalar tree_4_3_u05_r12_network.content_distribution 	repo-0_price 	0
scalar tree_4_3_u05_r12_network.statistics 	stabilization_time 	1081.7
scalar tree_4_3_u05_r12_network.statistics 	p_hit 	0.23061065474294
scalar tree_4_3_u05_r12_network.statistics 	interests 	24790.4
scalar tree_4_3_u05_r12_network.statistics 	data 	16702.675
scalar tree_4_3_u05_r12_network.statistics 	hdistance 	2.640399748904
scalar tree_4_3_u05_r12_network.statistics 	avg_time 	0.004130379015
scalar tree_4_3_u05_r12_network.statistics 	downloads 	323509
scalar tree_4_3_u05_r12_network.statistics 	total_cost 	0
scalar tree_4_3_u05_r12_network.statistics 	total_replicas 	100000
scalar tree_4_3_u05_r12_network.statistics 	inner_hit 	0.42480116472803
scalar tree_4_3_u05_r12_network.node[0].core_layer 	interests[0] 	188763
scalar tree_4_3_u05_r12_network.node[0].core_layer 	repo_load[0] 	186082
scalar tree_4_3_u05_r12_network.node[0].core_layer 	data[0] 	0
scalar tree_4_3_u05_r12_network.node[0].core_layer 	repo_int[0] 	186082
scalar tree_4_3_u05_r12_network.node[0].content_store 	p_hit[0] 	0.014202995290391
scalar tree_4_3_u05_r12_network.node[0].content_store 	hits[0] 	2681
scalar tree_4_3_u05_r12_network.node[0].content_store 	misses[0] 	186082
scalar tree_4_3_u05_r12_network.node[0].content_store 	decision_yes[0] 	855
scalar tree_4_3_u05_r12_network.node[0].content_store 	decision_no[0] 	185227
scalar tree_4_3_u05_r12_network.node[0].content_store 	decision_ratio[0] 	0.0045947485517138
scalar tree_4_3_u05_r12_network.node[1].core_layer 	interests[1] 	67048
scalar tree_4_3_u05_r12_network.node[1].core_layer 	data[1] 	65605
scalar tree_4_3_u05_r12_network.node[1].content_store 	p_hit[1] 	0.021506980073977
scalar tree_4_3_u05_r12_network.node[1].content_store 	hits[1] 	1442
scalar tree_4_3_u05_r12_network.node[1].content_store 	misses[1] 	65606
scalar tree_4_3_u05_r12_network.node[1].content_store 	decision_yes[1] 	358
scalar tree_4_3_u05_r12_network.node[1].content_store 	decision_no[1] 	65247
scalar tree_4_3_u05_r12_network.node[1].content_store 	decision_ratio[1] 	0.0054569011508269
scalar tree_4_3_u05_r12_network.node[2].core_layer 	interests[2] 	93546
scalar tree_4_3_u05_r12_network.node[2].core_layer 	data[2] 	90549
scalar tree_4_3_u05_r12_network.node[2].content_store 	p_hit[2] 	0.032027024137857
scalar tree_4_3_u05_r12_network.node[2].content_store 	hits[2] 	2996
scalar tree_4_3_u05_r12_network.node[2].content_store 	misses[2] 	90550
scalar tree_4_3_u05_r12_network.node[2].content_store 	decision_yes[2] 	590
scalar tree_4_3_u05_r12_network.node[2].content_store 	decision_no[2] 	89959
scalar tree_4_3_u05_r12_network.node[2].content_store 	decision_ratio[2] 	0.006515809119924
scalar tree_4_3_u05_r12_network.node[3].core_layer 	interests[3] 	49601
scalar tree_4_3_u05_r12_network.node[3].core_layer 	data[3] 	47076
scalar tree_4_3_u05_r12_network.node[3].content_store 	p_hit[3] 	0.050906231729199
scalar tree_4_3_u05_r12_network.node[3].content_store 	hits[3] 	2525
scalar tree_4_3_u05_r12_network.node[3].content_store 	misses[3] 	47076
scalar tree_4_3_u05_r12_network.node[3].content_store 	decision_yes[3] 	380
scalar tree_4_3_u05_r12_network.node[3].content_store 	decision_no[3] 	46696
scalar tree_4_3_u05_r12_network.node[3].content_store 	decision_ratio[3] 	0.0080720537003994
scalar tree_4_3_u05_r12_network.node[4].core_layer 	interests[4] 	33963
scalar tree_4_3_u05_r12_network.node[4].core_layer 	data[4] 	31863
scalar tree_4_3_u05_r12_network.node[4].content_store 	p_hit[4] 	0.061831993640138
scalar tree_4_3_u05_r12_network.node[4].content_store 	hits[4] 	2100
scalar tree_4_3_u05_r12_network.node[4].content_store 	misses[4] 	31863
scalar tree_4_3_u05_r12_network.node[4].content_store 	decision_yes[4] 	278
scalar tree_4_3_u05_r12_network.node[4].content_store 	decision_no[4] 	31584
scalar tree_4_3_u05_r12_network.node[4].content_store 	decision_ratio[4] 	0.0087251271106647
scalar tree_4_3_u05_r12_network.node[5].core_layer 	interests[5] 	30981
scalar tree_4_3_u05_r12_network.node[5].core_layer 	data[5] 	27260
scalar tree_4_3_u05_r12_network.node[5].content_store 	p_hit[5] 	0.1201058713405
scalar tree_4_3_u05_r12_network.node[5].content_store 	hits[5] 	3721
scalar tree_4_3_u05_r12_network.node[5].content_store 	misses[5] 	27260
scalar tree_4_3_u05_r12_network.node[5].content_store 	decision_yes[5] 	435
scalar tree_4_3_u05_r12_network.node[5].content_store 	decision_no[5] 	26825
scalar tree_4_3_u05_r12_network.node[5].content_store 	decision_ratio[5] 	0.015957446808511
scalar tree_4_3_u05_r12_network.node[6].core_layer 	interests[6] 	18504
scalar tree_4_3_u05_r12_network.node[6].core_layer 	data[6] 	16742
scalar tree_4_3_u05_r12_network.node[6].content_store 	p_hit[6] 	0.095222654561176
scalar tree_4_3_u05_r12_network.node[6].content_store 	hits[6] 	1762
scalar tree_4_3_u05_r12_network.node[6].content_store 	misses[6] 	16742
scalar tree_4_3_u05_r12_network.node[6].content_store 	decision_yes[6] 	168
scalar tree_4_3_u05_r12_network.node[6].content_store 	decision_no[6] 	16574
scalar tree_4_3_u05_r12_network.node[6].content_store 	decision_ratio[6] 	0.010034643411779
scalar tree_4_3_u05_r12_network.node[7].core_layer 	interests[7] 	35084
scalar tree_4_3_u05_r12_network.node[7].core_layer 	data[7] 	32794
scalar tree_4_3_u05_r12_network.node[7].content_store 	p_hit[7] 	0.065271918823395
scalar tree_4_3_u05_r12_network.node[7].content_store 	hits[7] 	2290
scalar tree_4_3_u05_r12_network.node[7].content_store 	misses[7] 	32794
scalar tree_4_3_u05_r12_network.node[7].content_store 	decision_yes[7] 	314
scalar tree_4_3_u05_r12_network.node[7].content_store 	decision_no[7] 	32480
scalar tree_4_3_u05_r12_network.node[7].content_store 	decision_ratio[7] 	0.0095749222418735
scalar tree_4_3_u05_r12_network.node[8].core_layer 	interests[8] 	27411
scalar tree_4_3_u05_r12_network.node[8].core_layer 	data[8] 	24386
scalar tree_4_3_u05_r12_network.node[8].content_store 	p_hit[8] 	0.1103206741819
scalar tree_4_3_u05_r12_network.node[8].content_store 	hits[8] 	3024
scalar tree_4_3_u05_r12_network.node[8].content_store 	misses[8] 	24387
scalar tree_4_3_u05_r12_network.node[8].content_store 	decision_yes[8] 	253
scalar tree_4_3_u05_r12_network.node[8].content_store 	decision_no[8] 	24133
scalar tree_4_3_u05_r12_network.node[8].content_store 	decision_ratio[8] 	0.010374805216108
scalar tree_4_3_u05_r12_network.node[9].core_layer 	interests[9] 	21908
scalar tree_4_3_u05_r12_network.node[9].core_layer 	data[9] 	18401
scalar tree_4_3_u05_r12_network.node[9].content_store 	p_hit[9] 	0.16003286470696
scalar tree_4_3_u05_r12_network.node[9].content_store 	hits[9] 	3506
scalar tree_4_3_u05_r12_network.node[9].content_store 	misses[9] 	18402
scalar tree_4_3_u05_r12_network.node[9].content_store 	decision_yes[9] 	307
scalar tree_4_3_u05_r12_network.node[9].content_store 	decision_no[9] 	18094
scalar tree_4_3_u05_r12_network.node[9].content_store 	decision_ratio[9] 	0.016683875876311
scalar tree_4_3_u05_r12_network.node[10].core_layer 	interests[10] 	37144
scalar tree_4_3_u05_r12_network.node[10].core_layer 	data[10] 	34518
scalar tree_4_3_u05_r12_network.node[10].content_store 	p_hit[10] 	0.070697824682317
scalar tree_4_3_u05_r12_network.node[10].content_store 	hits[10] 	2626
scalar tree_4_3_u05_r12_network.node[10].content_store 	misses[10] 	34518
scalar tree_4_3_u05_r12_network.node[10].content_store 	decision_yes[10] 	403
scalar tree_4_3_u05_r12_network.node[10].content_store 	decision_no[10] 	34115
scalar tree_4_3_u05_r12_network.node[10].content_store 	decision_ratio[10] 	0.011675068080422
scalar tree_4_3_u05_r12_network.node[11].core_layer 	interests[11] 	28025
scalar tree_4_3_u05_r12_network.node[11].core_layer 	data[11] 	24983
scalar tree_4_3_u05_r12_network.node[11].content_store 	p_hit[11] 	0.108545941124
scalar tree_4_3_u05_r12_network.node[11].content_store 	hits[11] 	3042
scalar tree_4_3_u05_r12_network.node[11].content_store 	misses[11] 	24983
scalar tree_4_3_u05_r12_network.node[11].content_store 	decision_yes[11] 	232
scalar tree_4_3_u05_r12_network.node[11].content_store 	decision_no[11] 	24751
scalar tree_4_3_u05_r12_network.node[11].content_store 	decision_ratio[11] 	0.0092863146939919
scalar tree_4_3_u05_r12_network.node[12].core_layer 	interests[12] 	18630
scalar tree_4_3_u05_r12_network.node[12].core_layer 	data[12] 	16746
scalar tree_4_3_u05_r12_network.node[12].content_store 	p_hit[12] 	0.10107353730542
scalar tree_4_3_u05_r12_network.node[12].content_store 	hits[12] 	1883
scalar tree_4_3_u05_r12_network.node[12].content_store 	misses[12] 	16747
scalar tree_4_3_u05_r12_network.node[12].content_store 	decision_yes[12] 	220
scalar tree_4_3_u05_r12_network.node[12].content_store 	decision_no[12] 	16526
scalar tree_4_3_u05_r12_network.node[12].content_store 	decision_ratio[12] 	0.013137465663442
scalar tree_4_3_u05_r12_network.node[13].core_layer 	interests[13] 	12385
scalar tree_4_3_u05_r12_network.node[13].core_layer 	data[13] 	8824
scalar tree_4_3_u05_r12_network.node[13].content_store 	p_hit[13] 	0.2873637464675
scalar tree_4_3_u05_r12_network.node[13].content_store 	hits[13] 	3559
scalar tree_4_3_u05_r12_network.node[13].content_store 	misses[13] 	8826
scalar tree_4_3_u05_r12_network.node[13].content_store 	decision_yes[13] 	108
scalar tree_4_3_u05_r12_network.node[13].content_store 	decision_no[13] 	8716
scalar tree_4_3_u05_r12_network.node[13].content_store 	decision_ratio[13] 	0.012239347234814
scalar tree_4_3_u05_r12_network.node[14].core_layer 	interests[14] 	13148
scalar tree_4_3_u05_r12_network.node[14].core_layer 	data[14] 	8849
scalar tree_4_3_u05_r12_network.node[14].content_store 	p_hit[14] 	0.32696988135078
scalar tree_4_3_u05_r12_network.node[14].content_store 	hits[14] 	4299
scalar tree_4_3_u05_r12_network.node[14].content_store 	misses[14] 	8849
scalar tree_4_3_u05_r12_network.node[14].content_store 	decision_yes[14] 	119
scalar tree_4_3_u05_r12_network.node[14].content_store 	decision_no[14] 	8730
scalar tree_4_3_u05_r12_network.node[14].content_store 	decision_ratio[14] 	0.013447847214375
scalar tree_4_3_u05_r12_network.node[15].core_layer 	interests[15] 	12389
scalar tree_4_3_u05_r12_network.node[15].core_layer 	data[15] 	8859
scalar tree_4_3_u05_r12_network.node[15].content_store 	p_hit[15] 	0.28493017999839
scalar tree_4_3_u05_r12_network.node[15].content_store 	hits[15] 	3530
scalar tree_4_3_u05_r12_network.node[15].content_store 	misses[15] 	8859
scalar tree_4_3_u05_r12_network.node[15].content_store 	decision_yes[15] 	119
scalar tree_4_3_u05_r12_network.node[15].content_store 	decision_no[15] 	8740
scalar tree_4_3_u05_r12_network.node[15].content_store 	decision_ratio[15] 	0.013432667343944
scalar tree_4_3_u05_r12_network.node[16].core_layer 	interests[16] 	13257
scalar tree_4_3_u05_r12_network.node[16].core_layer 	data[16] 	8984
scalar tree_4_3_u05_r12_network.node[16].content_store 	p_hit[16] 	0.32232028362375
scalar tree_4_3_u05_r12_network.node[16].content_store 	hits[16] 	4273
scalar tree_4_3_u05_r12_network.node[16].content_store 	misses[16] 	8984
scalar tree_4_3_u05_r12_network.node[16].content_store 	decision_yes[16] 	109
scalar tree_4_3_u05_r12_network.node[16].content_store 	decision_no[16] 	8875
scalar tree_4_3_u05_r12_network.node[16].content_store 	decision_ratio[16] 	0.01213268032057
scalar tree_4_3_u05_r12_network.node[17].core_layer 	interests[17] 	12694
scalar tree_4_3_u05_r12_network.node[17].core_layer 	data[17] 	8815
scalar tree_4_3_u05_r12_network.node[17].content_store 	p_hit[17] 	0.30557743815976
scalar tree_4_3_u05_r12_network.node[17].content_store 	hits[17] 	3879
scalar tree_4_3_u05_r12_network.node[17].content_store 	misses[17] 	8815
scalar tree_4_3_u05_r12_network.node[17].content_store 	decision_yes[17] 	114
scalar tree_4_3_u05_r12_network.node[17].content_store 	decision_no[17] 	8701
scalar tree_4_3_u05_r12_network.node[17].content_store 	decision_ratio[17] 	0.012932501418037
scalar tree_4_3_u05_r12_network.node[18].core_layer 	interests[18] 	12604
scalar tree_4_3_u05_r12_network.node[18].core_layer 	data[18] 	8815
scalar tree_4_3_u05_r12_network.node[18].content_store 	p_hit[18] 	0.30061885115836
scalar tree_4_3_u05_r12_network.node[18].content_store 	hits[18] 	3789
scalar tree_4_3_u05_r12_network.node[18].content_store 	misses[18] 	8815
scalar tree_4_3_u05_r12_network.node[18].content_store 	decision_yes[18] 	101
scalar tree_4_3_u05_r12_network.node[18].content_store 	decision_no[18] 	8714
scalar tree_4_3_u05_r12_network.node[18].content_store 	decision_ratio[18] 	0.011457742484402
scalar tree_4_3_u05_r12_network.node[19].core_layer 	interests[19] 	12310
scalar tree_4_3_u05_r12_network.node[19].core_layer 	data[19] 	8684
scalar tree_4_3_u05_r12_network.node[19].content_store 	p_hit[19] 	0.29455727051178
scalar tree_4_3_u05_r12_network.node[19].content_store 	hits[19] 	3626
scalar tree_4_3_u05_r12_network.node[19].content_store 	misses[19] 	8684
scalar tree_4_3_u05_r12_network.node[19].content_store 	decision_yes[19] 	120
scalar tree_4_3_u05_r12_network.node[19].content_store 	decision_no[19] 	8564
scalar tree_4_3_u05_r12_network.node[19].content_store 	decision_ratio[19] 	0.013818516812529
scalar tree_4_3_u05_r12_network.node[20].core_layer 	interests[20] 	12942
scalar tree_4_3_u05_r12_network.node[20].core_layer 	data[20] 	8741
scalar tree_4_3_u05_r12_network.node[20].content_store 	p_hit[20] 	0.32460207077731
scalar tree_4_3_u05_r12_network.node[20].content_store 	hits[20] 	4201
scalar tree_4_3_u05_r12_network.node[20].content_store 	misses[20] 	8741
scalar tree_4_3_u05_r12_network.node[20].content_store 	decision_yes[20] 	110
scalar tree_4_3_u05_r12_network.node[20].content_store 	decision_no[20] 	8631
scalar tree_4_3_u05_r12_network.node[20].content_store 	decision_ratio[20] 	0.012584372497426
scalar tree_4_3_u05_r12_network.node[21].core_layer 	interests[21] 	12236
scalar tree_4_3_u05_r12_network.node[21].core_layer 	data[21] 	8618
scalar tree_4_3_u05_r12_network.node[21].content_store 	p_hit[21] 	0.29568486433475
scalar tree_4_3_u05_r12_network.node[21].content_store 	hits[21] 	3618
scalar tree_4_3_u05_r12_network.node[21].content_store 	misses[21] 	8618
scalar tree_4_3_u05_r12_network.node[21].content_store 	decision_yes[21] 	109
scalar tree_4_3_u05_r12_network.node[21].content_store 	decision_no[21] 	8509
scalar tree_4_3_u05_r12_network.node[21].content_store 	decision_ratio[21] 	0.012647946159202
scalar tree_4_3_u05_r12_network.node[22].core_layer 	interests[22] 	12478
scalar tree_4_3_u05_r12_network.node[22].core_layer 	data[22] 	8694
scalar tree_4_3_u05_r12_network.node[22].content_store 	p_hit[22] 	0.30325372655874
scalar tree_4_3_u05_r12_network.node[22].content_store 	hits[22] 	3784
scalar tree_4_3_u05_r12_network.node[22].content_store 	misses[22] 	8694
scalar tree_4_3_u05_r12_network.node[22].content_store 	decision_yes[22] 	125
scalar tree_4_3_u05_r12_network.node[22].content_store 	decision_no[22] 	8569
scalar tree_4_3_u05_r12_network.node[22].content_store 	decision_ratio[22] 	0.014377731769036
scalar tree_4_3_u05_r12_network.node[23].core_layer 	interests[23] 	12828
scalar tree_4_3_u05_r12_network.node[23].core_layer 	data[23] 	8745
scalar tree_4_3_u05_r12_network.node[23].content_store 	p_hit[23] 	0.31828811973807
scalar tree_4_3_u05_r12_network.node[23].content_store 	hits[23] 	4083
scalar tree_4_3_u05_r12_network.node[23].content_store 	misses[23] 	8745
scalar tree_4_3_u05_r12_network.node[23].content_store 	decision_yes[23] 	96
scalar tree_4_3_u05_r12_network.node[23].content_store 	decision_no[23] 	8649
scalar tree_4_3_u05_r12_network.node[23].content_store 	decision_ratio[23] 	0.010977701543739
scalar tree_4_3_u05_r12_network.node[24].core_layer 	interests[24] 	12561
scalar tree_4_3_u05_r12_network.node[24].core_layer 	data[24] 	8819
scalar tree_4_3_u05_r12_network.node[24].content_store 	p_hit[24] 	0.29798582915373
scalar tree_4_3_u05_r12_network.node[24].content_store 	hits[24] 	3743
scalar tree_4_3_u05_r12_network.node[24].content_store 	misses[24] 	8818
scalar tree_4_3_u05_r12_network.node[24].content_store 	decision_yes[24] 	107
scalar tree_4_3_u05_r12_network.node[24].content_store 	decision_no[24] 	8712
scalar tree_4_3_u05_r12_network.node[24].content_store 	decision_ratio[24] 	0.012132894886042
scalar tree_4_3_u05_r12_network.node[25].core_layer 	interests[25] 	12755
scalar tree_4_3_u05_r12_network.node[25].core_layer 	data[25] 	8673
scalar tree_4_3_u05_r12_network.node[25].content_store 	p_hit[25] 	0.32003136025088
scalar tree_4_3_u05_r12_network.node[25].content_store 	hits[25] 	4082
scalar tree_4_3_u05_r12_network.node[25].content_store 	misses[25] 	8673
scalar tree_4_3_u05_r12_network.node[25].content_store 	decision_yes[25] 	98
scalar tree_4_3_u05_r12_network.node[25].content_store 	decision_no[25] 	8575
scalar tree_4_3_u05_r12_network.node[25].content_store 	decision_ratio[25] 	0.011299435028249
scalar tree_4_3_u05_r12_network.node[26].core_layer 	interests[26] 	12560
scalar tree_4_3_u05_r12_network.node[26].core_layer 	data[26] 	8842
scalar tree_4_3_u05_r12_network.node[26].content_store 	p_hit[26] 	0.29601910828025
scalar tree_4_3_u05_r12_network.node[26].content_store 	hits[26] 	3718
scalar tree_4_3_u05_r12_network.node[26].content_store 	misses[26] 	8842
scalar tree_4_3_u05_r12_network.node[26].content_store 	decision_yes[26] 	114
scalar tree_4_3_u05_r12_network.node[26].content_store 	decision_no[26] 	8728
scalar tree_4_3_u05_r12_network.node[26].content_store 	decision_ratio[26] 	0.012893010631079
scalar tree_4_3_u05_r12_network.node[27].core_layer 	interests[27] 	12876
scalar tree_4_3_u05_r12_network.node[27].core_layer 	data[27] 	8734
scalar tree_4_3_u05_r12_network.node[27].content_store 	p_hit[27] 	0.32168375271824
scalar tree_4_3_u05_r12_network.node[27].content_store 	hits[27] 	4142
scalar tree_4_3_u05_r12_network.node[27].content_store 	misses[27] 	8734
scalar tree_4_3_u05_r12_network.node[27].content_store 	decision_yes[27] 	97
scalar tree_4_3_u05_r12_network.node[27].content_store 	decision_no[27] 	8637
scalar tree_4_3_u05_r12_network.node[27].content_store 	decision_ratio[27] 	0.011106022441035
scalar tree_4_3_u05_r12_network.node[28].core_layer 	interests[28] 	12539
scalar tree_4_3_u05_r12_network.node[28].core_layer 	data[28] 	8862
scalar tree_4_3_u05_r12_network.node[28].content_store 	p_hit[28] 	0.29324507536486
scalar tree_4_3_u05_r12_network.node[28].content_store 	hits[28] 	3677
scalar tree_4_3_u05_r12_network.node[28].content_store 	misses[28] 	8862
scalar tree_4_3_u05_r12_network.node[28].content_store 	decision_yes[28] 	118
scalar tree_4_3_u05_r12_network.node[28].content_store 	decision_no[28] 	8744
scalar tree_4_3_u05_r12_network.node[28].content_store 	decision_ratio[28] 	0.013315278718122
scalar tree_4_3_u05_r12_network.node[29].core_layer 	interests[29] 	12749
scalar tree_4_3_u05_r12_network.node[29].core_layer 	data[29] 	8686
scalar tree_4_3_u05_r12_network.node[29].content_store 	p_hit[29] 	0.31861322456663
scalar tree_4_3_u05_r12_network.node[29].content_store 	hits[29] 	4062
scalar tree_4_3_u05_r12_network.node[29].content_store 	misses[29] 	8687
scalar tree_4_3_u05_r12_network.node[29].content_store 	decision_yes[29] 	113
scalar tree_4_3_u05_r12_network.node[29].content_store 	decision_no[29] 	8573
scalar tree_4_3_u05_r12_network.node[29].content_store 	decision_ratio[29] 	0.013009440478932
scalar tree_4_3_u05_r12_network.node[30].core_layer 	interests[30] 	12315
scalar tree_4_3_u05_r12_network.node[30].core_layer 	data[30] 	8752
scalar tree_4_3_u05_r12_network.node[30].content_store 	p_hit[30] 	0.28932196508323
scalar tree_4_3_u05_r12_network.node[30].content_store 	hits[30] 	3563
scalar tree_4_3_u05_r12_network.node[30].content_store 	misses[30] 	8752
scalar tree_4_3_u05_r12_network.node[30].content_store 	decision_yes[30] 	111
scalar tree_4_3_u05_r12_network.node[30].content_store 	decision_no[30] 	8641
scalar tree_4_3_u05_r12_network.node[30].content_store 	decision_ratio[30] 	0.01268281535649
scalar tree_4_3_u05_r12_network.node[31].core_layer 	interests[31] 	12738
scalar tree_4_3_u05_r12_network.node[31].core_layer 	data[31] 	8930
scalar tree_4_3_u05_r12_network.node[31].content_store 	p_hit[31] 	0.29894802951798
scalar tree_4_3_u05_r12_network.node[31].content_store 	hits[31] 	3808
scalar tree_4_3_u05_r12_network.node[31].content_store 	misses[31] 	8930
scalar tree_4_3_u05_r12_network.node[31].content_store 	decision_yes[31] 	110
scalar tree_4_3_u05_r12_network.node[31].content_store 	decision_no[31] 	8820
scalar tree_4_3_u05_r12_network.node[31].content_store 	decision_ratio[31] 	0.012318029115342
scalar tree_4_3_u05_r12_network.node[32].core_layer 	interests[32] 	12401
scalar tree_4_3_u05_r12_network.node[32].core_layer 	data[32] 	8697
scalar tree_4_3_u05_r12_network.node[32].content_store 	p_hit[32] 	0.29868558987178
scalar tree_4_3_u05_r12_network.node[32].content_store 	hits[32] 	3704
scalar tree_4_3_u05_r12_network.node[32].content_store 	misses[32] 	8697
scalar tree_4_3_u05_r12_network.node[32].content_store 	decision_yes[32] 	111
scalar tree_4_3_u05_r12_network.node[32].content_store 	decision_no[32] 	8586
scalar tree_4_3_u05_r12_network.node[32].content_store 	decision_ratio[32] 	0.012763021731632
scalar tree_4_3_u05_r12_network.node[33].core_layer 	interests[33] 	12648
scalar tree_4_3_u05_r12_network.node[33].core_layer 	data[33] 	8946
scalar tree_4_3_u05_r12_network.node[33].content_store 	p_hit[33] 	0.2926944971537
scalar tree_4_3_u05_r12_network.node[33].content_store 	hits[33] 	3702
scalar tree_4_3_u05_r12_network.node[33].content_store 	misses[33] 	8946
scalar tree_4_3_u05_r12_network.node[33].content_store 	decision_yes[33] 	114
scalar tree_4_3_u05_r12_network.node[33].content_store 	decision_no[33] 	8832
scalar tree_4_3_u05_r12_network.node[33].content_store 	decision_ratio[33] 	0.012743125419182
scalar tree_4_3_u05_r12_network.node[34].core_layer 	interests[34] 	13398
scalar tree_4_3_u05_r12_network.node[34].core_layer 	data[34] 	9133
scalar tree_4_3_u05_r12_network.node[34].content_store 	p_hit[34] 	0.31833109419316
scalar tree_4_3_u05_r12_network.node[34].content_store 	hits[34] 	4265
scalar tree_4_3_u05_r12_network.node[34].content_store 	misses[34] 	9133
scalar tree_4_3_u05_r12_network.node[34].content_store 	decision_yes[34] 	114
scalar tree_4_3_u05_r12_network.node[34].content_store 	decision_no[34] 	9019
scalar tree_4_3_u05_r12_network.node[34].content_store 	decision_ratio[34] 	0.012482207379831
scalar tree_4_3_u05_r12_network.node[35].core_layer 	interests[35] 	12341
scalar tree_4_3_u05_r12_network.node[35].core_layer 	data[35] 	8575
scalar tree_4_3_u05_r12_network.node[35].content_store 	p_hit[35] 	0.30516165626773
scalar tree_4_3_u05_r12_network.node[35].content_store 	hits[35] 	3766
scalar tree_4_3_u05_r12_network.node[35].content_store 	misses[35] 	8575
scalar tree_4_3_u05_r12_network.node[35].content_store 	decision_yes[35] 	91
scalar tree_4_3_u05_r12_network.node[35].content_store 	decision_no[35] 	8484
scalar tree_4_3_u05_r12_network.node[35].content_store 	decision_ratio[35] 	0.010612244897959
scalar tree_4_3_u05_r12_network.node[36].core_layer 	interests[36] 	12389
scalar tree_4_3_u05_r12_network.node[36].core_layer 	data[36] 	8728
scalar tree_4_3_u05_r12_network.node[36].content_store 	p_hit[36] 	0.29550407619663
scalar tree_4_3_u05_r12_network.node[36].content_store 	hits[36] 	3661
scalar tree_4_3_u05_r12_network.node[36].content_store 	misses[36] 	8728
scalar tree_4_3_u05_r12_network.node[36].content_store 	decision_yes[36] 	106
scalar tree_4_3_u05_r12_network.node[36].content_store 	decision_no[36] 	8622
scalar tree_4_3_u05_r12_network.node[36].content_store 	decision_ratio[36] 	0.012144821264895
scalar tree_4_3_u05_r12_network.node[37].core_layer 	interests[37] 	13185
scalar tree_4_3_u05_r12_network.node[37].core_layer 	data[37] 	8980
scalar tree_4_3_u05_r12_network.node[37].content_store 	p_hit[37] 	0.31892301858172
scalar tree_4_3_u05_r12_network.node[37].content_store 	hits[37] 	4205
scalar tree_4_3_u05_r12_network.node[37].content_store 	misses[37] 	8980
scalar tree_4_3_u05_r12_network.node[37].content_store 	decision_yes[37] 	100
scalar tree_4_3_u05_r12_network.node[37].content_store 	decision_no[37] 	8880
scalar tree_4_3_u05_r12_network.node[37].content_store 	decision_ratio[37] 	0.011135857461024
scalar tree_4_3_u05_r12_network.node[38].core_layer 	interests[38] 	12169
scalar tree_4_3_u05_r12_network.node[38].core_layer 	data[38] 	8540
scalar tree_4_3_u05_r12_network.node[38].content_store 	p_hit[38] 	0.2982167803435
scalar tree_4_3_u05_r12_network.node[38].content_store 	hits[38] 	3629
scalar tree_4_3_u05_r12_network.node[38].content_store 	misses[38] 	8540
scalar tree_4_3_u05_r12_network.node[38].content_store 	decision_yes[38] 	92
scalar tree_4_3_u05_r12_network.node[38].content_store 	decision_no[38] 	8448
scalar tree_4_3_u05_r12_network.node[38].content_store 	decision_ratio[38] 	0.010772833723653
scalar tree_4_3_u05_r12_network.node[39].core_layer 	interests[39] 	12113
scalar tree_4_3_u05_r12_network.node[39].core_layer 	data[39] 	8659
scalar tree_4_3_u05_r12_network.node[39].content_store 	p_hit[39] 	0.2851481878973
scalar tree_4_3_u05_r12_network.node[39].content_store 	hits[39] 	3454
scalar tree_4_3_u05_r12_network.node[39].content_store 	misses[39] 	8659
scalar tree_4_3_u05_r12_network.node[39].content_store 	decision_yes[39] 	119
scalar tree_4_3_u05_r12_network.node[39].content_store 	decision_no[39] 	8540
scalar tree_4_3_u05_r12_network.node[39].content_store 	decision_ratio[39] 	0.013742926434923
scalar tree_4_3_u05_r12_network.client[13] 	hdistance[13] 	2.6950336910407
scalar tree_4_3_u05_r12_network.client[13] 	downloads[13] 	12021
scalar tree_4_3_u05_r12_network.client[13] 	avg_time[13] 	0.004181917983
scalar tree_4_3_u05_r12_network.client[14] 	hdistance[14] 	2.5854982875282
scalar tree_4_3_u05_r12_network.client[14] 	downloads[14] 	11971
scalar tree_4_3_u05_r12_network.client[14] 	avg_time[14] 	0.004053292479
scalar tree_4_3_u05_r12_network.client[15] 	hdistance[15] 	2.7098879036306
scalar tree_4_3_u05_r12_network.client[15] 	downloads[15] 	11954
scalar tree_4_3_u05_r12_network.client[15] 	avg_time[15] 	0.004210470505
scalar tree_4_3_u05_r12_network.client[16] 	hdistance[16] 	2.5982062042294
scalar tree_4_3_u05_r12_network.client[16] 	downloads[16] 	12153
scalar tree_4_3_u05_r12_network.client[16] 	avg_time[16] 	0.004065988903
scalar tree_4_3_u05_r12_network.client[17] 	hdistance[17] 	2.6131109643329
scalar tree_4_3_u05_r12_network.client[17] 	downloads[17] 	12112
scalar tree_4_3_u05_r12_network.client[17] 	avg_time[17] 	0.004108484422
scalar tree_4_3_u05_r12_network.client[18] 	hdistance[18] 	2.6174072224996
scalar tree_4_3_u05_r12_network.client[18] 	downloads[18] 	12018
scalar tree_4_3_u05_r12_network.client[18] 	avg_time[18] 	0.004120649362
scalar tree_4_3_u05_r12_network.client[19] 	hdistance[19] 	2.6643403123962
scalar tree_4_3_u05_r12_network.client[19] 	downloads[19] 	12036
scalar tree_4_3_u05_r12_network.client[19] 	avg_time[19] 	0.004141140152
scalar tree_4_3_u05_r12_network.client[20] 	hdistance[20] 	2.5676470588235
scalar tree_4_3_u05_r12_network.client[20] 	downloads[20] 	11900
scalar tree_4_3_u05_r12_network.client[20] 	avg_time[20] 	0.004032097851
scalar tree_4_3_u05_r12_network.client[21] 	hdistance[21] 	2.6642917015926
scalar tree_4_3_u05_r12_network.client[21] 	downloads[21] 	11930
scalar tree_4_3_u05_r12_network.client[21] 	avg_time[21] 	0.004142830232
scalar tree_4_3_u05_r12_network.client[22] 	hdistance[22] 	2.6579233146772
scalar tree_4_3_u05_r12_network.client[22] 	downloads[22] 	11971
scalar tree_4_3_u05_r12_network.client[22] 	avg_time[22] 	0.004167067467
scalar tree_4_3_u05_r12_network.client[23] 	hdistance[23] 	2.5972292191436
scalar tree_4_3_u05_r12_network.client[23] 	downloads[23] 	11910
scalar tree_4_3_u05_r12_network.client[23] 	avg_time[23] 	0.004057705779
scalar tree_4_3_u05_r12_network.client[24] 	hdistance[24] 	2.6582226256292
scalar tree_4_3_u05_r12_network.client[24] 	downloads[24] 	12119
scalar tree_4_3_u05_r12_network.client[24] 	avg_time[24] 	0.004170143018
scalar tree_4_3_u05_r12_network.client[25] 	hdistance[25] 	2.6169330965068
scalar tree_4_3_u05_r12_network.client[25] 	downloads[25] 	11823
scalar tree_4_3_u05_r12_network.client[25] 	avg_time[25] 	0.004076119881
scalar tree_4_3_u05_r12_network.client[26] 	hdistance[26] 	2.6387027384793
scalar tree_4_3_u05_r12_network.client[26] 	downloads[26] 	12087
scalar tree_4_3_u05_r12_network.client[26] 	avg_time[26] 	0.004145495635
scalar tree_4_3_u05_r12_network.client[27] 	hdistance[27] 	2.5779585674746
scalar tree_4_3_u05_r12_network.client[27] 	downloads[27] 	11923
scalar tree_4_3_u05_r12_network.client[27] 	avg_time[27] 	0.00403690047
scalar tree_4_3_u05_r12_network.client[28] 	hdistance[28] 	2.647395487724
scalar tree_4_3_u05_r12_network.client[28] 	downloads[28] 	12056
scalar tree_4_3_u05_r12_network.client[28] 	avg_time[28] 	0.004166175764
scalar tree_4_3_u05_r12_network.client[29] 	hdistance[29] 	2.5998299319728
scalar tree_4_3_u05_r12_network.client[29] 	downloads[29] 	11760
scalar tree_4_3_u05_r12_network.client[29] 	avg_time[29] 	0.004072671873
scalar tree_4_3_u05_r12_network.client[30] 	hdistance[30] 	2.6677354033075
scalar tree_4_3_u05_r12_network.client[30] 	downloads[30] 	11852
scalar tree_4_3_u05_r12_network.client[30] 	avg_time[30] 	0.004200636903
scalar tree_4_3_u05_r12_network.client[31] 	hdistance[31] 	2.6499795501023
scalar tree_4_3_u05_r12_network.client[31] 	downloads[31] 	12225
scalar tree_4_3_u05_r12_network.client[31] 	avg_time[31] 	0.004131367048
scalar tree_4_3_u05_r12_network.client[32] 	hdistance[32] 	2.6640446587161
scalar tree_4_3_u05_r12_network.client[32] 	downloads[32] 	11823
scalar tree_4_3_u05_r12_network.client[32] 	avg_time[32] 	0.004154780126
scalar tree_4_3_u05_r12_network.client[33] 	hdistance[33] 	2.6951098628779
scalar tree_4_3_u05_r12_network.client[33] 	downloads[33] 	12106
scalar tree_4_3_u05_r12_network.client[33] 	avg_time[33] 	0.004192793939
scalar tree_4_3_u05_r12_network.client[34] 	hdistance[34] 	2.6292052058607
scalar tree_4_3_u05_r12_network.client[34] 	downloads[34] 	12217
scalar tree_4_3_u05_r12_network.client[34] 	avg_time[34] 	0.00412441372
scalar tree_4_3_u05_r12_network.client[35] 	hdistance[35] 	2.6351913124629
scalar tree_4_3_u05_r12_network.client[35] 	downloads[35] 	11787
scalar tree_4_3_u05_r12_network.client[35] 	avg_time[35] 	0.004151010887
scalar tree_4_3_u05_r12_network.client[36] 	hdistance[36] 	2.6482038429407
scalar tree_4_3_u05_r12_network.client[36] 	downloads[36] 	11970
scalar tree_4_3_u05_r12_network.client[36] 	avg_time[36] 	0.004166413058
scalar tree_4_3_u05_r12_network.client[37] 	hdistance[37] 	2.6505358615004
scalar tree_4_3_u05_r12_network.client[37] 	downloads[37] 	12130
scalar tree_4_3_u05_r12_network.client[37] 	avg_time[37] 	0.00410650974
scalar tree_4_3_u05_r12_network.client[38] 	hdistance[38] 	2.6475893459204
scalar tree_4_3_u05_r12_network.client[38] 	downloads[38] 	11864
scalar tree_4_3_u05_r12_network.client[38] 	avg_time[38] 	0.004133341551
scalar tree_4_3_u05_r12_network.client[39] 	hdistance[39] 	2.6935798490374
scalar tree_4_3_u05_r12_network.client[39] 	downloads[39] 	11791
scalar tree_4_3_u05_r12_network.client[39] 	avg_time[39] 	0.004209814674
