version 2
run General-351-20160901-06:03:35-8710
attr a 0.9
attr cd ffc
attr configname General
attr cr lru
attr datetime 20160901-06:03:35
attr experiment General
attr fsize 1
attr inifile hw5115/scenario_Y/omnetp.ini
attr iterationvars "$name=tree_4_3, $un=05, $rep=18, $cd=ffc, $cr=lru, $fsize=1, $a=0.9, $sl=nrr, $ttl=1000, $variance=0.05"
attr iterationvars2 "$name=tree_4_3, $un=05, $rep=18, $cd=ffc, $cr=lru, $fsize=1, $a=0.9, $sl=nrr, $ttl=1000, $variance=0.05, $repetition=0"
attr measurement "$name=tree_4_3, $un=05, $rep=18, $cd=ffc, $cr=lru, $fsize=1, $a=0.9, $sl=nrr, $ttl=1000, $variance=0.05"
attr name tree_4_3
attr network networks.${name}_u${un}_r${rep}_network
attr processid 8710
attr rep 18
attr repetition 0
attr replication #0
attr resultdir results
attr runnumber 351
attr seedset 18
attr sl nrr
attr ttl 1000
attr un 05
attr variance 0.05

scalar . 	a 	0.9
scalar . 	fsize 	1
scalar . 	rep 	18
scalar . 	ttl 	1000
scalar . 	un 	05
scalar . 	variance 	0.05
scalar tree_4_3_u05_r18_network.content_distribution 	repo-0 	0
scalar tree_4_3_u05_r18_network.content_distribution 	client-0 	13
scalar tree_4_3_u05_r18_network.content_distribution 	client-1 	14
scalar tree_4_3_u05_r18_network.content_distribution 	client-2 	15
scalar tree_4_3_u05_r18_network.content_distribution 	client-3 	16
scalar tree_4_3_u05_r18_network.content_distribution 	client-4 	17
scalar tree_4_3_u05_r18_network.content_distribution 	client-5 	18
scalar tree_4_3_u05_r18_network.content_distribution 	client-6 	19
scalar tree_4_3_u05_r18_network.content_distribution 	client-7 	20
scalar tree_4_3_u05_r18_network.content_distribution 	client-8 	21
scalar tree_4_3_u05_r18_network.content_distribution 	client-9 	22
scalar tree_4_3_u05_r18_network.content_distribution 	client-10 	23
scalar tree_4_3_u05_r18_network.content_distribution 	client-11 	24
scalar tree_4_3_u05_r18_network.content_distribution 	client-12 	25
scalar tree_4_3_u05_r18_network.content_distribution 	client-13 	26
scalar tree_4_3_u05_r18_network.content_distribution 	client-14 	27
scalar tree_4_3_u05_r18_network.content_distribution 	client-15 	28
scalar tree_4_3_u05_r18_network.content_distribution 	client-16 	29
scalar tree_4_3_u05_r18_network.content_distribution 	client-17 	30
scalar tree_4_3_u05_r18_network.content_distribution 	client-18 	31
scalar tree_4_3_u05_r18_network.content_distribution 	client-19 	32
scalar tree_4_3_u05_r18_network.content_distribution 	client-20 	33
scalar tree_4_3_u05_r18_network.content_distribution 	client-21 	34
scalar tree_4_3_u05_r18_network.content_distribution 	client-22 	35
scalar tree_4_3_u05_r18_network.content_distribution 	client-23 	36
scalar tree_4_3_u05_r18_network.content_distribution 	client-24 	37
scalar tree_4_3_u05_r18_network.content_distribution 	client-25 	38
scalar tree_4_3_u05_r18_network.content_distribution 	client-26 	39
scalar tree_4_3_u05_r18_network.content_distribution 	repo-0_card 	100000
scalar tree_4_3_u05_r18_network.content_distribution 	repo-0_price 	0
scalar tree_4_3_u05_r18_network.statistics 	stabilization_time 	1141.2
scalar tree_4_3_u05_r18_network.statistics 	p_hit 	0.23368855665415
scalar tree_4_3_u05_r18_network.statistics 	interests 	24878.2
scalar tree_4_3_u05_r18_network.statistics 	data 	16779.85
scalar tree_4_3_u05_r18_network.statistics 	hdistance 	2.6372681924144
scalar tree_4_3_u05_r18_network.statistics 	avg_time 	0.00414415428
scalar tree_4_3_u05_r18_network.statistics 	downloads 	323928
scalar tree_4_3_u05_r18_network.statistics 	total_cost 	0
scalar tree_4_3_u05_r18_network.statistics 	total_replicas 	100000
scalar tree_4_3_u05_r18_network.statistics 	inner_hit 	0.43483737126769
scalar tree_4_3_u05_r18_network.node[0].core_layer 	interests[0] 	185452
scalar tree_4_3_u05_r18_network.node[0].core_layer 	repo_load[0] 	183072
scalar tree_4_3_u05_r18_network.node[0].core_layer 	data[0] 	0
scalar tree_4_3_u05_r18_network.node[0].core_layer 	repo_int[0] 	183072
scalar tree_4_3_u05_r18_network.node[0].content_store 	p_hit[0] 	0.012833509479542
scalar tree_4_3_u05_r18_network.node[0].content_store 	hits[0] 	2380
scalar tree_4_3_u05_r18_network.node[0].content_store 	misses[0] 	183072
scalar tree_4_3_u05_r18_network.node[0].content_store 	decision_yes[0] 	812
scalar tree_4_3_u05_r18_network.node[0].content_store 	decision_no[0] 	182260
scalar tree_4_3_u05_r18_network.node[0].content_store 	decision_ratio[0] 	0.0044354133892676
scalar tree_4_3_u05_r18_network.node[1].core_layer 	interests[1] 	126624
scalar tree_4_3_u05_r18_network.node[1].core_layer 	data[1] 	123793
scalar tree_4_3_u05_r18_network.node[1].content_store 	p_hit[1] 	0.022333838766742
scalar tree_4_3_u05_r18_network.node[1].content_store 	hits[1] 	2828
scalar tree_4_3_u05_r18_network.node[1].content_store 	misses[1] 	123796
scalar tree_4_3_u05_r18_network.node[1].content_store 	decision_yes[1] 	651
scalar tree_4_3_u05_r18_network.node[1].content_store 	decision_no[1] 	123141
scalar tree_4_3_u05_r18_network.node[1].content_store 	decision_ratio[1] 	0.0052588212485459
scalar tree_4_3_u05_r18_network.node[2].core_layer 	interests[2] 	65879
scalar tree_4_3_u05_r18_network.node[2].core_layer 	data[2] 	62541
scalar tree_4_3_u05_r18_network.node[2].content_store 	p_hit[2] 	0.050653470756994
scalar tree_4_3_u05_r18_network.node[2].content_store 	hits[2] 	3337
scalar tree_4_3_u05_r18_network.node[2].content_store 	misses[2] 	62542
scalar tree_4_3_u05_r18_network.node[2].content_store 	decision_yes[2] 	436
scalar tree_4_3_u05_r18_network.node[2].content_store 	decision_no[2] 	62104
scalar tree_4_3_u05_r18_network.node[2].content_store 	decision_ratio[2] 	0.0069715382155421
scalar tree_4_3_u05_r18_network.node[3].core_layer 	interests[3] 	20077
scalar tree_4_3_u05_r18_network.node[3].core_layer 	data[3] 	17170
scalar tree_4_3_u05_r18_network.node[3].content_store 	p_hit[3] 	0.14479254868755
scalar tree_4_3_u05_r18_network.node[3].content_store 	hits[3] 	2907
scalar tree_4_3_u05_r18_network.node[3].content_store 	misses[3] 	17170
scalar tree_4_3_u05_r18_network.node[3].content_store 	decision_yes[3] 	233
scalar tree_4_3_u05_r18_network.node[3].content_store 	decision_no[3] 	16937
scalar tree_4_3_u05_r18_network.node[3].content_store 	decision_ratio[3] 	0.013570180547467
scalar tree_4_3_u05_r18_network.node[4].core_layer 	interests[4] 	26753
scalar tree_4_3_u05_r18_network.node[4].core_layer 	data[4] 	24687
scalar tree_4_3_u05_r18_network.node[4].content_store 	p_hit[4] 	0.077187605128397
scalar tree_4_3_u05_r18_network.node[4].content_store 	hits[4] 	2065
scalar tree_4_3_u05_r18_network.node[4].content_store 	misses[4] 	24688
scalar tree_4_3_u05_r18_network.node[4].content_store 	decision_yes[4] 	236
scalar tree_4_3_u05_r18_network.node[4].content_store 	decision_no[4] 	24451
scalar tree_4_3_u05_r18_network.node[4].content_store 	decision_ratio[4] 	0.0095596872848058
scalar tree_4_3_u05_r18_network.node[5].core_layer 	interests[5] 	28459
scalar tree_4_3_u05_r18_network.node[5].core_layer 	data[5] 	25061
scalar tree_4_3_u05_r18_network.node[5].content_store 	p_hit[5] 	0.11939983836396
scalar tree_4_3_u05_r18_network.node[5].content_store 	hits[5] 	3398
scalar tree_4_3_u05_r18_network.node[5].content_store 	misses[5] 	25061
scalar tree_4_3_u05_r18_network.node[5].content_store 	decision_yes[5] 	262
scalar tree_4_3_u05_r18_network.node[5].content_store 	decision_no[5] 	24799
scalar tree_4_3_u05_r18_network.node[5].content_store 	decision_ratio[5] 	0.010454491041858
scalar tree_4_3_u05_r18_network.node[6].core_layer 	interests[6] 	30779
scalar tree_4_3_u05_r18_network.node[6].core_layer 	data[6] 	27204
scalar tree_4_3_u05_r18_network.node[6].content_store 	p_hit[6] 	0.11615062217746
scalar tree_4_3_u05_r18_network.node[6].content_store 	hits[6] 	3575
scalar tree_4_3_u05_r18_network.node[6].content_store 	misses[6] 	27204
scalar tree_4_3_u05_r18_network.node[6].content_store 	decision_yes[6] 	403
scalar tree_4_3_u05_r18_network.node[6].content_store 	decision_no[6] 	26801
scalar tree_4_3_u05_r18_network.node[6].content_store 	decision_ratio[6] 	0.014813997941479
scalar tree_4_3_u05_r18_network.node[7].core_layer 	interests[7] 	28535
scalar tree_4_3_u05_r18_network.node[7].core_layer 	data[7] 	25161
scalar tree_4_3_u05_r18_network.node[7].content_store 	p_hit[7] 	0.11820571228316
scalar tree_4_3_u05_r18_network.node[7].content_store 	hits[7] 	3373
scalar tree_4_3_u05_r18_network.node[7].content_store 	misses[7] 	25162
scalar tree_4_3_u05_r18_network.node[7].content_store 	decision_yes[7] 	270
scalar tree_4_3_u05_r18_network.node[7].content_store 	decision_no[7] 	24891
scalar tree_4_3_u05_r18_network.node[7].content_store 	decision_ratio[7] 	0.010730893048766
scalar tree_4_3_u05_r18_network.node[8].core_layer 	interests[8] 	27694
scalar tree_4_3_u05_r18_network.node[8].core_layer 	data[8] 	25549
scalar tree_4_3_u05_r18_network.node[8].content_store 	p_hit[8] 	0.077453600057774
scalar tree_4_3_u05_r18_network.node[8].content_store 	hits[8] 	2145
scalar tree_4_3_u05_r18_network.node[8].content_store 	misses[8] 	25549
scalar tree_4_3_u05_r18_network.node[8].content_store 	decision_yes[8] 	270
scalar tree_4_3_u05_r18_network.node[8].content_store 	decision_no[8] 	25278
scalar tree_4_3_u05_r18_network.node[8].content_store 	decision_ratio[8] 	0.010568341944575
scalar tree_4_3_u05_r18_network.node[9].core_layer 	interests[9] 	28248
scalar tree_4_3_u05_r18_network.node[9].core_layer 	data[9] 	25616
scalar tree_4_3_u05_r18_network.node[9].content_store 	p_hit[9] 	0.093174738034551
scalar tree_4_3_u05_r18_network.node[9].content_store 	hits[9] 	2632
scalar tree_4_3_u05_r18_network.node[9].content_store 	misses[9] 	25616
scalar tree_4_3_u05_r18_network.node[9].content_store 	decision_yes[9] 	295
scalar tree_4_3_u05_r18_network.node[9].content_store 	decision_no[9] 	25321
scalar tree_4_3_u05_r18_network.node[9].content_store 	decision_ratio[9] 	0.011516239850094
scalar tree_4_3_u05_r18_network.node[10].core_layer 	interests[10] 	44726
scalar tree_4_3_u05_r18_network.node[10].core_layer 	data[10] 	41460
scalar tree_4_3_u05_r18_network.node[10].content_store 	p_hit[10] 	0.072977686356929
scalar tree_4_3_u05_r18_network.node[10].content_store 	hits[10] 	3264
scalar tree_4_3_u05_r18_network.node[10].content_store 	misses[10] 	41462
scalar tree_4_3_u05_r18_network.node[10].content_store 	decision_yes[10] 	420
scalar tree_4_3_u05_r18_network.node[10].content_store 	decision_no[10] 	41040
scalar tree_4_3_u05_r18_network.node[10].content_store 	decision_ratio[10] 	0.01013024602026
scalar tree_4_3_u05_r18_network.node[11].core_layer 	interests[11] 	21276
scalar tree_4_3_u05_r18_network.node[11].core_layer 	data[11] 	17804
scalar tree_4_3_u05_r18_network.node[11].content_store 	p_hit[11] 	0.16318856927994
scalar tree_4_3_u05_r18_network.node[11].content_store 	hits[11] 	3472
scalar tree_4_3_u05_r18_network.node[11].content_store 	misses[11] 	17804
scalar tree_4_3_u05_r18_network.node[11].content_store 	decision_yes[11] 	249
scalar tree_4_3_u05_r18_network.node[11].content_store 	decision_no[11] 	17555
scalar tree_4_3_u05_r18_network.node[11].content_store 	decision_ratio[11] 	0.013985621208717
scalar tree_4_3_u05_r18_network.node[12].core_layer 	interests[12] 	19440
scalar tree_4_3_u05_r18_network.node[12].core_layer 	data[12] 	17292
scalar tree_4_3_u05_r18_network.node[12].content_store 	p_hit[12] 	0.11049382716049
scalar tree_4_3_u05_r18_network.node[12].content_store 	hits[12] 	2148
scalar tree_4_3_u05_r18_network.node[12].content_store 	misses[12] 	17292
scalar tree_4_3_u05_r18_network.node[12].content_store 	decision_yes[12] 	220
scalar tree_4_3_u05_r18_network.node[12].content_store 	decision_no[12] 	17072
scalar tree_4_3_u05_r18_network.node[12].content_store 	decision_ratio[12] 	0.012722646310433
scalar tree_4_3_u05_r18_network.node[13].core_layer 	interests[13] 	12419
scalar tree_4_3_u05_r18_network.node[13].core_layer 	data[13] 	8760
scalar tree_4_3_u05_r18_network.node[13].content_store 	p_hit[13] 	0.29462919719784
scalar tree_4_3_u05_r18_network.node[13].content_store 	hits[13] 	3659
scalar tree_4_3_u05_r18_network.node[13].content_store 	misses[13] 	8760
scalar tree_4_3_u05_r18_network.node[13].content_store 	decision_yes[13] 	101
scalar tree_4_3_u05_r18_network.node[13].content_store 	decision_no[13] 	8659
scalar tree_4_3_u05_r18_network.node[13].content_store 	decision_ratio[13] 	0.011529680365297
scalar tree_4_3_u05_r18_network.node[14].core_layer 	interests[14] 	12310
scalar tree_4_3_u05_r18_network.node[14].core_layer 	data[14] 	8728
scalar tree_4_3_u05_r18_network.node[14].content_store 	p_hit[14] 	0.29098294069862
scalar tree_4_3_u05_r18_network.node[14].content_store 	hits[14] 	3582
scalar tree_4_3_u05_r18_network.node[14].content_store 	misses[14] 	8728
scalar tree_4_3_u05_r18_network.node[14].content_store 	decision_yes[14] 	117
scalar tree_4_3_u05_r18_network.node[14].content_store 	decision_no[14] 	8611
scalar tree_4_3_u05_r18_network.node[14].content_store 	decision_ratio[14] 	0.013405132905591
scalar tree_4_3_u05_r18_network.node[15].core_layer 	interests[15] 	13091
scalar tree_4_3_u05_r18_network.node[15].core_layer 	data[15] 	8832
scalar tree_4_3_u05_r18_network.node[15].content_store 	p_hit[15] 	0.32533801848598
scalar tree_4_3_u05_r18_network.node[15].content_store 	hits[15] 	4259
scalar tree_4_3_u05_r18_network.node[15].content_store 	misses[15] 	8832
scalar tree_4_3_u05_r18_network.node[15].content_store 	decision_yes[15] 	115
scalar tree_4_3_u05_r18_network.node[15].content_store 	decision_no[15] 	8717
scalar tree_4_3_u05_r18_network.node[15].content_store 	decision_ratio[15] 	0.013020833333333
scalar tree_4_3_u05_r18_network.node[16].core_layer 	interests[16] 	12417
scalar tree_4_3_u05_r18_network.node[16].core_layer 	data[16] 	8792
scalar tree_4_3_u05_r18_network.node[16].content_store 	p_hit[16] 	0.29193847145043
scalar tree_4_3_u05_r18_network.node[16].content_store 	hits[16] 	3625
scalar tree_4_3_u05_r18_network.node[16].content_store 	misses[16] 	8792
scalar tree_4_3_u05_r18_network.node[16].content_store 	decision_yes[16] 	99
scalar tree_4_3_u05_r18_network.node[16].content_store 	decision_no[16] 	8693
scalar tree_4_3_u05_r18_network.node[16].content_store 	decision_ratio[16] 	0.011260236578708
scalar tree_4_3_u05_r18_network.node[17].core_layer 	interests[17] 	12372
scalar tree_4_3_u05_r18_network.node[17].core_layer 	data[17] 	8790
scalar tree_4_3_u05_r18_network.node[17].content_store 	p_hit[17] 	0.28952473326867
scalar tree_4_3_u05_r18_network.node[17].content_store 	hits[17] 	3582
scalar tree_4_3_u05_r18_network.node[17].content_store 	misses[17] 	8790
scalar tree_4_3_u05_r18_network.node[17].content_store 	decision_yes[17] 	124
scalar tree_4_3_u05_r18_network.node[17].content_store 	decision_no[17] 	8666
scalar tree_4_3_u05_r18_network.node[17].content_store 	decision_ratio[17] 	0.014106939704209
scalar tree_4_3_u05_r18_network.node[18].core_layer 	interests[18] 	13279
scalar tree_4_3_u05_r18_network.node[18].core_layer 	data[18] 	8934
scalar tree_4_3_u05_r18_network.node[18].content_store 	p_hit[18] 	0.32720837412456
scalar tree_4_3_u05_r18_network.node[18].content_store 	hits[18] 	4345
scalar tree_4_3_u05_r18_network.node[18].content_store 	misses[18] 	8934
scalar tree_4_3_u05_r18_network.node[18].content_store 	decision_yes[18] 	108
scalar tree_4_3_u05_r18_network.node[18].content_store 	decision_no[18] 	8826
scalar tree_4_3_u05_r18_network.node[18].content_store 	decision_ratio[18] 	0.012088650100739
scalar tree_4_3_u05_r18_network.node[19].core_layer 	interests[19] 	12659
scalar tree_4_3_u05_r18_network.node[19].core_layer 	data[19] 	8782
scalar tree_4_3_u05_r18_network.node[19].content_store 	p_hit[19] 	0.30626431787661
scalar tree_4_3_u05_r18_network.node[19].content_store 	hits[19] 	3877
scalar tree_4_3_u05_r18_network.node[19].content_store 	misses[19] 	8782
scalar tree_4_3_u05_r18_network.node[19].content_store 	decision_yes[19] 	135
scalar tree_4_3_u05_r18_network.node[19].content_store 	decision_no[19] 	8647
scalar tree_4_3_u05_r18_network.node[19].content_store 	decision_ratio[19] 	0.015372352539285
scalar tree_4_3_u05_r18_network.node[20].core_layer 	interests[20] 	12643
scalar tree_4_3_u05_r18_network.node[20].core_layer 	data[20] 	8874
scalar tree_4_3_u05_r18_network.node[20].content_store 	p_hit[20] 	0.29810962587993
scalar tree_4_3_u05_r18_network.node[20].content_store 	hits[20] 	3769
scalar tree_4_3_u05_r18_network.node[20].content_store 	misses[20] 	8874
scalar tree_4_3_u05_r18_network.node[20].content_store 	decision_yes[20] 	111
scalar tree_4_3_u05_r18_network.node[20].content_store 	decision_no[20] 	8763
scalar tree_4_3_u05_r18_network.node[20].content_store 	decision_ratio[20] 	0.012508451656525
scalar tree_4_3_u05_r18_network.node[21].core_layer 	interests[21] 	12752
scalar tree_4_3_u05_r18_network.node[21].core_layer 	data[21] 	8963
scalar tree_4_3_u05_r18_network.node[21].content_store 	p_hit[21] 	0.29712986198243
scalar tree_4_3_u05_r18_network.node[21].content_store 	hits[21] 	3789
scalar tree_4_3_u05_r18_network.node[21].content_store 	misses[21] 	8963
scalar tree_4_3_u05_r18_network.node[21].content_store 	decision_yes[21] 	95
scalar tree_4_3_u05_r18_network.node[21].content_store 	decision_no[21] 	8868
scalar tree_4_3_u05_r18_network.node[21].content_store 	decision_ratio[21] 	0.010599129755662
scalar tree_4_3_u05_r18_network.node[22].core_layer 	interests[22] 	12358
scalar tree_4_3_u05_r18_network.node[22].core_layer 	data[22] 	8706
scalar tree_4_3_u05_r18_network.node[22].content_store 	p_hit[22] 	0.29543615471759
scalar tree_4_3_u05_r18_network.node[22].content_store 	hits[22] 	3651
scalar tree_4_3_u05_r18_network.node[22].content_store 	misses[22] 	8707
scalar tree_4_3_u05_r18_network.node[22].content_store 	decision_yes[22] 	94
scalar tree_4_3_u05_r18_network.node[22].content_store 	decision_no[22] 	8612
scalar tree_4_3_u05_r18_network.node[22].content_store 	decision_ratio[22] 	0.010797151389846
scalar tree_4_3_u05_r18_network.node[23].core_layer 	interests[23] 	12561
scalar tree_4_3_u05_r18_network.node[23].core_layer 	data[23] 	8764
scalar tree_4_3_u05_r18_network.node[23].content_store 	p_hit[23] 	0.30228484993233
scalar tree_4_3_u05_r18_network.node[23].content_store 	hits[23] 	3797
scalar tree_4_3_u05_r18_network.node[23].content_store 	misses[23] 	8764
scalar tree_4_3_u05_r18_network.node[23].content_store 	decision_yes[23] 	99
scalar tree_4_3_u05_r18_network.node[23].content_store 	decision_no[23] 	8665
scalar tree_4_3_u05_r18_network.node[23].content_store 	decision_ratio[23] 	0.011296211775445
scalar tree_4_3_u05_r18_network.node[24].core_layer 	interests[24] 	13043
scalar tree_4_3_u05_r18_network.node[24].core_layer 	data[24] 	8843
scalar tree_4_3_u05_r18_network.node[24].content_store 	p_hit[24] 	0.32201180709959
scalar tree_4_3_u05_r18_network.node[24].content_store 	hits[24] 	4200
scalar tree_4_3_u05_r18_network.node[24].content_store 	misses[24] 	8843
scalar tree_4_3_u05_r18_network.node[24].content_store 	decision_yes[24] 	119
scalar tree_4_3_u05_r18_network.node[24].content_store 	decision_no[24] 	8724
scalar tree_4_3_u05_r18_network.node[24].content_store 	decision_ratio[24] 	0.013456971615967
scalar tree_4_3_u05_r18_network.node[25].core_layer 	interests[25] 	12509
scalar tree_4_3_u05_r18_network.node[25].core_layer 	data[25] 	8763
scalar tree_4_3_u05_r18_network.node[25].content_store 	p_hit[25] 	0.29946438564234
scalar tree_4_3_u05_r18_network.node[25].content_store 	hits[25] 	3746
scalar tree_4_3_u05_r18_network.node[25].content_store 	misses[25] 	8763
scalar tree_4_3_u05_r18_network.node[25].content_store 	decision_yes[25] 	94
scalar tree_4_3_u05_r18_network.node[25].content_store 	decision_no[25] 	8669
scalar tree_4_3_u05_r18_network.node[25].content_store 	decision_ratio[25] 	0.010726920004565
scalar tree_4_3_u05_r18_network.node[26].core_layer 	interests[26] 	12565
scalar tree_4_3_u05_r18_network.node[26].core_layer 	data[26] 	8858
scalar tree_4_3_u05_r18_network.node[26].content_store 	p_hit[26] 	0.29494627934739
scalar tree_4_3_u05_r18_network.node[26].content_store 	hits[26] 	3706
scalar tree_4_3_u05_r18_network.node[26].content_store 	misses[26] 	8859
scalar tree_4_3_u05_r18_network.node[26].content_store 	decision_yes[26] 	126
scalar tree_4_3_u05_r18_network.node[26].content_store 	decision_no[26] 	8732
scalar tree_4_3_u05_r18_network.node[26].content_store 	decision_ratio[26] 	0.014224429893881
scalar tree_4_3_u05_r18_network.node[27].core_layer 	interests[27] 	12402
scalar tree_4_3_u05_r18_network.node[27].core_layer 	data[27] 	8747
scalar tree_4_3_u05_r18_network.node[27].content_store 	p_hit[27] 	0.29471053055959
scalar tree_4_3_u05_r18_network.node[27].content_store 	hits[27] 	3655
scalar tree_4_3_u05_r18_network.node[27].content_store 	misses[27] 	8747
scalar tree_4_3_u05_r18_network.node[27].content_store 	decision_yes[27] 	121
scalar tree_4_3_u05_r18_network.node[27].content_store 	decision_no[27] 	8626
scalar tree_4_3_u05_r18_network.node[27].content_store 	decision_ratio[27] 	0.013833314279181
scalar tree_4_3_u05_r18_network.node[28].core_layer 	interests[28] 	12278
scalar tree_4_3_u05_r18_network.node[28].core_layer 	data[28] 	8634
scalar tree_4_3_u05_r18_network.node[28].content_store 	p_hit[28] 	0.29679100830754
scalar tree_4_3_u05_r18_network.node[28].content_store 	hits[28] 	3644
scalar tree_4_3_u05_r18_network.node[28].content_store 	misses[28] 	8634
scalar tree_4_3_u05_r18_network.node[28].content_store 	decision_yes[28] 	109
scalar tree_4_3_u05_r18_network.node[28].content_store 	decision_no[28] 	8525
scalar tree_4_3_u05_r18_network.node[28].content_store 	decision_ratio[28] 	0.012624507760019
scalar tree_4_3_u05_r18_network.node[29].core_layer 	interests[29] 	12529
scalar tree_4_3_u05_r18_network.node[29].core_layer 	data[29] 	8812
scalar tree_4_3_u05_r18_network.node[29].content_store 	p_hit[29] 	0.29667172160587
scalar tree_4_3_u05_r18_network.node[29].content_store 	hits[29] 	3717
scalar tree_4_3_u05_r18_network.node[29].content_store 	misses[29] 	8812
scalar tree_4_3_u05_r18_network.node[29].content_store 	decision_yes[29] 	125
scalar tree_4_3_u05_r18_network.node[29].content_store 	decision_no[29] 	8687
scalar tree_4_3_u05_r18_network.node[29].content_store 	decision_ratio[29] 	0.014185201997276
scalar tree_4_3_u05_r18_network.node[30].core_layer 	interests[30] 	12535
scalar tree_4_3_u05_r18_network.node[30].core_layer 	data[30] 	8779
scalar tree_4_3_u05_r18_network.node[30].content_store 	p_hit[30] 	0.29964100518548
scalar tree_4_3_u05_r18_network.node[30].content_store 	hits[30] 	3756
scalar tree_4_3_u05_r18_network.node[30].content_store 	misses[30] 	8779
scalar tree_4_3_u05_r18_network.node[30].content_store 	decision_yes[30] 	107
scalar tree_4_3_u05_r18_network.node[30].content_store 	decision_no[30] 	8672
scalar tree_4_3_u05_r18_network.node[30].content_store 	decision_ratio[30] 	0.012188176329878
scalar tree_4_3_u05_r18_network.node[31].core_layer 	interests[31] 	12647
scalar tree_4_3_u05_r18_network.node[31].core_layer 	data[31] 	8970
scalar tree_4_3_u05_r18_network.node[31].content_store 	p_hit[31] 	0.29074088716692
scalar tree_4_3_u05_r18_network.node[31].content_store 	hits[31] 	3677
scalar tree_4_3_u05_r18_network.node[31].content_store 	misses[31] 	8970
scalar tree_4_3_u05_r18_network.node[31].content_store 	decision_yes[31] 	152
scalar tree_4_3_u05_r18_network.node[31].content_store 	decision_no[31] 	8818
scalar tree_4_3_u05_r18_network.node[31].content_store 	decision_ratio[31] 	0.016945373467113
scalar tree_4_3_u05_r18_network.node[32].core_layer 	interests[32] 	13222
scalar tree_4_3_u05_r18_network.node[32].core_layer 	data[32] 	9021
scalar tree_4_3_u05_r18_network.node[32].content_store 	p_hit[32] 	0.3177280290425
scalar tree_4_3_u05_r18_network.node[32].content_store 	hits[32] 	4201
scalar tree_4_3_u05_r18_network.node[32].content_store 	misses[32] 	9021
scalar tree_4_3_u05_r18_network.node[32].content_store 	decision_yes[32] 	115
scalar tree_4_3_u05_r18_network.node[32].content_store 	decision_no[32] 	8906
scalar tree_4_3_u05_r18_network.node[32].content_store 	decision_ratio[32] 	0.012748032368917
scalar tree_4_3_u05_r18_network.node[33].core_layer 	interests[33] 	12685
scalar tree_4_3_u05_r18_network.node[33].core_layer 	data[33] 	8830
scalar tree_4_3_u05_r18_network.node[33].content_store 	p_hit[33] 	0.30390224674813
scalar tree_4_3_u05_r18_network.node[33].content_store 	hits[33] 	3855
scalar tree_4_3_u05_r18_network.node[33].content_store 	misses[33] 	8830
scalar tree_4_3_u05_r18_network.node[33].content_store 	decision_yes[33] 	127
scalar tree_4_3_u05_r18_network.node[33].content_store 	decision_no[33] 	8703
scalar tree_4_3_u05_r18_network.node[33].content_store 	decision_ratio[33] 	0.014382785956965
scalar tree_4_3_u05_r18_network.node[34].core_layer 	interests[34] 	13139
scalar tree_4_3_u05_r18_network.node[34].core_layer 	data[34] 	8805
scalar tree_4_3_u05_r18_network.node[34].content_store 	p_hit[34] 	0.32985767562219
scalar tree_4_3_u05_r18_network.node[34].content_store 	hits[34] 	4334
scalar tree_4_3_u05_r18_network.node[34].content_store 	misses[34] 	8805
scalar tree_4_3_u05_r18_network.node[34].content_store 	decision_yes[34] 	130
scalar tree_4_3_u05_r18_network.node[34].content_store 	decision_no[34] 	8675
scalar tree_4_3_u05_r18_network.node[34].content_store 	decision_ratio[34] 	0.014764338444066
scalar tree_4_3_u05_r18_network.node[35].core_layer 	interests[35] 	12252
scalar tree_4_3_u05_r18_network.node[35].core_layer 	data[35] 	8759
scalar tree_4_3_u05_r18_network.node[35].content_store 	p_hit[35] 	0.2850963108064
scalar tree_4_3_u05_r18_network.node[35].content_store 	hits[35] 	3493
scalar tree_4_3_u05_r18_network.node[35].content_store 	misses[35] 	8759
scalar tree_4_3_u05_r18_network.node[35].content_store 	decision_yes[35] 	129
scalar tree_4_3_u05_r18_network.node[35].content_store 	decision_no[35] 	8630
scalar tree_4_3_u05_r18_network.node[35].content_store 	decision_ratio[35] 	0.014727708642539
scalar tree_4_3_u05_r18_network.node[36].core_layer 	interests[36] 	12893
scalar tree_4_3_u05_r18_network.node[36].core_layer 	data[36] 	8817
scalar tree_4_3_u05_r18_network.node[36].content_store 	p_hit[36] 	0.31606297991158
scalar tree_4_3_u05_r18_network.node[36].content_store 	hits[36] 	4075
scalar tree_4_3_u05_r18_network.node[36].content_store 	misses[36] 	8818
scalar tree_4_3_u05_r18_network.node[36].content_store 	decision_yes[36] 	115
scalar tree_4_3_u05_r18_network.node[36].content_store 	decision_no[36] 	8702
scalar tree_4_3_u05_r18_network.node[36].content_store 	decision_ratio[36] 	0.013042985142339
scalar tree_4_3_u05_r18_network.node[37].core_layer 	interests[37] 	12988
scalar tree_4_3_u05_r18_network.node[37].core_layer 	data[37] 	8744
scalar tree_4_3_u05_r18_network.node[37].content_store 	p_hit[37] 	0.32676316599938
scalar tree_4_3_u05_r18_network.node[37].content_store 	hits[37] 	4244
scalar tree_4_3_u05_r18_network.node[37].content_store 	misses[37] 	8744
scalar tree_4_3_u05_r18_network.node[37].content_store 	decision_yes[37] 	119
scalar tree_4_3_u05_r18_network.node[37].content_store 	decision_no[37] 	8625
scalar tree_4_3_u05_r18_network.node[37].content_store 	decision_ratio[37] 	0.013609332113449
scalar tree_4_3_u05_r18_network.node[38].core_layer 	interests[38] 	12350
scalar tree_4_3_u05_r18_network.node[38].core_layer 	data[38] 	8820
scalar tree_4_3_u05_r18_network.node[38].content_store 	p_hit[38] 	0.28582995951417
scalar tree_4_3_u05_r18_network.node[38].content_store 	hits[38] 	3530
scalar tree_4_3_u05_r18_network.node[38].content_store 	misses[38] 	8820
scalar tree_4_3_u05_r18_network.node[38].content_store 	decision_yes[38] 	106
scalar tree_4_3_u05_r18_network.node[38].content_store 	decision_no[38] 	8714
scalar tree_4_3_u05_r18_network.node[38].content_store 	decision_ratio[38] 	0.012018140589569
scalar tree_4_3_u05_r18_network.node[39].core_layer 	interests[39] 	12288
scalar tree_4_3_u05_r18_network.node[39].core_layer 	data[39] 	8729
scalar tree_4_3_u05_r18_network.node[39].content_store 	p_hit[39] 	0.28963216145833
scalar tree_4_3_u05_r18_network.node[39].content_store 	hits[39] 	3559
scalar tree_4_3_u05_r18_network.node[39].content_store 	misses[39] 	8729
scalar tree_4_3_u05_r18_network.node[39].content_store 	decision_yes[39] 	111
scalar tree_4_3_u05_r18_network.node[39].content_store 	decision_no[39] 	8618
scalar tree_4_3_u05_r18_network.node[39].content_store 	decision_ratio[39] 	0.012716233245503
scalar tree_4_3_u05_r18_network.client[13] 	hdistance[13] 	2.6763729882197
scalar tree_4_3_u05_r18_network.client[13] 	downloads[13] 	12054
scalar tree_4_3_u05_r18_network.client[13] 	avg_time[13] 	0.004198873487
scalar tree_4_3_u05_r18_network.client[14] 	hdistance[14] 	2.6985702270816
scalar tree_4_3_u05_r18_network.client[14] 	downloads[14] 	11890
scalar tree_4_3_u05_r18_network.client[14] 	avg_time[14] 	0.004237675773
scalar tree_4_3_u05_r18_network.client[15] 	hdistance[15] 	2.603001250521
scalar tree_4_3_u05_r18_network.client[15] 	downloads[15] 	11995
scalar tree_4_3_u05_r18_network.client[15] 	avg_time[15] 	0.004075861968
scalar tree_4_3_u05_r18_network.client[16] 	hdistance[16] 	2.6507105459985
scalar tree_4_3_u05_r18_network.client[16] 	downloads[16] 	12033
scalar tree_4_3_u05_r18_network.client[16] 	avg_time[16] 	0.004181326432
scalar tree_4_3_u05_r18_network.client[17] 	hdistance[17] 	2.6604596544204
scalar tree_4_3_u05_r18_network.client[17] 	downloads[17] 	11922
scalar tree_4_3_u05_r18_network.client[17] 	avg_time[17] 	0.004213887285
scalar tree_4_3_u05_r18_network.client[18] 	hdistance[18] 	2.5695326024235
scalar tree_4_3_u05_r18_network.client[18] 	downloads[18] 	12131
scalar tree_4_3_u05_r18_network.client[18] 	avg_time[18] 	0.004043356935
scalar tree_4_3_u05_r18_network.client[19] 	hdistance[19] 	2.6069742400398
scalar tree_4_3_u05_r18_network.client[19] 	downloads[19] 	12073
scalar tree_4_3_u05_r18_network.client[19] 	avg_time[19] 	0.004101203275
scalar tree_4_3_u05_r18_network.client[20] 	hdistance[20] 	2.6339603878346
scalar tree_4_3_u05_r18_network.client[20] 	downloads[20] 	12067
scalar tree_4_3_u05_r18_network.client[20] 	avg_time[20] 	0.004143363164
scalar tree_4_3_u05_r18_network.client[21] 	hdistance[21] 	2.6398221343874
scalar tree_4_3_u05_r18_network.client[21] 	downloads[21] 	12144
scalar tree_4_3_u05_r18_network.client[21] 	avg_time[21] 	0.004152170884
scalar tree_4_3_u05_r18_network.client[22] 	hdistance[22] 	2.6314601103864
scalar tree_4_3_u05_r18_network.client[22] 	downloads[22] 	11958
scalar tree_4_3_u05_r18_network.client[22] 	avg_time[22] 	0.00415821745
scalar tree_4_3_u05_r18_network.client[23] 	hdistance[23] 	2.6227069905801
scalar tree_4_3_u05_r18_network.client[23] 	downloads[23] 	12102
scalar tree_4_3_u05_r18_network.client[23] 	avg_time[23] 	0.004145096964
scalar tree_4_3_u05_r18_network.client[24] 	hdistance[24] 	2.5979138627187
scalar tree_4_3_u05_r18_network.client[24] 	downloads[24] 	11888
scalar tree_4_3_u05_r18_network.client[24] 	avg_time[24] 	0.004090844942
scalar tree_4_3_u05_r18_network.client[25] 	hdistance[25] 	2.6735306377657
scalar tree_4_3_u05_r18_network.client[25] 	downloads[25] 	11995
scalar tree_4_3_u05_r18_network.client[25] 	avg_time[25] 	0.004189921693
scalar tree_4_3_u05_r18_network.client[26] 	hdistance[26] 	2.6860803727432
scalar tree_4_3_u05_r18_network.client[26] 	downloads[26] 	12019
scalar tree_4_3_u05_r18_network.client[26] 	avg_time[26] 	0.004208856338
scalar tree_4_3_u05_r18_network.client[27] 	hdistance[27] 	2.6762860727729
scalar tree_4_3_u05_r18_network.client[27] 	downloads[27] 	11955
scalar tree_4_3_u05_r18_network.client[27] 	avg_time[27] 	0.004195898295
scalar tree_4_3_u05_r18_network.client[28] 	hdistance[28] 	2.6439003799071
scalar tree_4_3_u05_r18_network.client[28] 	downloads[28] 	11845
scalar tree_4_3_u05_r18_network.client[28] 	avg_time[28] 	0.004138114399
scalar tree_4_3_u05_r18_network.client[29] 	hdistance[29] 	2.6622708799867
scalar tree_4_3_u05_r18_network.client[29] 	downloads[29] 	12057
scalar tree_4_3_u05_r18_network.client[29] 	avg_time[29] 	0.004161894619
scalar tree_4_3_u05_r18_network.client[30] 	hdistance[30] 	2.657109518253
scalar tree_4_3_u05_r18_network.client[30] 	downloads[30] 	11998
scalar tree_4_3_u05_r18_network.client[30] 	avg_time[30] 	0.004161357197
scalar tree_4_3_u05_r18_network.client[31] 	hdistance[31] 	2.6518087318087
scalar tree_4_3_u05_r18_network.client[31] 	downloads[31] 	12025
scalar tree_4_3_u05_r18_network.client[31] 	avg_time[31] 	0.004181452316
scalar tree_4_3_u05_r18_network.client[32] 	hdistance[32] 	2.6089117111148
scalar tree_4_3_u05_r18_network.client[32] 	downloads[32] 	12074
scalar tree_4_3_u05_r18_network.client[32] 	avg_time[32] 	0.004102034409
scalar tree_4_3_u05_r18_network.client[33] 	hdistance[33] 	2.6155189620758
scalar tree_4_3_u05_r18_network.client[33] 	downloads[33] 	12024
scalar tree_4_3_u05_r18_network.client[33] 	avg_time[33] 	0.004124747459
scalar tree_4_3_u05_r18_network.client[34] 	hdistance[34] 	2.5538615346163
scalar tree_4_3_u05_r18_network.client[34] 	downloads[34] 	12003
scalar tree_4_3_u05_r18_network.client[34] 	avg_time[34] 	0.004021128695
scalar tree_4_3_u05_r18_network.client[35] 	hdistance[35] 	2.6580726965342
scalar tree_4_3_u05_r18_network.client[35] 	downloads[35] 	11830
scalar tree_4_3_u05_r18_network.client[35] 	avg_time[35] 	0.004197122984
scalar tree_4_3_u05_r18_network.client[36] 	hdistance[36] 	2.5871826883063
scalar tree_4_3_u05_r18_network.client[36] 	downloads[36] 	12015
scalar tree_4_3_u05_r18_network.client[36] 	avg_time[36] 	0.004059605918
scalar tree_4_3_u05_r18_network.client[37] 	hdistance[37] 	2.5970149253731
scalar tree_4_3_u05_r18_network.client[37] 	downloads[37] 	11859
scalar tree_4_3_u05_r18_network.client[37] 	avg_time[37] 	0.004068130947
scalar tree_4_3_u05_r18_network.client[38] 	hdistance[38] 	2.6743606775158
scalar tree_4_3_u05_r18_network.client[38] 	downloads[38] 	12044
scalar tree_4_3_u05_r18_network.client[38] 	avg_time[38] 	0.00417369344
scalar tree_4_3_u05_r18_network.client[39] 	hdistance[39] 	2.6688464118042
scalar tree_4_3_u05_r18_network.client[39] 	downloads[39] 	11928
scalar tree_4_3_u05_r18_network.client[39] 	avg_time[39] 	0.004166328306
