version 2
run General-324-20160901-05:07:00-8710
attr a 0.9
attr cd ffc
attr configname General
attr cr lru
attr datetime 20160901-05:07:00
attr experiment General
attr fsize 1
attr inifile hw5115/scenario_Y/omnetp.ini
attr iterationvars "$name=tree_4_3, $un=05, $rep=9, $cd=ffc, $cr=lru, $fsize=1, $a=0.9, $sl=nrr, $ttl=1000, $variance=0.05"
attr iterationvars2 "$name=tree_4_3, $un=05, $rep=9, $cd=ffc, $cr=lru, $fsize=1, $a=0.9, $sl=nrr, $ttl=1000, $variance=0.05, $repetition=0"
attr measurement "$name=tree_4_3, $un=05, $rep=9, $cd=ffc, $cr=lru, $fsize=1, $a=0.9, $sl=nrr, $ttl=1000, $variance=0.05"
attr name tree_4_3
attr network networks.${name}_u${un}_r${rep}_network
attr processid 8710
attr rep 9
attr repetition 0
attr replication #0
attr resultdir results
attr runnumber 324
attr seedset 9
attr sl nrr
attr ttl 1000
attr un 05
attr variance 0.05

scalar . 	a 	0.9
scalar . 	fsize 	1
scalar . 	rep 	9
scalar . 	ttl 	1000
scalar . 	un 	05
scalar . 	variance 	0.05
scalar tree_4_3_u05_r9_network.content_distribution 	repo-0 	0
scalar tree_4_3_u05_r9_network.content_distribution 	client-0 	13
scalar tree_4_3_u05_r9_network.content_distribution 	client-1 	14
scalar tree_4_3_u05_r9_network.content_distribution 	client-2 	15
scalar tree_4_3_u05_r9_network.content_distribution 	client-3 	16
scalar tree_4_3_u05_r9_network.content_distribution 	client-4 	17
scalar tree_4_3_u05_r9_network.content_distribution 	client-5 	18
scalar tree_4_3_u05_r9_network.content_distribution 	client-6 	19
scalar tree_4_3_u05_r9_network.content_distribution 	client-7 	20
scalar tree_4_3_u05_r9_network.content_distribution 	client-8 	21
scalar tree_4_3_u05_r9_network.content_distribution 	client-9 	22
scalar tree_4_3_u05_r9_network.content_distribution 	client-10 	23
scalar tree_4_3_u05_r9_network.content_distribution 	client-11 	24
scalar tree_4_3_u05_r9_network.content_distribution 	client-12 	25
scalar tree_4_3_u05_r9_network.content_distribution 	client-13 	26
scalar tree_4_3_u05_r9_network.content_distribution 	client-14 	27
scalar tree_4_3_u05_r9_network.content_distribution 	client-15 	28
scalar tree_4_3_u05_r9_network.content_distribution 	client-16 	29
scalar tree_4_3_u05_r9_network.content_distribution 	client-17 	30
scalar tree_4_3_u05_r9_network.content_distribution 	client-18 	31
scalar tree_4_3_u05_r9_network.content_distribution 	client-19 	32
scalar tree_4_3_u05_r9_network.content_distribution 	client-20 	33
scalar tree_4_3_u05_r9_network.content_distribution 	client-21 	34
scalar tree_4_3_u05_r9_network.content_distribution 	client-22 	35
scalar tree_4_3_u05_r9_network.content_distribution 	client-23 	36
scalar tree_4_3_u05_r9_network.content_distribution 	client-24 	37
scalar tree_4_3_u05_r9_network.content_distribution 	client-25 	38
scalar tree_4_3_u05_r9_network.content_distribution 	client-26 	39
scalar tree_4_3_u05_r9_network.content_distribution 	repo-0_card 	100000
scalar tree_4_3_u05_r9_network.content_distribution 	repo-0_price 	0
scalar tree_4_3_u05_r9_network.statistics 	stabilization_time 	1079.1
scalar tree_4_3_u05_r9_network.statistics 	p_hit 	0.23202097970957
scalar tree_4_3_u05_r9_network.statistics 	interests 	24882.55
scalar tree_4_3_u05_r9_network.statistics 	data 	16776.15
scalar tree_4_3_u05_r9_network.statistics 	hdistance 	2.6385724315314
scalar tree_4_3_u05_r9_network.statistics 	avg_time 	0.004138916057
scalar tree_4_3_u05_r9_network.statistics 	downloads 	324251
scalar tree_4_3_u05_r9_network.statistics 	total_cost 	0
scalar tree_4_3_u05_r9_network.statistics 	total_replicas 	100000
scalar tree_4_3_u05_r9_network.statistics 	inner_hit 	0.43090383684245
scalar tree_4_3_u05_r9_network.node[0].core_layer 	interests[0] 	187118
scalar tree_4_3_u05_r9_network.node[0].core_layer 	repo_load[0] 	184530
scalar tree_4_3_u05_r9_network.node[0].core_layer 	data[0] 	0
scalar tree_4_3_u05_r9_network.node[0].core_layer 	repo_int[0] 	184530
scalar tree_4_3_u05_r9_network.node[0].content_store 	p_hit[0] 	0.013830844707618
scalar tree_4_3_u05_r9_network.node[0].content_store 	hits[0] 	2588
scalar tree_4_3_u05_r9_network.node[0].content_store 	misses[0] 	184530
scalar tree_4_3_u05_r9_network.node[0].content_store 	decision_yes[0] 	832
scalar tree_4_3_u05_r9_network.node[0].content_store 	decision_no[0] 	183698
scalar tree_4_3_u05_r9_network.node[0].content_store 	decision_ratio[0] 	0.0045087519644502
scalar tree_4_3_u05_r9_network.node[1].core_layer 	interests[1] 	94968
scalar tree_4_3_u05_r9_network.node[1].core_layer 	data[1] 	93112
scalar tree_4_3_u05_r9_network.node[1].content_store 	p_hit[1] 	0.019532895291045
scalar tree_4_3_u05_r9_network.node[1].content_store 	hits[1] 	1855
scalar tree_4_3_u05_r9_network.node[1].content_store 	misses[1] 	93113
scalar tree_4_3_u05_r9_network.node[1].content_store 	decision_yes[1] 	448
scalar tree_4_3_u05_r9_network.node[1].content_store 	decision_no[1] 	92664
scalar tree_4_3_u05_r9_network.node[1].content_store 	decision_ratio[1] 	0.0048114099149411
scalar tree_4_3_u05_r9_network.node[2].core_layer 	interests[2] 	40399
scalar tree_4_3_u05_r9_network.node[2].core_layer 	data[2] 	37986
scalar tree_4_3_u05_r9_network.node[2].content_store 	p_hit[2] 	0.059729201217852
scalar tree_4_3_u05_r9_network.node[2].content_store 	hits[2] 	2413
scalar tree_4_3_u05_r9_network.node[2].content_store 	misses[2] 	37986
scalar tree_4_3_u05_r9_network.node[2].content_store 	decision_yes[2] 	270
scalar tree_4_3_u05_r9_network.node[2].content_store 	decision_no[2] 	37716
scalar tree_4_3_u05_r9_network.node[2].content_store 	decision_ratio[2] 	0.0071078818512083
scalar tree_4_3_u05_r9_network.node[3].core_layer 	interests[3] 	76581
scalar tree_4_3_u05_r9_network.node[3].core_layer 	data[3] 	72972
scalar tree_4_3_u05_r9_network.node[3].content_store 	p_hit[3] 	0.047074339588148
scalar tree_4_3_u05_r9_network.node[3].content_store 	hits[3] 	3605
scalar tree_4_3_u05_r9_network.node[3].content_store 	misses[3] 	72976
scalar tree_4_3_u05_r9_network.node[3].content_store 	decision_yes[3] 	598
scalar tree_4_3_u05_r9_network.node[3].content_store 	decision_no[3] 	72374
scalar tree_4_3_u05_r9_network.node[3].content_store 	decision_ratio[3] 	0.0081949240804692
scalar tree_4_3_u05_r9_network.node[4].core_layer 	interests[4] 	33011
scalar tree_4_3_u05_r9_network.node[4].core_layer 	data[4] 	30920
scalar tree_4_3_u05_r9_network.node[4].content_store 	p_hit[4] 	0.063342522189573
scalar tree_4_3_u05_r9_network.node[4].content_store 	hits[4] 	2091
scalar tree_4_3_u05_r9_network.node[4].content_store 	misses[4] 	30920
scalar tree_4_3_u05_r9_network.node[4].content_store 	decision_yes[4] 	206
scalar tree_4_3_u05_r9_network.node[4].content_store 	decision_no[4] 	30714
scalar tree_4_3_u05_r9_network.node[4].content_store 	decision_ratio[4] 	0.0066623544631307
scalar tree_4_3_u05_r9_network.node[5].core_layer 	interests[5] 	20112
scalar tree_4_3_u05_r9_network.node[5].core_layer 	data[5] 	17289
scalar tree_4_3_u05_r9_network.node[5].content_store 	p_hit[5] 	0.14036396181384
scalar tree_4_3_u05_r9_network.node[5].content_store 	hits[5] 	2823
scalar tree_4_3_u05_r9_network.node[5].content_store 	misses[5] 	17289
scalar tree_4_3_u05_r9_network.node[5].content_store 	decision_yes[5] 	237
scalar tree_4_3_u05_r9_network.node[5].content_store 	decision_no[5] 	17052
scalar tree_4_3_u05_r9_network.node[5].content_store 	decision_ratio[5] 	0.013708138122506
scalar tree_4_3_u05_r9_network.node[6].core_layer 	interests[6] 	32354
scalar tree_4_3_u05_r9_network.node[6].core_layer 	data[6] 	28193
scalar tree_4_3_u05_r9_network.node[6].content_store 	p_hit[6] 	0.12860851826667
scalar tree_4_3_u05_r9_network.node[6].content_store 	hits[6] 	4161
scalar tree_4_3_u05_r9_network.node[6].content_store 	misses[6] 	28193
scalar tree_4_3_u05_r9_network.node[6].content_store 	decision_yes[6] 	469
scalar tree_4_3_u05_r9_network.node[6].content_store 	decision_no[6] 	27724
scalar tree_4_3_u05_r9_network.node[6].content_store 	decision_ratio[6] 	0.016635335012237
scalar tree_4_3_u05_r9_network.node[7].core_layer 	interests[7] 	35884
scalar tree_4_3_u05_r9_network.node[7].core_layer 	data[7] 	33122
scalar tree_4_3_u05_r9_network.node[7].content_store 	p_hit[7] 	0.076942369858433
scalar tree_4_3_u05_r9_network.node[7].content_store 	hits[7] 	2761
scalar tree_4_3_u05_r9_network.node[7].content_store 	misses[7] 	33123
scalar tree_4_3_u05_r9_network.node[7].content_store 	decision_yes[7] 	322
scalar tree_4_3_u05_r9_network.node[7].content_store 	decision_no[7] 	32800
scalar tree_4_3_u05_r9_network.node[7].content_store 	decision_ratio[7] 	0.0097216351669585
scalar tree_4_3_u05_r9_network.node[8].core_layer 	interests[8] 	27556
scalar tree_4_3_u05_r9_network.node[8].core_layer 	data[8] 	24830
scalar tree_4_3_u05_r9_network.node[8].content_store 	p_hit[8] 	0.098925823777036
scalar tree_4_3_u05_r9_network.node[8].content_store 	hits[8] 	2726
scalar tree_4_3_u05_r9_network.node[8].content_store 	misses[8] 	24830
scalar tree_4_3_u05_r9_network.node[8].content_store 	decision_yes[8] 	253
scalar tree_4_3_u05_r9_network.node[8].content_store 	decision_no[8] 	24577
scalar tree_4_3_u05_r9_network.node[8].content_store 	decision_ratio[8] 	0.010189287152638
scalar tree_4_3_u05_r9_network.node[9].core_layer 	interests[9] 	21467
scalar tree_4_3_u05_r9_network.node[9].core_layer 	data[9] 	18070
scalar tree_4_3_u05_r9_network.node[9].content_store 	p_hit[9] 	0.15824288442726
scalar tree_4_3_u05_r9_network.node[9].content_store 	hits[9] 	3397
scalar tree_4_3_u05_r9_network.node[9].content_store 	misses[9] 	18070
scalar tree_4_3_u05_r9_network.node[9].content_store 	decision_yes[9] 	261
scalar tree_4_3_u05_r9_network.node[9].content_store 	decision_no[9] 	17809
scalar tree_4_3_u05_r9_network.node[9].content_store 	decision_ratio[9] 	0.014443829551743
scalar tree_4_3_u05_r9_network.node[10].core_layer 	interests[10] 	36709
scalar tree_4_3_u05_r9_network.node[10].core_layer 	data[10] 	33913
scalar tree_4_3_u05_r9_network.node[10].content_store 	p_hit[10] 	0.076166607643902
scalar tree_4_3_u05_r9_network.node[10].content_store 	hits[10] 	2796
scalar tree_4_3_u05_r9_network.node[10].content_store 	misses[10] 	33913
scalar tree_4_3_u05_r9_network.node[10].content_store 	decision_yes[10] 	337
scalar tree_4_3_u05_r9_network.node[10].content_store 	decision_no[10] 	33576
scalar tree_4_3_u05_r9_network.node[10].content_store 	decision_ratio[10] 	0.0099371922271695
scalar tree_4_3_u05_r9_network.node[11].core_layer 	interests[11] 	19796
scalar tree_4_3_u05_r9_network.node[11].core_layer 	data[11] 	17284
scalar tree_4_3_u05_r9_network.node[11].content_store 	p_hit[11] 	0.12689432208527
scalar tree_4_3_u05_r9_network.node[11].content_store 	hits[11] 	2512
scalar tree_4_3_u05_r9_network.node[11].content_store 	misses[11] 	17284
scalar tree_4_3_u05_r9_network.node[11].content_store 	decision_yes[11] 	198
scalar tree_4_3_u05_r9_network.node[11].content_store 	decision_no[11] 	17086
scalar tree_4_3_u05_r9_network.node[11].content_store 	decision_ratio[11] 	0.011455681555196
scalar tree_4_3_u05_r9_network.node[12].core_layer 	interests[12] 	27922
scalar tree_4_3_u05_r9_network.node[12].core_layer 	data[12] 	25497
scalar tree_4_3_u05_r9_network.node[12].content_store 	p_hit[12] 	0.086813265525392
scalar tree_4_3_u05_r9_network.node[12].content_store 	hits[12] 	2424
scalar tree_4_3_u05_r9_network.node[12].content_store 	misses[12] 	25498
scalar tree_4_3_u05_r9_network.node[12].content_store 	decision_yes[12] 	268
scalar tree_4_3_u05_r9_network.node[12].content_store 	decision_no[12] 	25229
scalar tree_4_3_u05_r9_network.node[12].content_store 	decision_ratio[12] 	0.01051104051457
scalar tree_4_3_u05_r9_network.node[13].core_layer 	interests[13] 	12298
scalar tree_4_3_u05_r9_network.node[13].core_layer 	data[13] 	8618
scalar tree_4_3_u05_r9_network.node[13].content_store 	p_hit[13] 	0.29923564807286
scalar tree_4_3_u05_r9_network.node[13].content_store 	hits[13] 	3680
scalar tree_4_3_u05_r9_network.node[13].content_store 	misses[13] 	8618
scalar tree_4_3_u05_r9_network.node[13].content_store 	decision_yes[13] 	100
scalar tree_4_3_u05_r9_network.node[13].content_store 	decision_no[13] 	8518
scalar tree_4_3_u05_r9_network.node[13].content_store 	decision_ratio[13] 	0.011603620329543
scalar tree_4_3_u05_r9_network.node[14].core_layer 	interests[14] 	12764
scalar tree_4_3_u05_r9_network.node[14].core_layer 	data[14] 	8826
scalar tree_4_3_u05_r9_network.node[14].content_store 	p_hit[14] 	0.30852397367596
scalar tree_4_3_u05_r9_network.node[14].content_store 	hits[14] 	3938
scalar tree_4_3_u05_r9_network.node[14].content_store 	misses[14] 	8826
scalar tree_4_3_u05_r9_network.node[14].content_store 	decision_yes[14] 	113
scalar tree_4_3_u05_r9_network.node[14].content_store 	decision_no[14] 	8713
scalar tree_4_3_u05_r9_network.node[14].content_store 	decision_ratio[14] 	0.012803081803762
scalar tree_4_3_u05_r9_network.node[15].core_layer 	interests[15] 	12832
scalar tree_4_3_u05_r9_network.node[15].core_layer 	data[15] 	8692
scalar tree_4_3_u05_r9_network.node[15].content_store 	p_hit[15] 	0.32263092269327
scalar tree_4_3_u05_r9_network.node[15].content_store 	hits[15] 	4140
scalar tree_4_3_u05_r9_network.node[15].content_store 	misses[15] 	8692
scalar tree_4_3_u05_r9_network.node[15].content_store 	decision_yes[15] 	120
scalar tree_4_3_u05_r9_network.node[15].content_store 	decision_no[15] 	8572
scalar tree_4_3_u05_r9_network.node[15].content_store 	decision_ratio[15] 	0.013805798435343
scalar tree_4_3_u05_r9_network.node[16].core_layer 	interests[16] 	12760
scalar tree_4_3_u05_r9_network.node[16].core_layer 	data[16] 	8784
scalar tree_4_3_u05_r9_network.node[16].content_store 	p_hit[16] 	0.3115987460815
scalar tree_4_3_u05_r9_network.node[16].content_store 	hits[16] 	3976
scalar tree_4_3_u05_r9_network.node[16].content_store 	misses[16] 	8784
scalar tree_4_3_u05_r9_network.node[16].content_store 	decision_yes[16] 	102
scalar tree_4_3_u05_r9_network.node[16].content_store 	decision_no[16] 	8682
scalar tree_4_3_u05_r9_network.node[16].content_store 	decision_ratio[16] 	0.011612021857923
scalar tree_4_3_u05_r9_network.node[17].core_layer 	interests[17] 	12201
scalar tree_4_3_u05_r9_network.node[17].core_layer 	data[17] 	8758
scalar tree_4_3_u05_r9_network.node[17].content_store 	p_hit[17] 	0.28218998442751
scalar tree_4_3_u05_r9_network.node[17].content_store 	hits[17] 	3443
scalar tree_4_3_u05_r9_network.node[17].content_store 	misses[17] 	8758
scalar tree_4_3_u05_r9_network.node[17].content_store 	decision_yes[17] 	132
scalar tree_4_3_u05_r9_network.node[17].content_store 	decision_no[17] 	8626
scalar tree_4_3_u05_r9_network.node[17].content_store 	decision_ratio[17] 	0.01507193423156
scalar tree_4_3_u05_r9_network.node[18].core_layer 	interests[18] 	13309
scalar tree_4_3_u05_r9_network.node[18].core_layer 	data[18] 	8883
scalar tree_4_3_u05_r9_network.node[18].content_store 	p_hit[18] 	0.33255691637238
scalar tree_4_3_u05_r9_network.node[18].content_store 	hits[18] 	4426
scalar tree_4_3_u05_r9_network.node[18].content_store 	misses[18] 	8883
scalar tree_4_3_u05_r9_network.node[18].content_store 	decision_yes[18] 	109
scalar tree_4_3_u05_r9_network.node[18].content_store 	decision_no[18] 	8774
scalar tree_4_3_u05_r9_network.node[18].content_store 	decision_ratio[18] 	0.012270629291906
scalar tree_4_3_u05_r9_network.node[19].core_layer 	interests[19] 	12681
scalar tree_4_3_u05_r9_network.node[19].core_layer 	data[19] 	8792
scalar tree_4_3_u05_r9_network.node[19].content_store 	p_hit[19] 	0.30667928396814
scalar tree_4_3_u05_r9_network.node[19].content_store 	hits[19] 	3889
scalar tree_4_3_u05_r9_network.node[19].content_store 	misses[19] 	8792
scalar tree_4_3_u05_r9_network.node[19].content_store 	decision_yes[19] 	105
scalar tree_4_3_u05_r9_network.node[19].content_store 	decision_no[19] 	8687
scalar tree_4_3_u05_r9_network.node[19].content_store 	decision_ratio[19] 	0.011942675159236
scalar tree_4_3_u05_r9_network.node[20].core_layer 	interests[20] 	12792
scalar tree_4_3_u05_r9_network.node[20].core_layer 	data[20] 	8911
scalar tree_4_3_u05_r9_network.node[20].content_store 	p_hit[20] 	0.30347091932458
scalar tree_4_3_u05_r9_network.node[20].content_store 	hits[20] 	3882
scalar tree_4_3_u05_r9_network.node[20].content_store 	misses[20] 	8910
scalar tree_4_3_u05_r9_network.node[20].content_store 	decision_yes[20] 	112
scalar tree_4_3_u05_r9_network.node[20].content_store 	decision_no[20] 	8799
scalar tree_4_3_u05_r9_network.node[20].content_store 	decision_ratio[20] 	0.012568735271013
scalar tree_4_3_u05_r9_network.node[21].core_layer 	interests[21] 	12933
scalar tree_4_3_u05_r9_network.node[21].core_layer 	data[21] 	9031
scalar tree_4_3_u05_r9_network.node[21].content_store 	p_hit[21] 	0.30163148534756
scalar tree_4_3_u05_r9_network.node[21].content_store 	hits[21] 	3901
scalar tree_4_3_u05_r9_network.node[21].content_store 	misses[21] 	9032
scalar tree_4_3_u05_r9_network.node[21].content_store 	decision_yes[21] 	133
scalar tree_4_3_u05_r9_network.node[21].content_store 	decision_no[21] 	8898
scalar tree_4_3_u05_r9_network.node[21].content_store 	decision_ratio[21] 	0.014727051267855
scalar tree_4_3_u05_r9_network.node[22].core_layer 	interests[22] 	12351
scalar tree_4_3_u05_r9_network.node[22].core_layer 	data[22] 	8686
scalar tree_4_3_u05_r9_network.node[22].content_store 	p_hit[22] 	0.29673710630718
scalar tree_4_3_u05_r9_network.node[22].content_store 	hits[22] 	3665
scalar tree_4_3_u05_r9_network.node[22].content_store 	misses[22] 	8686
scalar tree_4_3_u05_r9_network.node[22].content_store 	decision_yes[22] 	118
scalar tree_4_3_u05_r9_network.node[22].content_store 	decision_no[22] 	8568
scalar tree_4_3_u05_r9_network.node[22].content_store 	decision_ratio[22] 	0.013585079438176
scalar tree_4_3_u05_r9_network.node[23].core_layer 	interests[23] 	13060
scalar tree_4_3_u05_r9_network.node[23].core_layer 	data[23] 	8991
scalar tree_4_3_u05_r9_network.node[23].content_store 	p_hit[23] 	0.31156202143951
scalar tree_4_3_u05_r9_network.node[23].content_store 	hits[23] 	4069
scalar tree_4_3_u05_r9_network.node[23].content_store 	misses[23] 	8991
scalar tree_4_3_u05_r9_network.node[23].content_store 	decision_yes[23] 	125
scalar tree_4_3_u05_r9_network.node[23].content_store 	decision_no[23] 	8866
scalar tree_4_3_u05_r9_network.node[23].content_store 	decision_ratio[23] 	0.013902791680569
scalar tree_4_3_u05_r9_network.node[24].core_layer 	interests[24] 	12451
scalar tree_4_3_u05_r9_network.node[24].core_layer 	data[24] 	8765
scalar tree_4_3_u05_r9_network.node[24].content_store 	p_hit[24] 	0.29604047867641
scalar tree_4_3_u05_r9_network.node[24].content_store 	hits[24] 	3686
scalar tree_4_3_u05_r9_network.node[24].content_store 	misses[24] 	8765
scalar tree_4_3_u05_r9_network.node[24].content_store 	decision_yes[24] 	115
scalar tree_4_3_u05_r9_network.node[24].content_store 	decision_no[24] 	8650
scalar tree_4_3_u05_r9_network.node[24].content_store 	decision_ratio[24] 	0.01312036508842
scalar tree_4_3_u05_r9_network.node[25].core_layer 	interests[25] 	13017
scalar tree_4_3_u05_r9_network.node[25].core_layer 	data[25] 	8808
scalar tree_4_3_u05_r9_network.node[25].content_store 	p_hit[25] 	0.32334639317815
scalar tree_4_3_u05_r9_network.node[25].content_store 	hits[25] 	4209
scalar tree_4_3_u05_r9_network.node[25].content_store 	misses[25] 	8808
scalar tree_4_3_u05_r9_network.node[25].content_store 	decision_yes[25] 	101
scalar tree_4_3_u05_r9_network.node[25].content_store 	decision_no[25] 	8707
scalar tree_4_3_u05_r9_network.node[25].content_store 	decision_ratio[25] 	0.011466848319709
scalar tree_4_3_u05_r9_network.node[26].core_layer 	interests[26] 	12479
scalar tree_4_3_u05_r9_network.node[26].core_layer 	data[26] 	8774
scalar tree_4_3_u05_r9_network.node[26].content_store 	p_hit[26] 	0.29689878996714
scalar tree_4_3_u05_r9_network.node[26].content_store 	hits[26] 	3705
scalar tree_4_3_u05_r9_network.node[26].content_store 	misses[26] 	8774
scalar tree_4_3_u05_r9_network.node[26].content_store 	decision_yes[26] 	104
scalar tree_4_3_u05_r9_network.node[26].content_store 	decision_no[26] 	8670
scalar tree_4_3_u05_r9_network.node[26].content_store 	decision_ratio[26] 	0.011853202644176
scalar tree_4_3_u05_r9_network.node[27].core_layer 	interests[27] 	12300
scalar tree_4_3_u05_r9_network.node[27].core_layer 	data[27] 	8755
scalar tree_4_3_u05_r9_network.node[27].content_store 	p_hit[27] 	0.28821138211382
scalar tree_4_3_u05_r9_network.node[27].content_store 	hits[27] 	3545
scalar tree_4_3_u05_r9_network.node[27].content_store 	misses[27] 	8755
scalar tree_4_3_u05_r9_network.node[27].content_store 	decision_yes[27] 	103
scalar tree_4_3_u05_r9_network.node[27].content_store 	decision_no[27] 	8652
scalar tree_4_3_u05_r9_network.node[27].content_store 	decision_ratio[27] 	0.011764705882353
scalar tree_4_3_u05_r9_network.node[28].core_layer 	interests[28] 	12482
scalar tree_4_3_u05_r9_network.node[28].core_layer 	data[28] 	8705
scalar tree_4_3_u05_r9_network.node[28].content_store 	p_hit[28] 	0.30259573786252
scalar tree_4_3_u05_r9_network.node[28].content_store 	hits[28] 	3777
scalar tree_4_3_u05_r9_network.node[28].content_store 	misses[28] 	8705
scalar tree_4_3_u05_r9_network.node[28].content_store 	decision_yes[28] 	103
scalar tree_4_3_u05_r9_network.node[28].content_store 	decision_no[28] 	8602
scalar tree_4_3_u05_r9_network.node[28].content_store 	decision_ratio[28] 	0.011832280298679
scalar tree_4_3_u05_r9_network.node[29].core_layer 	interests[29] 	12984
scalar tree_4_3_u05_r9_network.node[29].core_layer 	data[29] 	8950
scalar tree_4_3_u05_r9_network.node[29].content_store 	p_hit[29] 	0.31069008009858
scalar tree_4_3_u05_r9_network.node[29].content_store 	hits[29] 	4034
scalar tree_4_3_u05_r9_network.node[29].content_store 	misses[29] 	8950
scalar tree_4_3_u05_r9_network.node[29].content_store 	decision_yes[29] 	105
scalar tree_4_3_u05_r9_network.node[29].content_store 	decision_no[29] 	8845
scalar tree_4_3_u05_r9_network.node[29].content_store 	decision_ratio[29] 	0.011731843575419
scalar tree_4_3_u05_r9_network.node[30].core_layer 	interests[30] 	12471
scalar tree_4_3_u05_r9_network.node[30].core_layer 	data[30] 	8858
scalar tree_4_3_u05_r9_network.node[30].content_store 	p_hit[30] 	0.28971213214658
scalar tree_4_3_u05_r9_network.node[30].content_store 	hits[30] 	3613
scalar tree_4_3_u05_r9_network.node[30].content_store 	misses[30] 	8858
scalar tree_4_3_u05_r9_network.node[30].content_store 	decision_yes[30] 	114
scalar tree_4_3_u05_r9_network.node[30].content_store 	decision_no[30] 	8744
scalar tree_4_3_u05_r9_network.node[30].content_store 	decision_ratio[30] 	0.01286972228494
scalar tree_4_3_u05_r9_network.node[31].core_layer 	interests[31] 	12571
scalar tree_4_3_u05_r9_network.node[31].core_layer 	data[31] 	8727
scalar tree_4_3_u05_r9_network.node[31].content_store 	p_hit[31] 	0.30578315169835
scalar tree_4_3_u05_r9_network.node[31].content_store 	hits[31] 	3844
scalar tree_4_3_u05_r9_network.node[31].content_store 	misses[31] 	8727
scalar tree_4_3_u05_r9_network.node[31].content_store 	decision_yes[31] 	105
scalar tree_4_3_u05_r9_network.node[31].content_store 	decision_no[31] 	8622
scalar tree_4_3_u05_r9_network.node[31].content_store 	decision_ratio[31] 	0.012031625988312
scalar tree_4_3_u05_r9_network.node[32].core_layer 	interests[32] 	12772
scalar tree_4_3_u05_r9_network.node[32].core_layer 	data[32] 	9017
scalar tree_4_3_u05_r9_network.node[32].content_store 	p_hit[32] 	0.29400250548074
scalar tree_4_3_u05_r9_network.node[32].content_store 	hits[32] 	3755
scalar tree_4_3_u05_r9_network.node[32].content_store 	misses[32] 	9017
scalar tree_4_3_u05_r9_network.node[32].content_store 	decision_yes[32] 	103
scalar tree_4_3_u05_r9_network.node[32].content_store 	decision_no[32] 	8914
scalar tree_4_3_u05_r9_network.node[32].content_store 	decision_ratio[32] 	0.011422867916158
scalar tree_4_3_u05_r9_network.node[33].core_layer 	interests[33] 	12585
scalar tree_4_3_u05_r9_network.node[33].core_layer 	data[33] 	8887
scalar tree_4_3_u05_r9_network.node[33].content_store 	p_hit[33] 	0.29384187524831
scalar tree_4_3_u05_r9_network.node[33].content_store 	hits[33] 	3698
scalar tree_4_3_u05_r9_network.node[33].content_store 	misses[33] 	8887
scalar tree_4_3_u05_r9_network.node[33].content_store 	decision_yes[33] 	123
scalar tree_4_3_u05_r9_network.node[33].content_store 	decision_no[33] 	8764
scalar tree_4_3_u05_r9_network.node[33].content_store 	decision_ratio[33] 	0.013840441093732
scalar tree_4_3_u05_r9_network.node[34].core_layer 	interests[34] 	12948
scalar tree_4_3_u05_r9_network.node[34].core_layer 	data[34] 	8754
scalar tree_4_3_u05_r9_network.node[34].content_store 	p_hit[34] 	0.32383379672536
scalar tree_4_3_u05_r9_network.node[34].content_store 	hits[34] 	4193
scalar tree_4_3_u05_r9_network.node[34].content_store 	misses[34] 	8755
scalar tree_4_3_u05_r9_network.node[34].content_store 	decision_yes[34] 	113
scalar tree_4_3_u05_r9_network.node[34].content_store 	decision_no[34] 	8641
scalar tree_4_3_u05_r9_network.node[34].content_store 	decision_ratio[34] 	0.012908384738405
scalar tree_4_3_u05_r9_network.node[35].core_layer 	interests[35] 	12388
scalar tree_4_3_u05_r9_network.node[35].core_layer 	data[35] 	8704
scalar tree_4_3_u05_r9_network.node[35].content_store 	p_hit[35] 	0.29738456570875
scalar tree_4_3_u05_r9_network.node[35].content_store 	hits[35] 	3684
scalar tree_4_3_u05_r9_network.node[35].content_store 	misses[35] 	8704
scalar tree_4_3_u05_r9_network.node[35].content_store 	decision_yes[35] 	100
scalar tree_4_3_u05_r9_network.node[35].content_store 	decision_no[35] 	8604
scalar tree_4_3_u05_r9_network.node[35].content_store 	decision_ratio[35] 	0.011488970588235
scalar tree_4_3_u05_r9_network.node[36].core_layer 	interests[36] 	12540
scalar tree_4_3_u05_r9_network.node[36].core_layer 	data[36] 	8970
scalar tree_4_3_u05_r9_network.node[36].content_store 	p_hit[36] 	0.28468899521531
scalar tree_4_3_u05_r9_network.node[36].content_store 	hits[36] 	3570
scalar tree_4_3_u05_r9_network.node[36].content_store 	misses[36] 	8970
scalar tree_4_3_u05_r9_network.node[36].content_store 	decision_yes[36] 	96
scalar tree_4_3_u05_r9_network.node[36].content_store 	decision_no[36] 	8874
scalar tree_4_3_u05_r9_network.node[36].content_store 	decision_ratio[36] 	0.010702341137124
scalar tree_4_3_u05_r9_network.node[37].core_layer 	interests[37] 	12608
scalar tree_4_3_u05_r9_network.node[37].core_layer 	data[37] 	8875
scalar tree_4_3_u05_r9_network.node[37].content_store 	p_hit[37] 	0.29600253807107
scalar tree_4_3_u05_r9_network.node[37].content_store 	hits[37] 	3732
scalar tree_4_3_u05_r9_network.node[37].content_store 	misses[37] 	8876
scalar tree_4_3_u05_r9_network.node[37].content_store 	decision_yes[37] 	107
scalar tree_4_3_u05_r9_network.node[37].content_store 	decision_no[37] 	8768
scalar tree_4_3_u05_r9_network.node[37].content_store 	decision_ratio[37] 	0.012056338028169
scalar tree_4_3_u05_r9_network.node[38].core_layer 	interests[38] 	12482
scalar tree_4_3_u05_r9_network.node[38].core_layer 	data[38] 	8772
scalar tree_4_3_u05_r9_network.node[38].content_store 	p_hit[38] 	0.297228008332
scalar tree_4_3_u05_r9_network.node[38].content_store 	hits[38] 	3710
scalar tree_4_3_u05_r9_network.node[38].content_store 	misses[38] 	8772
scalar tree_4_3_u05_r9_network.node[38].content_store 	decision_yes[38] 	101
scalar tree_4_3_u05_r9_network.node[38].content_store 	decision_no[38] 	8671
scalar tree_4_3_u05_r9_network.node[38].content_store 	decision_ratio[38] 	0.011513907888737
scalar tree_4_3_u05_r9_network.node[39].core_layer 	interests[39] 	12366
scalar tree_4_3_u05_r9_network.node[39].core_layer 	data[39] 	8565
scalar tree_4_3_u05_r9_network.node[39].content_store 	p_hit[39] 	0.30729419375708
scalar tree_4_3_u05_r9_network.node[39].content_store 	hits[39] 	3800
scalar tree_4_3_u05_r9_network.node[39].content_store 	misses[39] 	8566
scalar tree_4_3_u05_r9_network.node[39].content_store 	decision_yes[39] 	94
scalar tree_4_3_u05_r9_network.node[39].content_store 	decision_no[39] 	8471
scalar tree_4_3_u05_r9_network.node[39].content_store 	decision_ratio[39] 	0.010974897840047
scalar tree_4_3_u05_r9_network.client[13] 	hdistance[13] 	2.6445596721586
scalar tree_4_3_u05_r9_network.client[13] 	downloads[13] 	11957
scalar tree_4_3_u05_r9_network.client[13] 	avg_time[13] 	0.004129795442
scalar tree_4_3_u05_r9_network.client[14] 	hdistance[14] 	2.6033589572193
scalar tree_4_3_u05_r9_network.client[14] 	downloads[14] 	11968
scalar tree_4_3_u05_r9_network.client[14] 	avg_time[14] 	0.004076033123
scalar tree_4_3_u05_r9_network.client[15] 	hdistance[15] 	2.6045698695541
scalar tree_4_3_u05_r9_network.client[15] 	downloads[15] 	11729
scalar tree_4_3_u05_r9_network.client[15] 	avg_time[15] 	0.004089177749
scalar tree_4_3_u05_r9_network.client[16] 	hdistance[16] 	2.5989941324392
scalar tree_4_3_u05_r9_network.client[16] 	downloads[16] 	11930
scalar tree_4_3_u05_r9_network.client[16] 	avg_time[16] 	0.004064540522
scalar tree_4_3_u05_r9_network.client[17] 	hdistance[17] 	2.6437012823736
scalar tree_4_3_u05_r9_network.client[17] 	downloads[17] 	11931
scalar tree_4_3_u05_r9_network.client[17] 	avg_time[17] 	0.004153881845
scalar tree_4_3_u05_r9_network.client[18] 	hdistance[18] 	2.5723296539132
scalar tree_4_3_u05_r9_network.client[18] 	downloads[18] 	12049
scalar tree_4_3_u05_r9_network.client[18] 	avg_time[18] 	0.004042988135
scalar tree_4_3_u05_r9_network.client[19] 	hdistance[19] 	2.6201154715086
scalar tree_4_3_u05_r9_network.client[19] 	downloads[19] 	11951
scalar tree_4_3_u05_r9_network.client[19] 	avg_time[19] 	0.004136721984
scalar tree_4_3_u05_r9_network.client[20] 	hdistance[20] 	2.6383629599008
scalar tree_4_3_u05_r9_network.client[20] 	downloads[20] 	12095
scalar tree_4_3_u05_r9_network.client[20] 	avg_time[20] 	0.004159732429
scalar tree_4_3_u05_r9_network.client[21] 	hdistance[21] 	2.6391490060785
scalar tree_4_3_u05_r9_network.client[21] 	downloads[21] 	12174
scalar tree_4_3_u05_r9_network.client[21] 	avg_time[21] 	0.004168139189
scalar tree_4_3_u05_r9_network.client[22] 	hdistance[22] 	2.6428269864055
scalar tree_4_3_u05_r9_network.client[22] 	downloads[22] 	11843
scalar tree_4_3_u05_r9_network.client[22] 	avg_time[22] 	0.00415840284
scalar tree_4_3_u05_r9_network.client[23] 	hdistance[23] 	2.6162752232881
scalar tree_4_3_u05_r9_network.client[23] 	downloads[23] 	12092
scalar tree_4_3_u05_r9_network.client[23] 	avg_time[23] 	0.004093612551
scalar tree_4_3_u05_r9_network.client[24] 	hdistance[24] 	2.6381381381381
scalar tree_4_3_u05_r9_network.client[24] 	downloads[24] 	11988
scalar tree_4_3_u05_r9_network.client[24] 	avg_time[24] 	0.004146445589
scalar tree_4_3_u05_r9_network.client[25] 	hdistance[25] 	2.569949474033
scalar tree_4_3_u05_r9_network.client[25] 	downloads[25] 	12073
scalar tree_4_3_u05_r9_network.client[25] 	avg_time[25] 	0.004018882088
scalar tree_4_3_u05_r9_network.client[26] 	hdistance[26] 	2.6559774030074
scalar tree_4_3_u05_r9_network.client[26] 	downloads[26] 	12037
scalar tree_4_3_u05_r9_network.client[26] 	avg_time[26] 	0.004137074311
scalar tree_4_3_u05_r9_network.client[27] 	hdistance[27] 	2.6742290563818
scalar tree_4_3_u05_r9_network.client[27] 	downloads[27] 	11901
scalar tree_4_3_u05_r9_network.client[27] 	avg_time[27] 	0.004170738994
scalar tree_4_3_u05_r9_network.client[28] 	hdistance[28] 	2.6126544489593
scalar tree_4_3_u05_r9_network.client[28] 	downloads[28] 	12059
scalar tree_4_3_u05_r9_network.client[28] 	avg_time[28] 	0.004122726913
scalar tree_4_3_u05_r9_network.client[29] 	hdistance[29] 	2.6051299078609
scalar tree_4_3_u05_r9_network.client[29] 	downloads[29] 	12047
scalar tree_4_3_u05_r9_network.client[29] 	avg_time[29] 	0.004096950606
scalar tree_4_3_u05_r9_network.client[30] 	hdistance[30] 	2.6576285240464
scalar tree_4_3_u05_r9_network.client[30] 	downloads[30] 	12060
scalar tree_4_3_u05_r9_network.client[30] 	avg_time[30] 	0.004200162806
scalar tree_4_3_u05_r9_network.client[31] 	hdistance[31] 	2.6521521938223
scalar tree_4_3_u05_r9_network.client[31] 	downloads[31] 	12011
scalar tree_4_3_u05_r9_network.client[31] 	avg_time[31] 	0.00414886052
scalar tree_4_3_u05_r9_network.client[32] 	hdistance[32] 	2.6984179031068
scalar tree_4_3_u05_r9_network.client[32] 	downloads[32] 	12199
scalar tree_4_3_u05_r9_network.client[32] 	avg_time[32] 	0.004219195263
scalar tree_4_3_u05_r9_network.client[33] 	hdistance[33] 	2.6761278508407
scalar tree_4_3_u05_r9_network.client[33] 	downloads[33] 	12014
scalar tree_4_3_u05_r9_network.client[33] 	avg_time[33] 	0.004192772108
scalar tree_4_3_u05_r9_network.client[34] 	hdistance[34] 	2.6274542708508
scalar tree_4_3_u05_r9_network.client[34] 	downloads[34] 	11918
scalar tree_4_3_u05_r9_network.client[34] 	avg_time[34] 	0.00409615221
scalar tree_4_3_u05_r9_network.client[35] 	hdistance[35] 	2.655138011307
scalar tree_4_3_u05_r9_network.client[35] 	downloads[35] 	12028
scalar tree_4_3_u05_r9_network.client[35] 	avg_time[35] 	0.004165277991
scalar tree_4_3_u05_r9_network.client[36] 	hdistance[36] 	2.6806180004905
scalar tree_4_3_u05_r9_network.client[36] 	downloads[36] 	12233
scalar tree_4_3_u05_r9_network.client[36] 	avg_time[36] 	0.004205343133
scalar tree_4_3_u05_r9_network.client[37] 	hdistance[37] 	2.685393258427
scalar tree_4_3_u05_r9_network.client[37] 	downloads[37] 	12104
scalar tree_4_3_u05_r9_network.client[37] 	avg_time[37] 	0.004209489482
scalar tree_4_3_u05_r9_network.client[38] 	hdistance[38] 	2.6664728843119
scalar tree_4_3_u05_r9_network.client[38] 	downloads[38] 	12041
scalar tree_4_3_u05_r9_network.client[38] 	avg_time[38] 	0.004177235104
scalar tree_4_3_u05_r9_network.client[39] 	hdistance[39] 	2.6617311109231
scalar tree_4_3_u05_r9_network.client[39] 	downloads[39] 	11819
scalar tree_4_3_u05_r9_network.client[39] 	avg_time[39] 	0.004170400634
