version 2
run General-173-20160902-15:54:37-7280
attr a 0.9
attr cd wfc0.01
attr configname General
attr cr lru
attr datetime 20160902-15:54:37
attr experiment General
attr fsize 1
attr inifile hw5115/scenario_Y/omnetp.ini
attr iterationvars "$name=tree_4_3, $un=08, $rep=14, $cd=wfc0.01, $cr=lru, $fsize=1, $a=0.9, $sl=nrr, $ttl=1000, $variance=0.05"
attr iterationvars2 "$name=tree_4_3, $un=08, $rep=14, $cd=wfc0.01, $cr=lru, $fsize=1, $a=0.9, $sl=nrr, $ttl=1000, $variance=0.05, $repetition=0"
attr measurement "$name=tree_4_3, $un=08, $rep=14, $cd=wfc0.01, $cr=lru, $fsize=1, $a=0.9, $sl=nrr, $ttl=1000, $variance=0.05"
attr name tree_4_3
attr network networks.${name}_u${un}_r${rep}_network
attr processid 7280
attr rep 14
attr repetition 0
attr replication #0
attr resultdir results
attr runnumber 173
attr seedset 14
attr sl nrr
attr ttl 1000
attr un 08
attr variance 0.05

scalar . 	a 	0.9
scalar . 	fsize 	1
scalar . 	rep 	14
scalar . 	ttl 	1000
scalar . 	un 	08
scalar . 	variance 	0.05
scalar tree_4_3_u08_r14_network.content_distribution 	repo-0 	0
scalar tree_4_3_u08_r14_network.content_distribution 	client-0 	13
scalar tree_4_3_u08_r14_network.content_distribution 	client-1 	14
scalar tree_4_3_u08_r14_network.content_distribution 	client-2 	15
scalar tree_4_3_u08_r14_network.content_distribution 	client-3 	16
scalar tree_4_3_u08_r14_network.content_distribution 	client-4 	17
scalar tree_4_3_u08_r14_network.content_distribution 	client-5 	18
scalar tree_4_3_u08_r14_network.content_distribution 	client-6 	19
scalar tree_4_3_u08_r14_network.content_distribution 	client-7 	20
scalar tree_4_3_u08_r14_network.content_distribution 	client-8 	21
scalar tree_4_3_u08_r14_network.content_distribution 	client-9 	22
scalar tree_4_3_u08_r14_network.content_distribution 	client-10 	23
scalar tree_4_3_u08_r14_network.content_distribution 	client-11 	24
scalar tree_4_3_u08_r14_network.content_distribution 	client-12 	25
scalar tree_4_3_u08_r14_network.content_distribution 	client-13 	26
scalar tree_4_3_u08_r14_network.content_distribution 	client-14 	27
scalar tree_4_3_u08_r14_network.content_distribution 	client-15 	28
scalar tree_4_3_u08_r14_network.content_distribution 	client-16 	29
scalar tree_4_3_u08_r14_network.content_distribution 	client-17 	30
scalar tree_4_3_u08_r14_network.content_distribution 	client-18 	31
scalar tree_4_3_u08_r14_network.content_distribution 	client-19 	32
scalar tree_4_3_u08_r14_network.content_distribution 	client-20 	33
scalar tree_4_3_u08_r14_network.content_distribution 	client-21 	34
scalar tree_4_3_u08_r14_network.content_distribution 	client-22 	35
scalar tree_4_3_u08_r14_network.content_distribution 	client-23 	36
scalar tree_4_3_u08_r14_network.content_distribution 	client-24 	37
scalar tree_4_3_u08_r14_network.content_distribution 	client-25 	38
scalar tree_4_3_u08_r14_network.content_distribution 	client-26 	39
scalar tree_4_3_u08_r14_network.content_distribution 	repo-0_card 	100000
scalar tree_4_3_u08_r14_network.content_distribution 	repo-0_price 	0
scalar tree_4_3_u08_r14_network.statistics 	stabilization_time 	1253
scalar tree_4_3_u08_r14_network.statistics 	p_hit 	0.2363910008763
scalar tree_4_3_u08_r14_network.statistics 	interests 	25090.2
scalar tree_4_3_u08_r14_network.statistics 	data 	16990.425
scalar tree_4_3_u08_r14_network.statistics 	hdistance 	2.6582785710298
scalar tree_4_3_u08_r14_network.statistics 	avg_time 	0.004195706523
scalar tree_4_3_u08_r14_network.statistics 	downloads 	323985
scalar tree_4_3_u08_r14_network.statistics 	total_cost 	0
scalar tree_4_3_u08_r14_network.statistics 	total_replicas 	100000
scalar tree_4_3_u08_r14_network.statistics 	inner_hit 	0.43966233004614
scalar tree_4_3_u08_r14_network.node[0].core_layer 	interests[0] 	183423
scalar tree_4_3_u08_r14_network.node[0].core_layer 	repo_load[0] 	181541
scalar tree_4_3_u08_r14_network.node[0].core_layer 	data[0] 	0
scalar tree_4_3_u08_r14_network.node[0].core_layer 	repo_int[0] 	181541
scalar tree_4_3_u08_r14_network.node[0].content_store 	p_hit[0] 	0.010260436259357
scalar tree_4_3_u08_r14_network.node[0].content_store 	hits[0] 	1882
scalar tree_4_3_u08_r14_network.node[0].content_store 	misses[0] 	181541
scalar tree_4_3_u08_r14_network.node[0].content_store 	decision_yes[0] 	2671
scalar tree_4_3_u08_r14_network.node[0].content_store 	decision_no[0] 	178870
scalar tree_4_3_u08_r14_network.node[0].content_store 	decision_ratio[0] 	0.014712929861574
scalar tree_4_3_u08_r14_network.node[1].core_layer 	interests[1] 	140484
scalar tree_4_3_u08_r14_network.node[1].core_layer 	data[1] 	138577
scalar tree_4_3_u08_r14_network.node[1].content_store 	p_hit[1] 	0.013531790097093
scalar tree_4_3_u08_r14_network.node[1].content_store 	hits[1] 	1901
scalar tree_4_3_u08_r14_network.node[1].content_store 	misses[1] 	138583
scalar tree_4_3_u08_r14_network.node[1].content_store 	decision_yes[1] 	1586
scalar tree_4_3_u08_r14_network.node[1].content_store 	decision_no[1] 	136991
scalar tree_4_3_u08_r14_network.node[1].content_store 	decision_ratio[1] 	0.011444900668942
scalar tree_4_3_u08_r14_network.node[2].core_layer 	interests[2] 	48186
scalar tree_4_3_u08_r14_network.node[2].core_layer 	data[2] 	45790
scalar tree_4_3_u08_r14_network.node[2].content_store 	p_hit[2] 	0.049723986220064
scalar tree_4_3_u08_r14_network.node[2].content_store 	hits[2] 	2396
scalar tree_4_3_u08_r14_network.node[2].content_store 	misses[2] 	45790
scalar tree_4_3_u08_r14_network.node[2].content_store 	decision_yes[2] 	614
scalar tree_4_3_u08_r14_network.node[2].content_store 	decision_no[2] 	45176
scalar tree_4_3_u08_r14_network.node[2].content_store 	decision_ratio[2] 	0.013409041275388
scalar tree_4_3_u08_r14_network.node[3].core_layer 	interests[3] 	23163
scalar tree_4_3_u08_r14_network.node[3].core_layer 	data[3] 	19116
scalar tree_4_3_u08_r14_network.node[3].content_store 	p_hit[3] 	0.17463195613694
scalar tree_4_3_u08_r14_network.node[3].content_store 	hits[3] 	4045
scalar tree_4_3_u08_r14_network.node[3].content_store 	misses[3] 	19118
scalar tree_4_3_u08_r14_network.node[3].content_store 	decision_yes[3] 	462
scalar tree_4_3_u08_r14_network.node[3].content_store 	decision_no[3] 	18654
scalar tree_4_3_u08_r14_network.node[3].content_store 	decision_ratio[3] 	0.024168236032643
scalar tree_4_3_u08_r14_network.node[4].core_layer 	interests[4] 	43337
scalar tree_4_3_u08_r14_network.node[4].core_layer 	data[4] 	40834
scalar tree_4_3_u08_r14_network.node[4].content_store 	p_hit[4] 	0.05775665136027
scalar tree_4_3_u08_r14_network.node[4].content_store 	hits[4] 	2503
scalar tree_4_3_u08_r14_network.node[4].content_store 	misses[4] 	40834
scalar tree_4_3_u08_r14_network.node[4].content_store 	decision_yes[4] 	585
scalar tree_4_3_u08_r14_network.node[4].content_store 	decision_no[4] 	40249
scalar tree_4_3_u08_r14_network.node[4].content_store 	decision_ratio[4] 	0.014326296713523
scalar tree_4_3_u08_r14_network.node[5].core_layer 	interests[5] 	20828
scalar tree_4_3_u08_r14_network.node[5].core_layer 	data[5] 	17654
scalar tree_4_3_u08_r14_network.node[5].content_store 	p_hit[5] 	0.1523910120991
scalar tree_4_3_u08_r14_network.node[5].content_store 	hits[5] 	3174
scalar tree_4_3_u08_r14_network.node[5].content_store 	misses[5] 	17654
scalar tree_4_3_u08_r14_network.node[5].content_store 	decision_yes[5] 	327
scalar tree_4_3_u08_r14_network.node[5].content_store 	decision_no[5] 	17327
scalar tree_4_3_u08_r14_network.node[5].content_store 	decision_ratio[5] 	0.018522714399003
scalar tree_4_3_u08_r14_network.node[6].core_layer 	interests[6] 	23610
scalar tree_4_3_u08_r14_network.node[6].core_layer 	data[6] 	19806
scalar tree_4_3_u08_r14_network.node[6].content_store 	p_hit[6] 	0.16107581533249
scalar tree_4_3_u08_r14_network.node[6].content_store 	hits[6] 	3803
scalar tree_4_3_u08_r14_network.node[6].content_store 	misses[6] 	19807
scalar tree_4_3_u08_r14_network.node[6].content_store 	decision_yes[6] 	495
scalar tree_4_3_u08_r14_network.node[6].content_store 	decision_no[6] 	19311
scalar tree_4_3_u08_r14_network.node[6].content_store 	decision_ratio[6] 	0.024992426537413
scalar tree_4_3_u08_r14_network.node[7].core_layer 	interests[7] 	45626
scalar tree_4_3_u08_r14_network.node[7].core_layer 	data[7] 	42442
scalar tree_4_3_u08_r14_network.node[7].content_store 	p_hit[7] 	0.069784771840617
scalar tree_4_3_u08_r14_network.node[7].content_store 	hits[7] 	3184
scalar tree_4_3_u08_r14_network.node[7].content_store 	misses[7] 	42442
scalar tree_4_3_u08_r14_network.node[7].content_store 	decision_yes[7] 	674
scalar tree_4_3_u08_r14_network.node[7].content_store 	decision_no[7] 	41768
scalar tree_4_3_u08_r14_network.node[7].content_store 	decision_ratio[7] 	0.015880495735356
scalar tree_4_3_u08_r14_network.node[8].core_layer 	interests[8] 	18435
scalar tree_4_3_u08_r14_network.node[8].core_layer 	data[8] 	16231
scalar tree_4_3_u08_r14_network.node[8].content_store 	p_hit[8] 	0.11960943856794
scalar tree_4_3_u08_r14_network.node[8].content_store 	hits[8] 	2205
scalar tree_4_3_u08_r14_network.node[8].content_store 	misses[8] 	16230
scalar tree_4_3_u08_r14_network.node[8].content_store 	decision_yes[8] 	251
scalar tree_4_3_u08_r14_network.node[8].content_store 	decision_no[8] 	15980
scalar tree_4_3_u08_r14_network.node[8].content_store 	decision_ratio[8] 	0.015464235105662
scalar tree_4_3_u08_r14_network.node[9].core_layer 	interests[9] 	23181
scalar tree_4_3_u08_r14_network.node[9].core_layer 	data[9] 	19664
scalar tree_4_3_u08_r14_network.node[9].content_store 	p_hit[9] 	0.15167594150382
scalar tree_4_3_u08_r14_network.node[9].content_store 	hits[9] 	3516
scalar tree_4_3_u08_r14_network.node[9].content_store 	misses[9] 	19665
scalar tree_4_3_u08_r14_network.node[9].content_store 	decision_yes[9] 	511
scalar tree_4_3_u08_r14_network.node[9].content_store 	decision_no[9] 	19153
scalar tree_4_3_u08_r14_network.node[9].content_store 	decision_ratio[9] 	0.025986574450773
scalar tree_4_3_u08_r14_network.node[10].core_layer 	interests[10] 	45431
scalar tree_4_3_u08_r14_network.node[10].core_layer 	data[10] 	41959
scalar tree_4_3_u08_r14_network.node[10].content_store 	p_hit[10] 	0.076423587418283
scalar tree_4_3_u08_r14_network.node[10].content_store 	hits[10] 	3472
scalar tree_4_3_u08_r14_network.node[10].content_store 	misses[10] 	41959
scalar tree_4_3_u08_r14_network.node[10].content_store 	decision_yes[10] 	642
scalar tree_4_3_u08_r14_network.node[10].content_store 	decision_no[10] 	41317
scalar tree_4_3_u08_r14_network.node[10].content_store 	decision_ratio[10] 	0.015300650635144
scalar tree_4_3_u08_r14_network.node[11].core_layer 	interests[11] 	20755
scalar tree_4_3_u08_r14_network.node[11].core_layer 	data[11] 	17770
scalar tree_4_3_u08_r14_network.node[11].content_store 	p_hit[11] 	0.14382076608046
scalar tree_4_3_u08_r14_network.node[11].content_store 	hits[11] 	2985
scalar tree_4_3_u08_r14_network.node[11].content_store 	misses[11] 	17770
scalar tree_4_3_u08_r14_network.node[11].content_store 	decision_yes[11] 	324
scalar tree_4_3_u08_r14_network.node[11].content_store 	decision_no[11] 	17446
scalar tree_4_3_u08_r14_network.node[11].content_store 	decision_ratio[11] 	0.018232976927406
scalar tree_4_3_u08_r14_network.node[12].core_layer 	interests[12] 	20690
scalar tree_4_3_u08_r14_network.node[12].core_layer 	data[12] 	17942
scalar tree_4_3_u08_r14_network.node[12].content_store 	p_hit[12] 	0.13281778637023
scalar tree_4_3_u08_r14_network.node[12].content_store 	hits[12] 	2748
scalar tree_4_3_u08_r14_network.node[12].content_store 	misses[12] 	17942
scalar tree_4_3_u08_r14_network.node[12].content_store 	decision_yes[12] 	333
scalar tree_4_3_u08_r14_network.node[12].content_store 	decision_no[12] 	17609
scalar tree_4_3_u08_r14_network.node[12].content_store 	decision_ratio[12] 	0.018559803812284
scalar tree_4_3_u08_r14_network.node[13].core_layer 	interests[13] 	12568
scalar tree_4_3_u08_r14_network.node[13].core_layer 	data[13] 	8914
scalar tree_4_3_u08_r14_network.node[13].content_store 	p_hit[13] 	0.29065881604074
scalar tree_4_3_u08_r14_network.node[13].content_store 	hits[13] 	3653
scalar tree_4_3_u08_r14_network.node[13].content_store 	misses[13] 	8915
scalar tree_4_3_u08_r14_network.node[13].content_store 	decision_yes[13] 	103
scalar tree_4_3_u08_r14_network.node[13].content_store 	decision_no[13] 	8811
scalar tree_4_3_u08_r14_network.node[13].content_store 	decision_ratio[13] 	0.011554857527485
scalar tree_4_3_u08_r14_network.node[14].core_layer 	interests[14] 	12430
scalar tree_4_3_u08_r14_network.node[14].core_layer 	data[14] 	8847
scalar tree_4_3_u08_r14_network.node[14].content_store 	p_hit[14] 	0.28825422365245
scalar tree_4_3_u08_r14_network.node[14].content_store 	hits[14] 	3583
scalar tree_4_3_u08_r14_network.node[14].content_store 	misses[14] 	8847
scalar tree_4_3_u08_r14_network.node[14].content_store 	decision_yes[14] 	130
scalar tree_4_3_u08_r14_network.node[14].content_store 	decision_no[14] 	8717
scalar tree_4_3_u08_r14_network.node[14].content_store 	decision_ratio[14] 	0.014694246637278
scalar tree_4_3_u08_r14_network.node[15].core_layer 	interests[15] 	13106
scalar tree_4_3_u08_r14_network.node[15].core_layer 	data[15] 	8849
scalar tree_4_3_u08_r14_network.node[15].content_store 	p_hit[15] 	0.32481306271937
scalar tree_4_3_u08_r14_network.node[15].content_store 	hits[15] 	4257
scalar tree_4_3_u08_r14_network.node[15].content_store 	misses[15] 	8849
scalar tree_4_3_u08_r14_network.node[15].content_store 	decision_yes[15] 	136
scalar tree_4_3_u08_r14_network.node[15].content_store 	decision_no[15] 	8713
scalar tree_4_3_u08_r14_network.node[15].content_store 	decision_ratio[15] 	0.015368968244999
scalar tree_4_3_u08_r14_network.node[16].core_layer 	interests[16] 	13278
scalar tree_4_3_u08_r14_network.node[16].core_layer 	data[16] 	9021
scalar tree_4_3_u08_r14_network.node[16].content_store 	p_hit[16] 	0.32060551287845
scalar tree_4_3_u08_r14_network.node[16].content_store 	hits[16] 	4257
scalar tree_4_3_u08_r14_network.node[16].content_store 	misses[16] 	9021
scalar tree_4_3_u08_r14_network.node[16].content_store 	decision_yes[16] 	147
scalar tree_4_3_u08_r14_network.node[16].content_store 	decision_no[16] 	8874
scalar tree_4_3_u08_r14_network.node[16].content_store 	decision_ratio[16] 	0.016295310941137
scalar tree_4_3_u08_r14_network.node[17].core_layer 	interests[17] 	12496
scalar tree_4_3_u08_r14_network.node[17].core_layer 	data[17] 	9090
scalar tree_4_3_u08_r14_network.node[17].content_store 	p_hit[17] 	0.27248719590269
scalar tree_4_3_u08_r14_network.node[17].content_store 	hits[17] 	3405
scalar tree_4_3_u08_r14_network.node[17].content_store 	misses[17] 	9091
scalar tree_4_3_u08_r14_network.node[17].content_store 	decision_yes[17] 	124
scalar tree_4_3_u08_r14_network.node[17].content_store 	decision_no[17] 	8966
scalar tree_4_3_u08_r14_network.node[17].content_store 	decision_ratio[17] 	0.013641364136414
scalar tree_4_3_u08_r14_network.node[18].core_layer 	interests[18] 	13079
scalar tree_4_3_u08_r14_network.node[18].core_layer 	data[18] 	9020
scalar tree_4_3_u08_r14_network.node[18].content_store 	p_hit[18] 	0.31034482758621
scalar tree_4_3_u08_r14_network.node[18].content_store 	hits[18] 	4059
scalar tree_4_3_u08_r14_network.node[18].content_store 	misses[18] 	9020
scalar tree_4_3_u08_r14_network.node[18].content_store 	decision_yes[18] 	117
scalar tree_4_3_u08_r14_network.node[18].content_store 	decision_no[18] 	8903
scalar tree_4_3_u08_r14_network.node[18].content_store 	decision_ratio[18] 	0.012971175166297
scalar tree_4_3_u08_r14_network.node[19].core_layer 	interests[19] 	13246
scalar tree_4_3_u08_r14_network.node[19].core_layer 	data[19] 	8938
scalar tree_4_3_u08_r14_network.node[19].content_store 	p_hit[19] 	0.32523025819115
scalar tree_4_3_u08_r14_network.node[19].content_store 	hits[19] 	4308
scalar tree_4_3_u08_r14_network.node[19].content_store 	misses[19] 	8938
scalar tree_4_3_u08_r14_network.node[19].content_store 	decision_yes[19] 	140
scalar tree_4_3_u08_r14_network.node[19].content_store 	decision_no[19] 	8798
scalar tree_4_3_u08_r14_network.node[19].content_store 	decision_ratio[19] 	0.015663459386887
scalar tree_4_3_u08_r14_network.node[20].core_layer 	interests[20] 	12763
scalar tree_4_3_u08_r14_network.node[20].core_layer 	data[20] 	8955
scalar tree_4_3_u08_r14_network.node[20].content_store 	p_hit[20] 	0.29828410248374
scalar tree_4_3_u08_r14_network.node[20].content_store 	hits[20] 	3807
scalar tree_4_3_u08_r14_network.node[20].content_store 	misses[20] 	8956
scalar tree_4_3_u08_r14_network.node[20].content_store 	decision_yes[20] 	122
scalar tree_4_3_u08_r14_network.node[20].content_store 	decision_no[20] 	8833
scalar tree_4_3_u08_r14_network.node[20].content_store 	decision_ratio[20] 	0.013623673925181
scalar tree_4_3_u08_r14_network.node[21].core_layer 	interests[21] 	12465
scalar tree_4_3_u08_r14_network.node[21].core_layer 	data[21] 	8859
scalar tree_4_3_u08_r14_network.node[21].content_store 	p_hit[21] 	0.28929001203369
scalar tree_4_3_u08_r14_network.node[21].content_store 	hits[21] 	3606
scalar tree_4_3_u08_r14_network.node[21].content_store 	misses[21] 	8859
scalar tree_4_3_u08_r14_network.node[21].content_store 	decision_yes[21] 	122
scalar tree_4_3_u08_r14_network.node[21].content_store 	decision_no[21] 	8737
scalar tree_4_3_u08_r14_network.node[21].content_store 	decision_ratio[21] 	0.01377130601648
scalar tree_4_3_u08_r14_network.node[22].core_layer 	interests[22] 	12764
scalar tree_4_3_u08_r14_network.node[22].core_layer 	data[22] 	8930
scalar tree_4_3_u08_r14_network.node[22].content_store 	p_hit[22] 	0.30037605766217
scalar tree_4_3_u08_r14_network.node[22].content_store 	hits[22] 	3834
scalar tree_4_3_u08_r14_network.node[22].content_store 	misses[22] 	8930
scalar tree_4_3_u08_r14_network.node[22].content_store 	decision_yes[22] 	111
scalar tree_4_3_u08_r14_network.node[22].content_store 	decision_no[22] 	8819
scalar tree_4_3_u08_r14_network.node[22].content_store 	decision_ratio[22] 	0.012430011198208
scalar tree_4_3_u08_r14_network.node[23].core_layer 	interests[23] 	13024
scalar tree_4_3_u08_r14_network.node[23].core_layer 	data[23] 	9039
scalar tree_4_3_u08_r14_network.node[23].content_store 	p_hit[23] 	0.30597358722359
scalar tree_4_3_u08_r14_network.node[23].content_store 	hits[23] 	3985
scalar tree_4_3_u08_r14_network.node[23].content_store 	misses[23] 	9039
scalar tree_4_3_u08_r14_network.node[23].content_store 	decision_yes[23] 	134
scalar tree_4_3_u08_r14_network.node[23].content_store 	decision_no[23] 	8905
scalar tree_4_3_u08_r14_network.node[23].content_store 	decision_ratio[23] 	0.01482464874433
scalar tree_4_3_u08_r14_network.node[24].core_layer 	interests[24] 	13313
scalar tree_4_3_u08_r14_network.node[24].core_layer 	data[24] 	9170
scalar tree_4_3_u08_r14_network.node[24].content_store 	p_hit[24] 	0.31119957935852
scalar tree_4_3_u08_r14_network.node[24].content_store 	hits[24] 	4143
scalar tree_4_3_u08_r14_network.node[24].content_store 	misses[24] 	9170
scalar tree_4_3_u08_r14_network.node[24].content_store 	decision_yes[24] 	146
scalar tree_4_3_u08_r14_network.node[24].content_store 	decision_no[24] 	9024
scalar tree_4_3_u08_r14_network.node[24].content_store 	decision_ratio[24] 	0.015921483097056
scalar tree_4_3_u08_r14_network.node[25].core_layer 	interests[25] 	12928
scalar tree_4_3_u08_r14_network.node[25].core_layer 	data[25] 	8957
scalar tree_4_3_u08_r14_network.node[25].content_store 	p_hit[25] 	0.30716274752475
scalar tree_4_3_u08_r14_network.node[25].content_store 	hits[25] 	3971
scalar tree_4_3_u08_r14_network.node[25].content_store 	misses[25] 	8957
scalar tree_4_3_u08_r14_network.node[25].content_store 	decision_yes[25] 	130
scalar tree_4_3_u08_r14_network.node[25].content_store 	decision_no[25] 	8827
scalar tree_4_3_u08_r14_network.node[25].content_store 	decision_ratio[25] 	0.014513788098694
scalar tree_4_3_u08_r14_network.node[26].core_layer 	interests[26] 	12099
scalar tree_4_3_u08_r14_network.node[26].core_layer 	data[26] 	8691
scalar tree_4_3_u08_r14_network.node[26].content_store 	p_hit[26] 	0.28167617158443
scalar tree_4_3_u08_r14_network.node[26].content_store 	hits[26] 	3408
scalar tree_4_3_u08_r14_network.node[26].content_store 	misses[26] 	8691
scalar tree_4_3_u08_r14_network.node[26].content_store 	decision_yes[26] 	113
scalar tree_4_3_u08_r14_network.node[26].content_store 	decision_no[26] 	8578
scalar tree_4_3_u08_r14_network.node[26].content_store 	decision_ratio[26] 	0.013001956046485
scalar tree_4_3_u08_r14_network.node[27].core_layer 	interests[27] 	13011
scalar tree_4_3_u08_r14_network.node[27].core_layer 	data[27] 	8934
scalar tree_4_3_u08_r14_network.node[27].content_store 	p_hit[27] 	0.31342710014603
scalar tree_4_3_u08_r14_network.node[27].content_store 	hits[27] 	4078
scalar tree_4_3_u08_r14_network.node[27].content_store 	misses[27] 	8933
scalar tree_4_3_u08_r14_network.node[27].content_store 	decision_yes[27] 	148
scalar tree_4_3_u08_r14_network.node[27].content_store 	decision_no[27] 	8786
scalar tree_4_3_u08_r14_network.node[27].content_store 	decision_ratio[27] 	0.016565927915827
scalar tree_4_3_u08_r14_network.node[28].core_layer 	interests[28] 	13632
scalar tree_4_3_u08_r14_network.node[28].core_layer 	data[28] 	9157
scalar tree_4_3_u08_r14_network.node[28].content_store 	p_hit[28] 	0.32827171361502
scalar tree_4_3_u08_r14_network.node[28].content_store 	hits[28] 	4475
scalar tree_4_3_u08_r14_network.node[28].content_store 	misses[28] 	9157
scalar tree_4_3_u08_r14_network.node[28].content_store 	decision_yes[28] 	118
scalar tree_4_3_u08_r14_network.node[28].content_store 	decision_no[28] 	9039
scalar tree_4_3_u08_r14_network.node[28].content_store 	decision_ratio[28] 	0.012886316479196
scalar tree_4_3_u08_r14_network.node[29].core_layer 	interests[29] 	12526
scalar tree_4_3_u08_r14_network.node[29].core_layer 	data[29] 	8906
scalar tree_4_3_u08_r14_network.node[29].content_store 	p_hit[29] 	0.28891904837937
scalar tree_4_3_u08_r14_network.node[29].content_store 	hits[29] 	3619
scalar tree_4_3_u08_r14_network.node[29].content_store 	misses[29] 	8907
scalar tree_4_3_u08_r14_network.node[29].content_store 	decision_yes[29] 	146
scalar tree_4_3_u08_r14_network.node[29].content_store 	decision_no[29] 	8760
scalar tree_4_3_u08_r14_network.node[29].content_store 	decision_ratio[29] 	0.016393442622951
scalar tree_4_3_u08_r14_network.node[30].core_layer 	interests[30] 	12655
scalar tree_4_3_u08_r14_network.node[30].core_layer 	data[30] 	9024
scalar tree_4_3_u08_r14_network.node[30].content_store 	p_hit[30] 	0.28692216515211
scalar tree_4_3_u08_r14_network.node[30].content_store 	hits[30] 	3631
scalar tree_4_3_u08_r14_network.node[30].content_store 	misses[30] 	9024
scalar tree_4_3_u08_r14_network.node[30].content_store 	decision_yes[30] 	126
scalar tree_4_3_u08_r14_network.node[30].content_store 	decision_no[30] 	8898
scalar tree_4_3_u08_r14_network.node[30].content_store 	decision_ratio[30] 	0.013962765957447
scalar tree_4_3_u08_r14_network.node[31].core_layer 	interests[31] 	12557
scalar tree_4_3_u08_r14_network.node[31].core_layer 	data[31] 	8951
scalar tree_4_3_u08_r14_network.node[31].content_store 	p_hit[31] 	0.28717050250856
scalar tree_4_3_u08_r14_network.node[31].content_store 	hits[31] 	3606
scalar tree_4_3_u08_r14_network.node[31].content_store 	misses[31] 	8951
scalar tree_4_3_u08_r14_network.node[31].content_store 	decision_yes[31] 	121
scalar tree_4_3_u08_r14_network.node[31].content_store 	decision_no[31] 	8830
scalar tree_4_3_u08_r14_network.node[31].content_store 	decision_ratio[31] 	0.013518042676796
scalar tree_4_3_u08_r14_network.node[32].core_layer 	interests[32] 	13154
scalar tree_4_3_u08_r14_network.node[32].core_layer 	data[32] 	9041
scalar tree_4_3_u08_r14_network.node[32].content_store 	p_hit[32] 	0.31268055344382
scalar tree_4_3_u08_r14_network.node[32].content_store 	hits[32] 	4113
scalar tree_4_3_u08_r14_network.node[32].content_store 	misses[32] 	9041
scalar tree_4_3_u08_r14_network.node[32].content_store 	decision_yes[32] 	138
scalar tree_4_3_u08_r14_network.node[32].content_store 	decision_no[32] 	8903
scalar tree_4_3_u08_r14_network.node[32].content_store 	decision_ratio[32] 	0.015263798252406
scalar tree_4_3_u08_r14_network.node[33].core_layer 	interests[33] 	13123
scalar tree_4_3_u08_r14_network.node[33].core_layer 	data[33] 	8916
scalar tree_4_3_u08_r14_network.node[33].content_store 	p_hit[33] 	0.32065838603978
scalar tree_4_3_u08_r14_network.node[33].content_store 	hits[33] 	4208
scalar tree_4_3_u08_r14_network.node[33].content_store 	misses[33] 	8915
scalar tree_4_3_u08_r14_network.node[33].content_store 	decision_yes[33] 	122
scalar tree_4_3_u08_r14_network.node[33].content_store 	decision_no[33] 	8794
scalar tree_4_3_u08_r14_network.node[33].content_store 	decision_ratio[33] 	0.013683266038582
scalar tree_4_3_u08_r14_network.node[34].core_layer 	interests[34] 	12971
scalar tree_4_3_u08_r14_network.node[34].core_layer 	data[34] 	9007
scalar tree_4_3_u08_r14_network.node[34].content_store 	p_hit[34] 	0.30560481073163
scalar tree_4_3_u08_r14_network.node[34].content_store 	hits[34] 	3964
scalar tree_4_3_u08_r14_network.node[34].content_store 	misses[34] 	9007
scalar tree_4_3_u08_r14_network.node[34].content_store 	decision_yes[34] 	133
scalar tree_4_3_u08_r14_network.node[34].content_store 	decision_no[34] 	8874
scalar tree_4_3_u08_r14_network.node[34].content_store 	decision_ratio[34] 	0.014766292883313
scalar tree_4_3_u08_r14_network.node[35].core_layer 	interests[35] 	12335
scalar tree_4_3_u08_r14_network.node[35].core_layer 	data[35] 	8901
scalar tree_4_3_u08_r14_network.node[35].content_store 	p_hit[35] 	0.27839481151196
scalar tree_4_3_u08_r14_network.node[35].content_store 	hits[35] 	3434
scalar tree_4_3_u08_r14_network.node[35].content_store 	misses[35] 	8901
scalar tree_4_3_u08_r14_network.node[35].content_store 	decision_yes[35] 	107
scalar tree_4_3_u08_r14_network.node[35].content_store 	decision_no[35] 	8794
scalar tree_4_3_u08_r14_network.node[35].content_store 	decision_ratio[35] 	0.012021121222335
scalar tree_4_3_u08_r14_network.node[36].core_layer 	interests[36] 	12875
scalar tree_4_3_u08_r14_network.node[36].core_layer 	data[36] 	8860
scalar tree_4_3_u08_r14_network.node[36].content_store 	p_hit[36] 	0.31176699029126
scalar tree_4_3_u08_r14_network.node[36].content_store 	hits[36] 	4014
scalar tree_4_3_u08_r14_network.node[36].content_store 	misses[36] 	8861
scalar tree_4_3_u08_r14_network.node[36].content_store 	decision_yes[36] 	132
scalar tree_4_3_u08_r14_network.node[36].content_store 	decision_no[36] 	8728
scalar tree_4_3_u08_r14_network.node[36].content_store 	decision_ratio[36] 	0.01489841986456
scalar tree_4_3_u08_r14_network.node[37].core_layer 	interests[37] 	13173
scalar tree_4_3_u08_r14_network.node[37].core_layer 	data[37] 	9038
scalar tree_4_3_u08_r14_network.node[37].content_store 	p_hit[37] 	0.3138996432096
scalar tree_4_3_u08_r14_network.node[37].content_store 	hits[37] 	4135
scalar tree_4_3_u08_r14_network.node[37].content_store 	misses[37] 	9038
scalar tree_4_3_u08_r14_network.node[37].content_store 	decision_yes[37] 	130
scalar tree_4_3_u08_r14_network.node[37].content_store 	decision_no[37] 	8908
scalar tree_4_3_u08_r14_network.node[37].content_store 	decision_ratio[37] 	0.014383713210887
scalar tree_4_3_u08_r14_network.node[38].core_layer 	interests[38] 	12264
scalar tree_4_3_u08_r14_network.node[38].core_layer 	data[38] 	8815
scalar tree_4_3_u08_r14_network.node[38].content_store 	p_hit[38] 	0.28122961513372
scalar tree_4_3_u08_r14_network.node[38].content_store 	hits[38] 	3449
scalar tree_4_3_u08_r14_network.node[38].content_store 	misses[38] 	8815
scalar tree_4_3_u08_r14_network.node[38].content_store 	decision_yes[38] 	120
scalar tree_4_3_u08_r14_network.node[38].content_store 	decision_no[38] 	8695
scalar tree_4_3_u08_r14_network.node[38].content_store 	decision_ratio[38] 	0.013613159387408
scalar tree_4_3_u08_r14_network.node[39].core_layer 	interests[39] 	12624
scalar tree_4_3_u08_r14_network.node[39].core_layer 	data[39] 	9002
scalar tree_4_3_u08_r14_network.node[39].content_store 	p_hit[39] 	0.28683460076046
scalar tree_4_3_u08_r14_network.node[39].content_store 	hits[39] 	3621
scalar tree_4_3_u08_r14_network.node[39].content_store 	misses[39] 	9003
scalar tree_4_3_u08_r14_network.node[39].content_store 	decision_yes[39] 	141
scalar tree_4_3_u08_r14_network.node[39].content_store 	decision_no[39] 	8861
scalar tree_4_3_u08_r14_network.node[39].content_store 	decision_ratio[39] 	0.015663185958676
scalar tree_4_3_u08_r14_network.client[13] 	hdistance[13] 	2.7239412997903
scalar tree_4_3_u08_r14_network.client[13] 	downloads[13] 	11925
scalar tree_4_3_u08_r14_network.client[13] 	avg_time[13] 	0.004288298926
scalar tree_4_3_u08_r14_network.client[14] 	hdistance[14] 	2.7233755274262
scalar tree_4_3_u08_r14_network.client[14] 	downloads[14] 	11850
scalar tree_4_3_u08_r14_network.client[14] 	avg_time[14] 	0.004289110959
scalar tree_4_3_u08_r14_network.client[15] 	hdistance[15] 	2.6220035326773
scalar tree_4_3_u08_r14_network.client[15] 	downloads[15] 	11889
scalar tree_4_3_u08_r14_network.client[15] 	avg_time[15] 	0.004133229444
scalar tree_4_3_u08_r14_network.client[16] 	hdistance[16] 	2.6358132205358
scalar tree_4_3_u08_r14_network.client[16] 	downloads[16] 	12057
scalar tree_4_3_u08_r14_network.client[16] 	avg_time[16] 	0.004167534541
scalar tree_4_3_u08_r14_network.client[17] 	hdistance[17] 	2.7244179302345
scalar tree_4_3_u08_r14_network.client[17] 	downloads[17] 	12069
scalar tree_4_3_u08_r14_network.client[17] 	avg_time[17] 	0.004332940434
scalar tree_4_3_u08_r14_network.client[18] 	hdistance[18] 	2.6159215555925
scalar tree_4_3_u08_r14_network.client[18] 	downloads[18] 	12034
scalar tree_4_3_u08_r14_network.client[18] 	avg_time[18] 	0.004139072846
scalar tree_4_3_u08_r14_network.client[19] 	hdistance[19] 	2.6227390180879
scalar tree_4_3_u08_r14_network.client[19] 	downloads[19] 	11997
scalar tree_4_3_u08_r14_network.client[19] 	avg_time[19] 	0.004135197488
scalar tree_4_3_u08_r14_network.client[20] 	hdistance[20] 	2.6397699260477
scalar tree_4_3_u08_r14_network.client[20] 	downloads[20] 	12170
scalar tree_4_3_u08_r14_network.client[20] 	avg_time[20] 	0.004175893679
scalar tree_4_3_u08_r14_network.client[21] 	hdistance[21] 	2.6778067008145
scalar tree_4_3_u08_r14_network.client[21] 	downloads[21] 	11909
scalar tree_4_3_u08_r14_network.client[21] 	avg_time[21] 	0.004235699977
scalar tree_4_3_u08_r14_network.client[22] 	hdistance[22] 	2.6663607542133
scalar tree_4_3_u08_r14_network.client[22] 	downloads[22] 	11986
scalar tree_4_3_u08_r14_network.client[22] 	avg_time[22] 	0.004228930745
scalar tree_4_3_u08_r14_network.client[23] 	hdistance[23] 	2.6540807914262
scalar tree_4_3_u08_r14_network.client[23] 	downloads[23] 	12130
scalar tree_4_3_u08_r14_network.client[23] 	avg_time[23] 	0.004177902964
scalar tree_4_3_u08_r14_network.client[24] 	hdistance[24] 	2.6412163278797
scalar tree_4_3_u08_r14_network.client[24] 	downloads[24] 	12102
scalar tree_4_3_u08_r14_network.client[24] 	avg_time[24] 	0.004178479871
scalar tree_4_3_u08_r14_network.client[25] 	hdistance[25] 	2.6456725930896
scalar tree_4_3_u08_r14_network.client[25] 	downloads[25] 	11924
scalar tree_4_3_u08_r14_network.client[25] 	avg_time[25] 	0.004171751479
scalar tree_4_3_u08_r14_network.client[26] 	hdistance[26] 	2.7128257537046
scalar tree_4_3_u08_r14_network.client[26] 	downloads[26] 	11742
scalar tree_4_3_u08_r14_network.client[26] 	avg_time[26] 	0.004250891252
scalar tree_4_3_u08_r14_network.client[27] 	hdistance[27] 	2.6075875809397
scalar tree_4_3_u08_r14_network.client[27] 	downloads[27] 	12046
scalar tree_4_3_u08_r14_network.client[27] 	avg_time[27] 	0.004105426222
scalar tree_4_3_u08_r14_network.client[28] 	hdistance[28] 	2.5991856677525
scalar tree_4_3_u08_r14_network.client[28] 	downloads[28] 	12280
scalar tree_4_3_u08_r14_network.client[28] 	avg_time[28] 	0.004108303132
scalar tree_4_3_u08_r14_network.client[29] 	hdistance[29] 	2.6658847184987
scalar tree_4_3_u08_r14_network.client[29] 	downloads[29] 	11936
scalar tree_4_3_u08_r14_network.client[29] 	avg_time[29] 	0.004218731143
scalar tree_4_3_u08_r14_network.client[30] 	hdistance[30] 	2.6813688844588
scalar tree_4_3_u08_r14_network.client[30] 	downloads[30] 	12039
scalar tree_4_3_u08_r14_network.client[30] 	avg_time[30] 	0.004233571233
scalar tree_4_3_u08_r14_network.client[31] 	hdistance[31] 	2.6850842625975
scalar tree_4_3_u08_r14_network.client[31] 	downloads[31] 	11927
scalar tree_4_3_u08_r14_network.client[31] 	avg_time[31] 	0.004260009258
scalar tree_4_3_u08_r14_network.client[32] 	hdistance[32] 	2.6095348069944
scalar tree_4_3_u08_r14_network.client[32] 	downloads[32] 	12124
scalar tree_4_3_u08_r14_network.client[32] 	avg_time[32] 	0.00412371853
scalar tree_4_3_u08_r14_network.client[33] 	hdistance[33] 	2.6228739002933
scalar tree_4_3_u08_r14_network.client[33] 	downloads[33] 	11935
scalar tree_4_3_u08_r14_network.client[33] 	avg_time[33] 	0.004137407971
scalar tree_4_3_u08_r14_network.client[34] 	hdistance[34] 	2.6503519946363
scalar tree_4_3_u08_r14_network.client[34] 	downloads[34] 	11932
scalar tree_4_3_u08_r14_network.client[34] 	avg_time[34] 	0.00418661682
scalar tree_4_3_u08_r14_network.client[35] 	hdistance[35] 	2.7026548672566
scalar tree_4_3_u08_r14_network.client[35] 	downloads[35] 	11865
scalar tree_4_3_u08_r14_network.client[35] 	avg_time[35] 	0.004274586159
scalar tree_4_3_u08_r14_network.client[36] 	hdistance[36] 	2.6276773761713
scalar tree_4_3_u08_r14_network.client[36] 	downloads[36] 	11952
scalar tree_4_3_u08_r14_network.client[36] 	avg_time[36] 	0.004140224577
scalar tree_4_3_u08_r14_network.client[37] 	hdistance[37] 	2.6223862238623
scalar tree_4_3_u08_r14_network.client[37] 	downloads[37] 	12195
scalar tree_4_3_u08_r14_network.client[37] 	avg_time[37] 	0.004128468168
scalar tree_4_3_u08_r14_network.client[38] 	hdistance[38] 	2.7087280108254
scalar tree_4_3_u08_r14_network.client[38] 	downloads[38] 	11824
scalar tree_4_3_u08_r14_network.client[38] 	avg_time[38] 	0.004248643888
scalar tree_4_3_u08_r14_network.client[39] 	hdistance[39] 	2.6842581919974
scalar tree_4_3_u08_r14_network.client[39] 	downloads[39] 	12146
scalar tree_4_3_u08_r14_network.client[39] 	avg_time[39] 	0.004213434432
