version 2
run General-174-20160902-15:56:18-7280
attr a 0.9
attr cd wfc0.01
attr configname General
attr cr lru
attr datetime 20160902-15:56:18
attr experiment General
attr fsize 1
attr inifile hw5115/scenario_Y/omnetp.ini
attr iterationvars "$name=tree_4_3, $un=08, $rep=15, $cd=wfc0.01, $cr=lru, $fsize=1, $a=0.9, $sl=nrr, $ttl=1000, $variance=0.05"
attr iterationvars2 "$name=tree_4_3, $un=08, $rep=15, $cd=wfc0.01, $cr=lru, $fsize=1, $a=0.9, $sl=nrr, $ttl=1000, $variance=0.05, $repetition=0"
attr measurement "$name=tree_4_3, $un=08, $rep=15, $cd=wfc0.01, $cr=lru, $fsize=1, $a=0.9, $sl=nrr, $ttl=1000, $variance=0.05"
attr name tree_4_3
attr network networks.${name}_u${un}_r${rep}_network
attr processid 7280
attr rep 15
attr repetition 0
attr replication #0
attr resultdir results
attr runnumber 174
attr seedset 15
attr sl nrr
attr ttl 1000
attr un 08
attr variance 0.05

scalar . 	a 	0.9
scalar . 	fsize 	1
scalar . 	rep 	15
scalar . 	ttl 	1000
scalar . 	un 	08
scalar . 	variance 	0.05
scalar tree_4_3_u08_r15_network.content_distribution 	repo-0 	0
scalar tree_4_3_u08_r15_network.content_distribution 	client-0 	13
scalar tree_4_3_u08_r15_network.content_distribution 	client-1 	14
scalar tree_4_3_u08_r15_network.content_distribution 	client-2 	15
scalar tree_4_3_u08_r15_network.content_distribution 	client-3 	16
scalar tree_4_3_u08_r15_network.content_distribution 	client-4 	17
scalar tree_4_3_u08_r15_network.content_distribution 	client-5 	18
scalar tree_4_3_u08_r15_network.content_distribution 	client-6 	19
scalar tree_4_3_u08_r15_network.content_distribution 	client-7 	20
scalar tree_4_3_u08_r15_network.content_distribution 	client-8 	21
scalar tree_4_3_u08_r15_network.content_distribution 	client-9 	22
scalar tree_4_3_u08_r15_network.content_distribution 	client-10 	23
scalar tree_4_3_u08_r15_network.content_distribution 	client-11 	24
scalar tree_4_3_u08_r15_network.content_distribution 	client-12 	25
scalar tree_4_3_u08_r15_network.content_distribution 	client-13 	26
scalar tree_4_3_u08_r15_network.content_distribution 	client-14 	27
scalar tree_4_3_u08_r15_network.content_distribution 	client-15 	28
scalar tree_4_3_u08_r15_network.content_distribution 	client-16 	29
scalar tree_4_3_u08_r15_network.content_distribution 	client-17 	30
scalar tree_4_3_u08_r15_network.content_distribution 	client-18 	31
scalar tree_4_3_u08_r15_network.content_distribution 	client-19 	32
scalar tree_4_3_u08_r15_network.content_distribution 	client-20 	33
scalar tree_4_3_u08_r15_network.content_distribution 	client-21 	34
scalar tree_4_3_u08_r15_network.content_distribution 	client-22 	35
scalar tree_4_3_u08_r15_network.content_distribution 	client-23 	36
scalar tree_4_3_u08_r15_network.content_distribution 	client-24 	37
scalar tree_4_3_u08_r15_network.content_distribution 	client-25 	38
scalar tree_4_3_u08_r15_network.content_distribution 	client-26 	39
scalar tree_4_3_u08_r15_network.content_distribution 	repo-0_card 	100000
scalar tree_4_3_u08_r15_network.content_distribution 	repo-0_price 	0
scalar tree_4_3_u08_r15_network.statistics 	stabilization_time 	1000.5
scalar tree_4_3_u08_r15_network.statistics 	p_hit 	0.23408697901641
scalar tree_4_3_u08_r15_network.statistics 	interests 	25021.05
scalar tree_4_3_u08_r15_network.statistics 	data 	16918.125
scalar tree_4_3_u08_r15_network.statistics 	hdistance 	2.6591640837825
scalar tree_4_3_u08_r15_network.statistics 	avg_time 	0.00417590006
scalar tree_4_3_u08_r15_network.statistics 	downloads 	324106
scalar tree_4_3_u08_r15_network.statistics 	total_cost 	0
scalar tree_4_3_u08_r15_network.statistics 	total_replicas 	100000
scalar tree_4_3_u08_r15_network.statistics 	inner_hit 	0.42875787550986
scalar tree_4_3_u08_r15_network.node[0].core_layer 	interests[0] 	187247
scalar tree_4_3_u08_r15_network.node[0].core_layer 	repo_load[0] 	185143
scalar tree_4_3_u08_r15_network.node[0].core_layer 	data[0] 	0
scalar tree_4_3_u08_r15_network.node[0].core_layer 	repo_int[0] 	185143
scalar tree_4_3_u08_r15_network.node[0].content_store 	p_hit[0] 	0.011236495110736
scalar tree_4_3_u08_r15_network.node[0].content_store 	hits[0] 	2104
scalar tree_4_3_u08_r15_network.node[0].content_store 	misses[0] 	185143
scalar tree_4_3_u08_r15_network.node[0].content_store 	decision_yes[0] 	2659
scalar tree_4_3_u08_r15_network.node[0].content_store 	decision_no[0] 	182484
scalar tree_4_3_u08_r15_network.node[0].content_store 	decision_ratio[0] 	0.014361871634358
scalar tree_4_3_u08_r15_network.node[1].core_layer 	interests[1] 	102254
scalar tree_4_3_u08_r15_network.node[1].core_layer 	data[1] 	100912
scalar tree_4_3_u08_r15_network.node[1].content_store 	p_hit[1] 	0.013114401392611
scalar tree_4_3_u08_r15_network.node[1].content_store 	hits[1] 	1341
scalar tree_4_3_u08_r15_network.node[1].content_store 	misses[1] 	100913
scalar tree_4_3_u08_r15_network.node[1].content_store 	decision_yes[1] 	1087
scalar tree_4_3_u08_r15_network.node[1].content_store 	decision_no[1] 	99825
scalar tree_4_3_u08_r15_network.node[1].content_store 	decision_ratio[1] 	0.010771761534803
scalar tree_4_3_u08_r15_network.node[2].core_layer 	interests[2] 	65504
scalar tree_4_3_u08_r15_network.node[2].core_layer 	data[2] 	62356
scalar tree_4_3_u08_r15_network.node[2].content_store 	p_hit[2] 	0.048027601367855
scalar tree_4_3_u08_r15_network.node[2].content_store 	hits[2] 	3146
scalar tree_4_3_u08_r15_network.node[2].content_store 	misses[2] 	62358
scalar tree_4_3_u08_r15_network.node[2].content_store 	decision_yes[2] 	827
scalar tree_4_3_u08_r15_network.node[2].content_store 	decision_no[2] 	61529
scalar tree_4_3_u08_r15_network.node[2].content_store 	decision_ratio[2] 	0.013262556931169
scalar tree_4_3_u08_r15_network.node[3].core_layer 	interests[3] 	43190
scalar tree_4_3_u08_r15_network.node[3].core_layer 	data[3] 	40752
scalar tree_4_3_u08_r15_network.node[3].content_store 	p_hit[3] 	0.056448251910164
scalar tree_4_3_u08_r15_network.node[3].content_store 	hits[3] 	2438
scalar tree_4_3_u08_r15_network.node[3].content_store 	misses[3] 	40752
scalar tree_4_3_u08_r15_network.node[3].content_store 	decision_yes[3] 	567
scalar tree_4_3_u08_r15_network.node[3].content_store 	decision_no[3] 	40185
scalar tree_4_3_u08_r15_network.node[3].content_store 	decision_ratio[3] 	0.013913427561837
scalar tree_4_3_u08_r15_network.node[4].core_layer 	interests[4] 	33416
scalar tree_4_3_u08_r15_network.node[4].core_layer 	data[4] 	31598
scalar tree_4_3_u08_r15_network.node[4].content_store 	p_hit[4] 	0.054405075412976
scalar tree_4_3_u08_r15_network.node[4].content_store 	hits[4] 	1818
scalar tree_4_3_u08_r15_network.node[4].content_store 	misses[4] 	31598
scalar tree_4_3_u08_r15_network.node[4].content_store 	decision_yes[4] 	448
scalar tree_4_3_u08_r15_network.node[4].content_store 	decision_no[4] 	31150
scalar tree_4_3_u08_r15_network.node[4].content_store 	decision_ratio[4] 	0.014178112538768
scalar tree_4_3_u08_r15_network.node[5].core_layer 	interests[5] 	37815
scalar tree_4_3_u08_r15_network.node[5].core_layer 	data[5] 	34452
scalar tree_4_3_u08_r15_network.node[5].content_store 	p_hit[5] 	0.088932963109877
scalar tree_4_3_u08_r15_network.node[5].content_store 	hits[5] 	3363
scalar tree_4_3_u08_r15_network.node[5].content_store 	misses[5] 	34452
scalar tree_4_3_u08_r15_network.node[5].content_store 	decision_yes[5] 	615
scalar tree_4_3_u08_r15_network.node[5].content_store 	decision_no[5] 	33837
scalar tree_4_3_u08_r15_network.node[5].content_store 	decision_ratio[5] 	0.017850923023337
scalar tree_4_3_u08_r15_network.node[6].core_layer 	interests[6] 	15650
scalar tree_4_3_u08_r15_network.node[6].core_layer 	data[6] 	11849
scalar tree_4_3_u08_r15_network.node[6].content_store 	p_hit[6] 	0.24281150159744
scalar tree_4_3_u08_r15_network.node[6].content_store 	hits[6] 	3800
scalar tree_4_3_u08_r15_network.node[6].content_store 	misses[6] 	11850
scalar tree_4_3_u08_r15_network.node[6].content_store 	decision_yes[6] 	460
scalar tree_4_3_u08_r15_network.node[6].content_store 	decision_no[6] 	11389
scalar tree_4_3_u08_r15_network.node[6].content_store 	decision_ratio[6] 	0.038821841505612
scalar tree_4_3_u08_r15_network.node[7].core_layer 	interests[7] 	44765
scalar tree_4_3_u08_r15_network.node[7].core_layer 	data[7] 	41862
scalar tree_4_3_u08_r15_network.node[7].content_store 	p_hit[7] 	0.064805093264827
scalar tree_4_3_u08_r15_network.node[7].content_store 	hits[7] 	2901
scalar tree_4_3_u08_r15_network.node[7].content_store 	misses[7] 	41864
scalar tree_4_3_u08_r15_network.node[7].content_store 	decision_yes[7] 	610
scalar tree_4_3_u08_r15_network.node[7].content_store 	decision_no[7] 	41252
scalar tree_4_3_u08_r15_network.node[7].content_store 	decision_ratio[7] 	0.014571687926998
scalar tree_4_3_u08_r15_network.node[8].core_layer 	interests[8] 	28464
scalar tree_4_3_u08_r15_network.node[8].core_layer 	data[8] 	25756
scalar tree_4_3_u08_r15_network.node[8].content_store 	p_hit[8] 	0.095102585722316
scalar tree_4_3_u08_r15_network.node[8].content_store 	hits[8] 	2707
scalar tree_4_3_u08_r15_network.node[8].content_store 	misses[8] 	25757
scalar tree_4_3_u08_r15_network.node[8].content_store 	decision_yes[8] 	398
scalar tree_4_3_u08_r15_network.node[8].content_store 	decision_no[8] 	25358
scalar tree_4_3_u08_r15_network.node[8].content_store 	decision_ratio[8] 	0.015452710048144
scalar tree_4_3_u08_r15_network.node[9].core_layer 	interests[9] 	12584
scalar tree_4_3_u08_r15_network.node[9].core_layer 	data[9] 	9310
scalar tree_4_3_u08_r15_network.node[9].content_store 	p_hit[9] 	0.26017164653528
scalar tree_4_3_u08_r15_network.node[9].content_store 	hits[9] 	3274
scalar tree_4_3_u08_r15_network.node[9].content_store 	misses[9] 	9310
scalar tree_4_3_u08_r15_network.node[9].content_store 	decision_yes[9] 	253
scalar tree_4_3_u08_r15_network.node[9].content_store 	decision_no[9] 	9057
scalar tree_4_3_u08_r15_network.node[9].content_store 	decision_ratio[9] 	0.027175080558539
scalar tree_4_3_u08_r15_network.node[10].core_layer 	interests[10] 	28831
scalar tree_4_3_u08_r15_network.node[10].core_layer 	data[10] 	26384
scalar tree_4_3_u08_r15_network.node[10].content_store 	p_hit[10] 	0.084873920432867
scalar tree_4_3_u08_r15_network.node[10].content_store 	hits[10] 	2447
scalar tree_4_3_u08_r15_network.node[10].content_store 	misses[10] 	26384
scalar tree_4_3_u08_r15_network.node[10].content_store 	decision_yes[10] 	431
scalar tree_4_3_u08_r15_network.node[10].content_store 	decision_no[10] 	25953
scalar tree_4_3_u08_r15_network.node[10].content_store 	decision_ratio[10] 	0.01633565797453
scalar tree_4_3_u08_r15_network.node[11].core_layer 	interests[11] 	35751
scalar tree_4_3_u08_r15_network.node[11].core_layer 	data[11] 	32664
scalar tree_4_3_u08_r15_network.node[11].content_store 	p_hit[11] 	0.086347235042376
scalar tree_4_3_u08_r15_network.node[11].content_store 	hits[11] 	3087
scalar tree_4_3_u08_r15_network.node[11].content_store 	misses[11] 	32664
scalar tree_4_3_u08_r15_network.node[11].content_store 	decision_yes[11] 	491
scalar tree_4_3_u08_r15_network.node[11].content_store 	decision_no[11] 	32173
scalar tree_4_3_u08_r15_network.node[11].content_store 	decision_ratio[11] 	0.015031839333823
scalar tree_4_3_u08_r15_network.node[12].core_layer 	interests[12] 	20457
scalar tree_4_3_u08_r15_network.node[12].core_layer 	data[12] 	17874
scalar tree_4_3_u08_r15_network.node[12].content_store 	p_hit[12] 	0.12626484821821
scalar tree_4_3_u08_r15_network.node[12].content_store 	hits[12] 	2583
scalar tree_4_3_u08_r15_network.node[12].content_store 	misses[12] 	17874
scalar tree_4_3_u08_r15_network.node[12].content_store 	decision_yes[12] 	335
scalar tree_4_3_u08_r15_network.node[12].content_store 	decision_no[12] 	17539
scalar tree_4_3_u08_r15_network.node[12].content_store 	decision_ratio[12] 	0.018742307261945
scalar tree_4_3_u08_r15_network.node[13].core_layer 	interests[13] 	12251
scalar tree_4_3_u08_r15_network.node[13].core_layer 	data[13] 	8845
scalar tree_4_3_u08_r15_network.node[13].content_store 	p_hit[13] 	0.27801812096972
scalar tree_4_3_u08_r15_network.node[13].content_store 	hits[13] 	3406
scalar tree_4_3_u08_r15_network.node[13].content_store 	misses[13] 	8845
scalar tree_4_3_u08_r15_network.node[13].content_store 	decision_yes[13] 	96
scalar tree_4_3_u08_r15_network.node[13].content_store 	decision_no[13] 	8749
scalar tree_4_3_u08_r15_network.node[13].content_store 	decision_ratio[13] 	0.010853589598643
scalar tree_4_3_u08_r15_network.node[14].core_layer 	interests[14] 	13258
scalar tree_4_3_u08_r15_network.node[14].core_layer 	data[14] 	9136
scalar tree_4_3_u08_r15_network.node[14].content_store 	p_hit[14] 	0.31090662241665
scalar tree_4_3_u08_r15_network.node[14].content_store 	hits[14] 	4122
scalar tree_4_3_u08_r15_network.node[14].content_store 	misses[14] 	9136
scalar tree_4_3_u08_r15_network.node[14].content_store 	decision_yes[14] 	142
scalar tree_4_3_u08_r15_network.node[14].content_store 	decision_no[14] 	8994
scalar tree_4_3_u08_r15_network.node[14].content_store 	decision_ratio[14] 	0.015542907180385
scalar tree_4_3_u08_r15_network.node[15].core_layer 	interests[15] 	12930
scalar tree_4_3_u08_r15_network.node[15].core_layer 	data[15] 	8950
scalar tree_4_3_u08_r15_network.node[15].content_store 	p_hit[15] 	0.30781129156999
scalar tree_4_3_u08_r15_network.node[15].content_store 	hits[15] 	3980
scalar tree_4_3_u08_r15_network.node[15].content_store 	misses[15] 	8950
scalar tree_4_3_u08_r15_network.node[15].content_store 	decision_yes[15] 	161
scalar tree_4_3_u08_r15_network.node[15].content_store 	decision_no[15] 	8789
scalar tree_4_3_u08_r15_network.node[15].content_store 	decision_ratio[15] 	0.017988826815642
scalar tree_4_3_u08_r15_network.node[16].core_layer 	interests[16] 	12619
scalar tree_4_3_u08_r15_network.node[16].core_layer 	data[16] 	8925
scalar tree_4_3_u08_r15_network.node[16].content_store 	p_hit[16] 	0.29273318012521
scalar tree_4_3_u08_r15_network.node[16].content_store 	hits[16] 	3694
scalar tree_4_3_u08_r15_network.node[16].content_store 	misses[16] 	8925
scalar tree_4_3_u08_r15_network.node[16].content_store 	decision_yes[16] 	118
scalar tree_4_3_u08_r15_network.node[16].content_store 	decision_no[16] 	8807
scalar tree_4_3_u08_r15_network.node[16].content_store 	decision_ratio[16] 	0.013221288515406
scalar tree_4_3_u08_r15_network.node[17].core_layer 	interests[17] 	12587
scalar tree_4_3_u08_r15_network.node[17].core_layer 	data[17] 	8883
scalar tree_4_3_u08_r15_network.node[17].content_store 	p_hit[17] 	0.29427186780011
scalar tree_4_3_u08_r15_network.node[17].content_store 	hits[17] 	3704
scalar tree_4_3_u08_r15_network.node[17].content_store 	misses[17] 	8883
scalar tree_4_3_u08_r15_network.node[17].content_store 	decision_yes[17] 	110
scalar tree_4_3_u08_r15_network.node[17].content_store 	decision_no[17] 	8773
scalar tree_4_3_u08_r15_network.node[17].content_store 	decision_ratio[17] 	0.012383203872566
scalar tree_4_3_u08_r15_network.node[18].core_layer 	interests[18] 	13145
scalar tree_4_3_u08_r15_network.node[18].core_layer 	data[18] 	8782
scalar tree_4_3_u08_r15_network.node[18].content_store 	p_hit[18] 	0.33191327500951
scalar tree_4_3_u08_r15_network.node[18].content_store 	hits[18] 	4363
scalar tree_4_3_u08_r15_network.node[18].content_store 	misses[18] 	8782
scalar tree_4_3_u08_r15_network.node[18].content_store 	decision_yes[18] 	116
scalar tree_4_3_u08_r15_network.node[18].content_store 	decision_no[18] 	8666
scalar tree_4_3_u08_r15_network.node[18].content_store 	decision_ratio[18] 	0.013208836255978
scalar tree_4_3_u08_r15_network.node[19].core_layer 	interests[19] 	12985
scalar tree_4_3_u08_r15_network.node[19].core_layer 	data[19] 	9011
scalar tree_4_3_u08_r15_network.node[19].content_store 	p_hit[19] 	0.30604543704274
scalar tree_4_3_u08_r15_network.node[19].content_store 	hits[19] 	3974
scalar tree_4_3_u08_r15_network.node[19].content_store 	misses[19] 	9011
scalar tree_4_3_u08_r15_network.node[19].content_store 	decision_yes[19] 	149
scalar tree_4_3_u08_r15_network.node[19].content_store 	decision_no[19] 	8862
scalar tree_4_3_u08_r15_network.node[19].content_store 	decision_ratio[19] 	0.016535345688603
scalar tree_4_3_u08_r15_network.node[20].core_layer 	interests[20] 	13131
scalar tree_4_3_u08_r15_network.node[20].core_layer 	data[20] 	8992
scalar tree_4_3_u08_r15_network.node[20].content_store 	p_hit[20] 	0.31513213007387
scalar tree_4_3_u08_r15_network.node[20].content_store 	hits[20] 	4138
scalar tree_4_3_u08_r15_network.node[20].content_store 	misses[20] 	8993
scalar tree_4_3_u08_r15_network.node[20].content_store 	decision_yes[20] 	146
scalar tree_4_3_u08_r15_network.node[20].content_store 	decision_no[20] 	8846
scalar tree_4_3_u08_r15_network.node[20].content_store 	decision_ratio[20] 	0.01623665480427
scalar tree_4_3_u08_r15_network.node[21].core_layer 	interests[21] 	12531
scalar tree_4_3_u08_r15_network.node[21].core_layer 	data[21] 	8891
scalar tree_4_3_u08_r15_network.node[21].content_store 	p_hit[21] 	0.2904796105658
scalar tree_4_3_u08_r15_network.node[21].content_store 	hits[21] 	3640
scalar tree_4_3_u08_r15_network.node[21].content_store 	misses[21] 	8891
scalar tree_4_3_u08_r15_network.node[21].content_store 	decision_yes[21] 	110
scalar tree_4_3_u08_r15_network.node[21].content_store 	decision_no[21] 	8781
scalar tree_4_3_u08_r15_network.node[21].content_store 	decision_ratio[21] 	0.012372061635362
scalar tree_4_3_u08_r15_network.node[22].core_layer 	interests[22] 	12793
scalar tree_4_3_u08_r15_network.node[22].core_layer 	data[22] 	9074
scalar tree_4_3_u08_r15_network.node[22].content_store 	p_hit[22] 	0.29062768701634
scalar tree_4_3_u08_r15_network.node[22].content_store 	hits[22] 	3718
scalar tree_4_3_u08_r15_network.node[22].content_store 	misses[22] 	9075
scalar tree_4_3_u08_r15_network.node[22].content_store 	decision_yes[22] 	107
scalar tree_4_3_u08_r15_network.node[22].content_store 	decision_no[22] 	8967
scalar tree_4_3_u08_r15_network.node[22].content_store 	decision_ratio[22] 	0.011791932995371
scalar tree_4_3_u08_r15_network.node[23].core_layer 	interests[23] 	13043
scalar tree_4_3_u08_r15_network.node[23].core_layer 	data[23] 	9039
scalar tree_4_3_u08_r15_network.node[23].content_store 	p_hit[23] 	0.30698458943495
scalar tree_4_3_u08_r15_network.node[23].content_store 	hits[23] 	4004
scalar tree_4_3_u08_r15_network.node[23].content_store 	misses[23] 	9039
scalar tree_4_3_u08_r15_network.node[23].content_store 	decision_yes[23] 	146
scalar tree_4_3_u08_r15_network.node[23].content_store 	decision_no[23] 	8893
scalar tree_4_3_u08_r15_network.node[23].content_store 	decision_ratio[23] 	0.016152229228897
scalar tree_4_3_u08_r15_network.node[24].core_layer 	interests[24] 	12842
scalar tree_4_3_u08_r15_network.node[24].core_layer 	data[24] 	8916
scalar tree_4_3_u08_r15_network.node[24].content_store 	p_hit[24] 	0.30571562061984
scalar tree_4_3_u08_r15_network.node[24].content_store 	hits[24] 	3926
scalar tree_4_3_u08_r15_network.node[24].content_store 	misses[24] 	8916
scalar tree_4_3_u08_r15_network.node[24].content_store 	decision_yes[24] 	138
scalar tree_4_3_u08_r15_network.node[24].content_store 	decision_no[24] 	8778
scalar tree_4_3_u08_r15_network.node[24].content_store 	decision_ratio[24] 	0.015477792732167
scalar tree_4_3_u08_r15_network.node[25].core_layer 	interests[25] 	12842
scalar tree_4_3_u08_r15_network.node[25].core_layer 	data[25] 	8675
scalar tree_4_3_u08_r15_network.node[25].content_store 	p_hit[25] 	0.32440429839589
scalar tree_4_3_u08_r15_network.node[25].content_store 	hits[25] 	4166
scalar tree_4_3_u08_r15_network.node[25].content_store 	misses[25] 	8676
scalar tree_4_3_u08_r15_network.node[25].content_store 	decision_yes[25] 	104
scalar tree_4_3_u08_r15_network.node[25].content_store 	decision_no[25] 	8571
scalar tree_4_3_u08_r15_network.node[25].content_store 	decision_ratio[25] 	0.011988472622478
scalar tree_4_3_u08_r15_network.node[26].core_layer 	interests[26] 	12548
scalar tree_4_3_u08_r15_network.node[26].core_layer 	data[26] 	8941
scalar tree_4_3_u08_r15_network.node[26].content_store 	p_hit[26] 	0.28745616831368
scalar tree_4_3_u08_r15_network.node[26].content_store 	hits[26] 	3607
scalar tree_4_3_u08_r15_network.node[26].content_store 	misses[26] 	8941
scalar tree_4_3_u08_r15_network.node[26].content_store 	decision_yes[26] 	116
scalar tree_4_3_u08_r15_network.node[26].content_store 	decision_no[26] 	8825
scalar tree_4_3_u08_r15_network.node[26].content_store 	decision_ratio[26] 	0.012973940275137
scalar tree_4_3_u08_r15_network.node[27].core_layer 	interests[27] 	13062
scalar tree_4_3_u08_r15_network.node[27].core_layer 	data[27] 	9004
scalar tree_4_3_u08_r15_network.node[27].content_store 	p_hit[27] 	0.31067217883938
scalar tree_4_3_u08_r15_network.node[27].content_store 	hits[27] 	4058
scalar tree_4_3_u08_r15_network.node[27].content_store 	misses[27] 	9004
scalar tree_4_3_u08_r15_network.node[27].content_store 	decision_yes[27] 	142
scalar tree_4_3_u08_r15_network.node[27].content_store 	decision_no[27] 	8862
scalar tree_4_3_u08_r15_network.node[27].content_store 	decision_ratio[27] 	0.015770768547312
scalar tree_4_3_u08_r15_network.node[28].core_layer 	interests[28] 	12949
scalar tree_4_3_u08_r15_network.node[28].core_layer 	data[28] 	8941
scalar tree_4_3_u08_r15_network.node[28].content_store 	p_hit[28] 	0.30952197080856
scalar tree_4_3_u08_r15_network.node[28].content_store 	hits[28] 	4008
scalar tree_4_3_u08_r15_network.node[28].content_store 	misses[28] 	8941
scalar tree_4_3_u08_r15_network.node[28].content_store 	decision_yes[28] 	118
scalar tree_4_3_u08_r15_network.node[28].content_store 	decision_no[28] 	8823
scalar tree_4_3_u08_r15_network.node[28].content_store 	decision_ratio[28] 	0.01319762890057
scalar tree_4_3_u08_r15_network.node[29].core_layer 	interests[29] 	13035
scalar tree_4_3_u08_r15_network.node[29].core_layer 	data[29] 	9081
scalar tree_4_3_u08_r15_network.node[29].content_store 	p_hit[29] 	0.30333716915995
scalar tree_4_3_u08_r15_network.node[29].content_store 	hits[29] 	3954
scalar tree_4_3_u08_r15_network.node[29].content_store 	misses[29] 	9081
scalar tree_4_3_u08_r15_network.node[29].content_store 	decision_yes[29] 	143
scalar tree_4_3_u08_r15_network.node[29].content_store 	decision_no[29] 	8938
scalar tree_4_3_u08_r15_network.node[29].content_store 	decision_ratio[29] 	0.015747164409206
scalar tree_4_3_u08_r15_network.node[30].core_layer 	interests[30] 	12169
scalar tree_4_3_u08_r15_network.node[30].core_layer 	data[30] 	8807
scalar tree_4_3_u08_r15_network.node[30].content_store 	p_hit[30] 	0.2762757827266
scalar tree_4_3_u08_r15_network.node[30].content_store 	hits[30] 	3362
scalar tree_4_3_u08_r15_network.node[30].content_store 	misses[30] 	8807
scalar tree_4_3_u08_r15_network.node[30].content_store 	decision_yes[30] 	125
scalar tree_4_3_u08_r15_network.node[30].content_store 	decision_no[30] 	8682
scalar tree_4_3_u08_r15_network.node[30].content_store 	decision_ratio[30] 	0.014193255365051
scalar tree_4_3_u08_r15_network.node[31].core_layer 	interests[31] 	12521
scalar tree_4_3_u08_r15_network.node[31].core_layer 	data[31] 	8984
scalar tree_4_3_u08_r15_network.node[31].content_store 	p_hit[31] 	0.28248542448686
scalar tree_4_3_u08_r15_network.node[31].content_store 	hits[31] 	3537
scalar tree_4_3_u08_r15_network.node[31].content_store 	misses[31] 	8984
scalar tree_4_3_u08_r15_network.node[31].content_store 	decision_yes[31] 	108
scalar tree_4_3_u08_r15_network.node[31].content_store 	decision_no[31] 	8876
scalar tree_4_3_u08_r15_network.node[31].content_store 	decision_ratio[31] 	0.012021371326803
scalar tree_4_3_u08_r15_network.node[32].core_layer 	interests[32] 	13079
scalar tree_4_3_u08_r15_network.node[32].core_layer 	data[32] 	9130
scalar tree_4_3_u08_r15_network.node[32].content_store 	p_hit[32] 	0.30193439865433
scalar tree_4_3_u08_r15_network.node[32].content_store 	hits[32] 	3949
scalar tree_4_3_u08_r15_network.node[32].content_store 	misses[32] 	9130
scalar tree_4_3_u08_r15_network.node[32].content_store 	decision_yes[32] 	140
scalar tree_4_3_u08_r15_network.node[32].content_store 	decision_no[32] 	8990
scalar tree_4_3_u08_r15_network.node[32].content_store 	decision_ratio[32] 	0.015334063526835
scalar tree_4_3_u08_r15_network.node[33].core_layer 	interests[33] 	12718
scalar tree_4_3_u08_r15_network.node[33].core_layer 	data[33] 	8709
scalar tree_4_3_u08_r15_network.node[33].content_store 	p_hit[33] 	0.31514389054883
scalar tree_4_3_u08_r15_network.node[33].content_store 	hits[33] 	4008
scalar tree_4_3_u08_r15_network.node[33].content_store 	misses[33] 	8710
scalar tree_4_3_u08_r15_network.node[33].content_store 	decision_yes[33] 	120
scalar tree_4_3_u08_r15_network.node[33].content_store 	decision_no[33] 	8589
scalar tree_4_3_u08_r15_network.node[33].content_store 	decision_ratio[33] 	0.01377884946607
scalar tree_4_3_u08_r15_network.node[34].core_layer 	interests[34] 	12828
scalar tree_4_3_u08_r15_network.node[34].core_layer 	data[34] 	8903
scalar tree_4_3_u08_r15_network.node[34].content_store 	p_hit[34] 	0.30597131275335
scalar tree_4_3_u08_r15_network.node[34].content_store 	hits[34] 	3925
scalar tree_4_3_u08_r15_network.node[34].content_store 	misses[34] 	8903
scalar tree_4_3_u08_r15_network.node[34].content_store 	decision_yes[34] 	126
scalar tree_4_3_u08_r15_network.node[34].content_store 	decision_no[34] 	8777
scalar tree_4_3_u08_r15_network.node[34].content_store 	decision_ratio[34] 	0.014152532854094
scalar tree_4_3_u08_r15_network.node[35].core_layer 	interests[35] 	12530
scalar tree_4_3_u08_r15_network.node[35].core_layer 	data[35] 	9007
scalar tree_4_3_u08_r15_network.node[35].content_store 	p_hit[35] 	0.28116520351157
scalar tree_4_3_u08_r15_network.node[35].content_store 	hits[35] 	3523
scalar tree_4_3_u08_r15_network.node[35].content_store 	misses[35] 	9007
scalar tree_4_3_u08_r15_network.node[35].content_store 	decision_yes[35] 	118
scalar tree_4_3_u08_r15_network.node[35].content_store 	decision_no[35] 	8889
scalar tree_4_3_u08_r15_network.node[35].content_store 	decision_ratio[35] 	0.013100921505496
scalar tree_4_3_u08_r15_network.node[36].core_layer 	interests[36] 	12745
scalar tree_4_3_u08_r15_network.node[36].core_layer 	data[36] 	8679
scalar tree_4_3_u08_r15_network.node[36].content_store 	p_hit[36] 	0.319027069439
scalar tree_4_3_u08_r15_network.node[36].content_store 	hits[36] 	4066
scalar tree_4_3_u08_r15_network.node[36].content_store 	misses[36] 	8679
scalar tree_4_3_u08_r15_network.node[36].content_store 	decision_yes[36] 	120
scalar tree_4_3_u08_r15_network.node[36].content_store 	decision_no[36] 	8559
scalar tree_4_3_u08_r15_network.node[36].content_store 	decision_ratio[36] 	0.013826477704805
scalar tree_4_3_u08_r15_network.node[37].core_layer 	interests[37] 	12794
scalar tree_4_3_u08_r15_network.node[37].core_layer 	data[37] 	8848
scalar tree_4_3_u08_r15_network.node[37].content_store 	p_hit[37] 	0.30842582460528
scalar tree_4_3_u08_r15_network.node[37].content_store 	hits[37] 	3946
scalar tree_4_3_u08_r15_network.node[37].content_store 	misses[37] 	8848
scalar tree_4_3_u08_r15_network.node[37].content_store 	decision_yes[37] 	158
scalar tree_4_3_u08_r15_network.node[37].content_store 	decision_no[37] 	8690
scalar tree_4_3_u08_r15_network.node[37].content_store 	decision_ratio[37] 	0.017857142857143
scalar tree_4_3_u08_r15_network.node[38].core_layer 	interests[38] 	12432
scalar tree_4_3_u08_r15_network.node[38].core_layer 	data[38] 	8867
scalar tree_4_3_u08_r15_network.node[38].content_store 	p_hit[38] 	0.28667953667954
scalar tree_4_3_u08_r15_network.node[38].content_store 	hits[38] 	3564
scalar tree_4_3_u08_r15_network.node[38].content_store 	misses[38] 	8868
scalar tree_4_3_u08_r15_network.node[38].content_store 	decision_yes[38] 	125
scalar tree_4_3_u08_r15_network.node[38].content_store 	decision_no[38] 	8742
scalar tree_4_3_u08_r15_network.node[38].content_store 	decision_ratio[38] 	0.014097214390436
scalar tree_4_3_u08_r15_network.node[39].core_layer 	interests[39] 	12547
scalar tree_4_3_u08_r15_network.node[39].core_layer 	data[39] 	8936
scalar tree_4_3_u08_r15_network.node[39].content_store 	p_hit[39] 	0.28779787997131
scalar tree_4_3_u08_r15_network.node[39].content_store 	hits[39] 	3611
scalar tree_4_3_u08_r15_network.node[39].content_store 	misses[39] 	8936
scalar tree_4_3_u08_r15_network.node[39].content_store 	decision_yes[39] 	106
scalar tree_4_3_u08_r15_network.node[39].content_store 	decision_no[39] 	8830
scalar tree_4_3_u08_r15_network.node[39].content_store 	decision_ratio[39] 	0.011862130707252
scalar tree_4_3_u08_r15_network.client[13] 	hdistance[13] 	2.7413633689165
scalar tree_4_3_u08_r15_network.client[13] 	downloads[13] 	11897
scalar tree_4_3_u08_r15_network.client[13] 	avg_time[13] 	0.004291499082
scalar tree_4_3_u08_r15_network.client[14] 	hdistance[14] 	2.6562551508159
scalar tree_4_3_u08_r15_network.client[14] 	downloads[14] 	12134
scalar tree_4_3_u08_r15_network.client[14] 	avg_time[14] 	0.004179657448
scalar tree_4_3_u08_r15_network.client[15] 	hdistance[15] 	2.6344816164293
scalar tree_4_3_u08_r15_network.client[15] 	downloads[15] 	12076
scalar tree_4_3_u08_r15_network.client[15] 	avg_time[15] 	0.004136300388
scalar tree_4_3_u08_r15_network.client[16] 	hdistance[16] 	2.6795299216536
scalar tree_4_3_u08_r15_network.client[16] 	downloads[16] 	11998
scalar tree_4_3_u08_r15_network.client[16] 	avg_time[16] 	0.004235369607
scalar tree_4_3_u08_r15_network.client[17] 	hdistance[17] 	2.7018963337547
scalar tree_4_3_u08_r15_network.client[17] 	downloads[17] 	11865
scalar tree_4_3_u08_r15_network.client[17] 	avg_time[17] 	0.004267639644
scalar tree_4_3_u08_r15_network.client[18] 	hdistance[18] 	2.5808533825132
scalar tree_4_3_u08_r15_network.client[18] 	downloads[18] 	11929
scalar tree_4_3_u08_r15_network.client[18] 	avg_time[18] 	0.004076952352
scalar tree_4_3_u08_r15_network.client[19] 	hdistance[19] 	2.6615230628075
scalar tree_4_3_u08_r15_network.client[19] 	downloads[19] 	11989
scalar tree_4_3_u08_r15_network.client[19] 	avg_time[19] 	0.004187424494
scalar tree_4_3_u08_r15_network.client[20] 	hdistance[20] 	2.6209482543121
scalar tree_4_3_u08_r15_network.client[20] 	downloads[20] 	12001
scalar tree_4_3_u08_r15_network.client[20] 	avg_time[20] 	0.004131652695
scalar tree_4_3_u08_r15_network.client[21] 	hdistance[21] 	2.669852085757
scalar tree_4_3_u08_r15_network.client[21] 	downloads[21] 	12034
scalar tree_4_3_u08_r15_network.client[21] 	avg_time[21] 	0.004212893795
scalar tree_4_3_u08_r15_network.client[22] 	hdistance[22] 	2.6930213464696
scalar tree_4_3_u08_r15_network.client[22] 	downloads[22] 	12180
scalar tree_4_3_u08_r15_network.client[22] 	avg_time[22] 	0.004251228498
scalar tree_4_3_u08_r15_network.client[23] 	hdistance[23] 	2.6378167964221
scalar tree_4_3_u08_r15_network.client[23] 	downloads[23] 	12074
scalar tree_4_3_u08_r15_network.client[23] 	avg_time[23] 	0.004153218843
scalar tree_4_3_u08_r15_network.client[24] 	hdistance[24] 	2.6284829721362
scalar tree_4_3_u08_r15_network.client[24] 	downloads[24] 	11951
scalar tree_4_3_u08_r15_network.client[24] 	avg_time[24] 	0.004126848327
scalar tree_4_3_u08_r15_network.client[25] 	hdistance[25] 	2.6059731885288
scalar tree_4_3_u08_r15_network.client[25] 	downloads[25] 	11786
scalar tree_4_3_u08_r15_network.client[25] 	avg_time[25] 	0.004098927978
scalar tree_4_3_u08_r15_network.client[26] 	hdistance[26] 	2.6881862461818
scalar tree_4_3_u08_r15_network.client[26] 	downloads[26] 	12113
scalar tree_4_3_u08_r15_network.client[26] 	avg_time[26] 	0.004221738552
scalar tree_4_3_u08_r15_network.client[27] 	hdistance[27] 	2.6174634466897
scalar tree_4_3_u08_r15_network.client[27] 	downloads[27] 	12174
scalar tree_4_3_u08_r15_network.client[27] 	avg_time[27] 	0.004095281983
scalar tree_4_3_u08_r15_network.client[28] 	hdistance[28] 	2.6191621733721
scalar tree_4_3_u08_r15_network.client[28] 	downloads[28] 	12055
scalar tree_4_3_u08_r15_network.client[28] 	avg_time[28] 	0.004115965468
scalar tree_4_3_u08_r15_network.client[29] 	hdistance[29] 	2.649246395806
scalar tree_4_3_u08_r15_network.client[29] 	downloads[29] 	12208
scalar tree_4_3_u08_r15_network.client[29] 	avg_time[29] 	0.004141674066
scalar tree_4_3_u08_r15_network.client[30] 	hdistance[30] 	2.6976428692556
scalar tree_4_3_u08_r15_network.client[30] 	downloads[30] 	11794
scalar tree_4_3_u08_r15_network.client[30] 	avg_time[30] 	0.004235201386
scalar tree_4_3_u08_r15_network.client[31] 	hdistance[31] 	2.7237431557989
scalar tree_4_3_u08_r15_network.client[31] 	downloads[31] 	12054
scalar tree_4_3_u08_r15_network.client[31] 	avg_time[31] 	0.004247051893
scalar tree_4_3_u08_r15_network.client[32] 	hdistance[32] 	2.6738410596027
scalar tree_4_3_u08_r15_network.client[32] 	downloads[32] 	12080
scalar tree_4_3_u08_r15_network.client[32] 	avg_time[32] 	0.004215394322
scalar tree_4_3_u08_r15_network.client[33] 	hdistance[33] 	2.6130351331052
scalar tree_4_3_u08_r15_network.client[33] 	downloads[33] 	11983
scalar tree_4_3_u08_r15_network.client[33] 	avg_time[33] 	0.004047079311
scalar tree_4_3_u08_r15_network.client[34] 	hdistance[34] 	2.6446657663741
scalar tree_4_3_u08_r15_network.client[34] 	downloads[34] 	11848
scalar tree_4_3_u08_r15_network.client[34] 	avg_time[34] 	0.004177748555
scalar tree_4_3_u08_r15_network.client[35] 	hdistance[35] 	2.7066588687443
scalar tree_4_3_u08_r15_network.client[35] 	downloads[35] 	11969
scalar tree_4_3_u08_r15_network.client[35] 	avg_time[35] 	0.00429693075
scalar tree_4_3_u08_r15_network.client[36] 	hdistance[36] 	2.6005089058524
scalar tree_4_3_u08_r15_network.client[36] 	downloads[36] 	11790
scalar tree_4_3_u08_r15_network.client[36] 	avg_time[36] 	0.004092957154
scalar tree_4_3_u08_r15_network.client[37] 	hdistance[37] 	2.6594994120612
scalar tree_4_3_u08_r15_network.client[37] 	downloads[37] 	11906
scalar tree_4_3_u08_r15_network.client[37] 	avg_time[37] 	0.004120944431
scalar tree_4_3_u08_r15_network.client[38] 	hdistance[38] 	2.6966282826609
scalar tree_4_3_u08_r15_network.client[38] 	downloads[38] 	12071
scalar tree_4_3_u08_r15_network.client[38] 	avg_time[38] 	0.004198424835
scalar tree_4_3_u08_r15_network.client[39] 	hdistance[39] 	2.6951510661069
scalar tree_4_3_u08_r15_network.client[39] 	downloads[39] 	12147
scalar tree_4_3_u08_r15_network.client[39] 	avg_time[39] 	0.004193295768
