version 2
run General-167-20160902-15:44:51-7280
attr a 0.9
attr cd wfc0.01
attr configname General
attr cr lru
attr datetime 20160902-15:44:51
attr experiment General
attr fsize 1
attr inifile hw5115/scenario_Y/omnetp.ini
attr iterationvars "$name=tree_4_3, $un=08, $rep=8, $cd=wfc0.01, $cr=lru, $fsize=1, $a=0.9, $sl=nrr, $ttl=1000, $variance=0.05"
attr iterationvars2 "$name=tree_4_3, $un=08, $rep=8, $cd=wfc0.01, $cr=lru, $fsize=1, $a=0.9, $sl=nrr, $ttl=1000, $variance=0.05, $repetition=0"
attr measurement "$name=tree_4_3, $un=08, $rep=8, $cd=wfc0.01, $cr=lru, $fsize=1, $a=0.9, $sl=nrr, $ttl=1000, $variance=0.05"
attr name tree_4_3
attr network networks.${name}_u${un}_r${rep}_network
attr processid 7280
attr rep 8
attr repetition 0
attr replication #0
attr resultdir results
attr runnumber 167
attr seedset 8
attr sl nrr
attr ttl 1000
attr un 08
attr variance 0.05

scalar . 	a 	0.9
scalar . 	fsize 	1
scalar . 	rep 	8
scalar . 	ttl 	1000
scalar . 	un 	08
scalar . 	variance 	0.05
scalar tree_4_3_u08_r8_network.content_distribution 	repo-0 	0
scalar tree_4_3_u08_r8_network.content_distribution 	client-0 	13
scalar tree_4_3_u08_r8_network.content_distribution 	client-1 	14
scalar tree_4_3_u08_r8_network.content_distribution 	client-2 	15
scalar tree_4_3_u08_r8_network.content_distribution 	client-3 	16
scalar tree_4_3_u08_r8_network.content_distribution 	client-4 	17
scalar tree_4_3_u08_r8_network.content_distribution 	client-5 	18
scalar tree_4_3_u08_r8_network.content_distribution 	client-6 	19
scalar tree_4_3_u08_r8_network.content_distribution 	client-7 	20
scalar tree_4_3_u08_r8_network.content_distribution 	client-8 	21
scalar tree_4_3_u08_r8_network.content_distribution 	client-9 	22
scalar tree_4_3_u08_r8_network.content_distribution 	client-10 	23
scalar tree_4_3_u08_r8_network.content_distribution 	client-11 	24
scalar tree_4_3_u08_r8_network.content_distribution 	client-12 	25
scalar tree_4_3_u08_r8_network.content_distribution 	client-13 	26
scalar tree_4_3_u08_r8_network.content_distribution 	client-14 	27
scalar tree_4_3_u08_r8_network.content_distribution 	client-15 	28
scalar tree_4_3_u08_r8_network.content_distribution 	client-16 	29
scalar tree_4_3_u08_r8_network.content_distribution 	client-17 	30
scalar tree_4_3_u08_r8_network.content_distribution 	client-18 	31
scalar tree_4_3_u08_r8_network.content_distribution 	client-19 	32
scalar tree_4_3_u08_r8_network.content_distribution 	client-20 	33
scalar tree_4_3_u08_r8_network.content_distribution 	client-21 	34
scalar tree_4_3_u08_r8_network.content_distribution 	client-22 	35
scalar tree_4_3_u08_r8_network.content_distribution 	client-23 	36
scalar tree_4_3_u08_r8_network.content_distribution 	client-24 	37
scalar tree_4_3_u08_r8_network.content_distribution 	client-25 	38
scalar tree_4_3_u08_r8_network.content_distribution 	client-26 	39
scalar tree_4_3_u08_r8_network.content_distribution 	repo-0_card 	100000
scalar tree_4_3_u08_r8_network.content_distribution 	repo-0_price 	0
scalar tree_4_3_u08_r8_network.statistics 	stabilization_time 	1075.2
scalar tree_4_3_u08_r8_network.statistics 	p_hit 	0.2411798197746
scalar tree_4_3_u08_r8_network.statistics 	interests 	25105.125
scalar tree_4_3_u08_r8_network.statistics 	data 	16991.075
scalar tree_4_3_u08_r8_network.statistics 	hdistance 	2.659019381383
scalar tree_4_3_u08_r8_network.statistics 	avg_time 	0.004188226257
scalar tree_4_3_u08_r8_network.statistics 	downloads 	324557
scalar tree_4_3_u08_r8_network.statistics 	total_cost 	0
scalar tree_4_3_u08_r8_network.statistics 	total_replicas 	100000
scalar tree_4_3_u08_r8_network.statistics 	inner_hit 	0.43512541710701
scalar tree_4_3_u08_r8_network.node[0].core_layer 	interests[0] 	185455
scalar tree_4_3_u08_r8_network.node[0].core_layer 	repo_load[0] 	183334
scalar tree_4_3_u08_r8_network.node[0].core_layer 	data[0] 	0
scalar tree_4_3_u08_r8_network.node[0].core_layer 	repo_int[0] 	183334
scalar tree_4_3_u08_r8_network.node[0].content_store 	p_hit[0] 	0.011436736674665
scalar tree_4_3_u08_r8_network.node[0].content_store 	hits[0] 	2121
scalar tree_4_3_u08_r8_network.node[0].content_store 	misses[0] 	183334
scalar tree_4_3_u08_r8_network.node[0].content_store 	decision_yes[0] 	2645
scalar tree_4_3_u08_r8_network.node[0].content_store 	decision_no[0] 	180689
scalar tree_4_3_u08_r8_network.node[0].content_store 	decision_ratio[0] 	0.014427220264654
scalar tree_4_3_u08_r8_network.node[1].core_layer 	interests[1] 	141390
scalar tree_4_3_u08_r8_network.node[1].core_layer 	data[1] 	139327
scalar tree_4_3_u08_r8_network.node[1].content_store 	p_hit[1] 	0.01457670273711
scalar tree_4_3_u08_r8_network.node[1].content_store 	hits[1] 	2061
scalar tree_4_3_u08_r8_network.node[1].content_store 	misses[1] 	139329
scalar tree_4_3_u08_r8_network.node[1].content_store 	decision_yes[1] 	1592
scalar tree_4_3_u08_r8_network.node[1].content_store 	decision_no[1] 	137735
scalar tree_4_3_u08_r8_network.node[1].content_store 	decision_ratio[1] 	0.011426356700424
scalar tree_4_3_u08_r8_network.node[2].core_layer 	interests[2] 	57863
scalar tree_4_3_u08_r8_network.node[2].core_layer 	data[2] 	55021
scalar tree_4_3_u08_r8_network.node[2].content_store 	p_hit[2] 	0.049098733214662
scalar tree_4_3_u08_r8_network.node[2].content_store 	hits[2] 	2841
scalar tree_4_3_u08_r8_network.node[2].content_store 	misses[2] 	55022
scalar tree_4_3_u08_r8_network.node[2].content_store 	decision_yes[2] 	736
scalar tree_4_3_u08_r8_network.node[2].content_store 	decision_no[2] 	54285
scalar tree_4_3_u08_r8_network.node[2].content_store 	decision_ratio[2] 	0.013376710710456
scalar tree_4_3_u08_r8_network.node[3].core_layer 	interests[3] 	12467
scalar tree_4_3_u08_r8_network.node[3].core_layer 	data[3] 	9577
scalar tree_4_3_u08_r8_network.node[3].content_store 	p_hit[3] 	0.2318119836368
scalar tree_4_3_u08_r8_network.node[3].content_store 	hits[3] 	2890
scalar tree_4_3_u08_r8_network.node[3].content_store 	misses[3] 	9577
scalar tree_4_3_u08_r8_network.node[3].content_store 	decision_yes[3] 	253
scalar tree_4_3_u08_r8_network.node[3].content_store 	decision_no[3] 	9324
scalar tree_4_3_u08_r8_network.node[3].content_store 	decision_ratio[3] 	0.026417458494309
scalar tree_4_3_u08_r8_network.node[4].core_layer 	interests[4] 	43178
scalar tree_4_3_u08_r8_network.node[4].core_layer 	data[4] 	40766
scalar tree_4_3_u08_r8_network.node[4].content_store 	p_hit[4] 	0.055838621520219
scalar tree_4_3_u08_r8_network.node[4].content_store 	hits[4] 	2411
scalar tree_4_3_u08_r8_network.node[4].content_store 	misses[4] 	40767
scalar tree_4_3_u08_r8_network.node[4].content_store 	decision_yes[4] 	554
scalar tree_4_3_u08_r8_network.node[4].content_store 	decision_no[4] 	40212
scalar tree_4_3_u08_r8_network.node[4].content_store 	decision_ratio[4] 	0.013589756169357
scalar tree_4_3_u08_r8_network.node[5].core_layer 	interests[5] 	29651
scalar tree_4_3_u08_r8_network.node[5].core_layer 	data[5] 	26327
scalar tree_4_3_u08_r8_network.node[5].content_store 	p_hit[5] 	0.1121041448855
scalar tree_4_3_u08_r8_network.node[5].content_store 	hits[5] 	3324
scalar tree_4_3_u08_r8_network.node[5].content_store 	misses[5] 	26327
scalar tree_4_3_u08_r8_network.node[5].content_store 	decision_yes[5] 	462
scalar tree_4_3_u08_r8_network.node[5].content_store 	decision_no[5] 	25865
scalar tree_4_3_u08_r8_network.node[5].content_store 	decision_ratio[5] 	0.017548524328636
scalar tree_4_3_u08_r8_network.node[6].core_layer 	interests[6] 	14645
scalar tree_4_3_u08_r8_network.node[6].core_layer 	data[6] 	10923
scalar tree_4_3_u08_r8_network.node[6].content_store 	p_hit[6] 	0.25414817343803
scalar tree_4_3_u08_r8_network.node[6].content_store 	hits[6] 	3722
scalar tree_4_3_u08_r8_network.node[6].content_store 	misses[6] 	10923
scalar tree_4_3_u08_r8_network.node[6].content_store 	decision_yes[6] 	398
scalar tree_4_3_u08_r8_network.node[6].content_store 	decision_no[6] 	10525
scalar tree_4_3_u08_r8_network.node[6].content_store 	decision_ratio[6] 	0.03643687631603
scalar tree_4_3_u08_r8_network.node[7].core_layer 	interests[7] 	46458
scalar tree_4_3_u08_r8_network.node[7].core_layer 	data[7] 	43078
scalar tree_4_3_u08_r8_network.node[7].content_store 	p_hit[7] 	0.072710835593439
scalar tree_4_3_u08_r8_network.node[7].content_store 	hits[7] 	3378
scalar tree_4_3_u08_r8_network.node[7].content_store 	misses[7] 	43080
scalar tree_4_3_u08_r8_network.node[7].content_store 	decision_yes[7] 	743
scalar tree_4_3_u08_r8_network.node[7].content_store 	decision_no[7] 	42335
scalar tree_4_3_u08_r8_network.node[7].content_store 	decision_ratio[7] 	0.017247783091137
scalar tree_4_3_u08_r8_network.node[8].core_layer 	interests[8] 	27501
scalar tree_4_3_u08_r8_network.node[8].core_layer 	data[8] 	25401
scalar tree_4_3_u08_r8_network.node[8].content_store 	p_hit[8] 	0.076324497291008
scalar tree_4_3_u08_r8_network.node[8].content_store 	hits[8] 	2099
scalar tree_4_3_u08_r8_network.node[8].content_store 	misses[8] 	25402
scalar tree_4_3_u08_r8_network.node[8].content_store 	decision_yes[8] 	399
scalar tree_4_3_u08_r8_network.node[8].content_store 	decision_no[8] 	25002
scalar tree_4_3_u08_r8_network.node[8].content_store 	decision_ratio[8] 	0.015708042990433
scalar tree_4_3_u08_r8_network.node[9].core_layer 	interests[9] 	12583
scalar tree_4_3_u08_r8_network.node[9].core_layer 	data[9] 	9486
scalar tree_4_3_u08_r8_network.node[9].content_store 	p_hit[9] 	0.24612572518477
scalar tree_4_3_u08_r8_network.node[9].content_store 	hits[9] 	3097
scalar tree_4_3_u08_r8_network.node[9].content_store 	misses[9] 	9486
scalar tree_4_3_u08_r8_network.node[9].content_store 	decision_yes[9] 	247
scalar tree_4_3_u08_r8_network.node[9].content_store 	decision_no[9] 	9239
scalar tree_4_3_u08_r8_network.node[9].content_store 	decision_ratio[9] 	0.026038372338183
scalar tree_4_3_u08_r8_network.node[10].core_layer 	interests[10] 	45774
scalar tree_4_3_u08_r8_network.node[10].core_layer 	data[10] 	42543
scalar tree_4_3_u08_r8_network.node[10].content_store 	p_hit[10] 	0.070585922139206
scalar tree_4_3_u08_r8_network.node[10].content_store 	hits[10] 	3231
scalar tree_4_3_u08_r8_network.node[10].content_store 	misses[10] 	42543
scalar tree_4_3_u08_r8_network.node[10].content_store 	decision_yes[10] 	619
scalar tree_4_3_u08_r8_network.node[10].content_store 	decision_no[10] 	41924
scalar tree_4_3_u08_r8_network.node[10].content_store 	decision_ratio[10] 	0.014549984721341
scalar tree_4_3_u08_r8_network.node[11].core_layer 	interests[11] 	28722
scalar tree_4_3_u08_r8_network.node[11].core_layer 	data[11] 	25728
scalar tree_4_3_u08_r8_network.node[11].content_store 	p_hit[11] 	0.1042406517652
scalar tree_4_3_u08_r8_network.node[11].content_store 	hits[11] 	2994
scalar tree_4_3_u08_r8_network.node[11].content_store 	misses[11] 	25728
scalar tree_4_3_u08_r8_network.node[11].content_store 	decision_yes[11] 	416
scalar tree_4_3_u08_r8_network.node[11].content_store 	decision_no[11] 	25312
scalar tree_4_3_u08_r8_network.node[11].content_store 	decision_ratio[11] 	0.016169154228856
scalar tree_4_3_u08_r8_network.node[12].core_layer 	interests[12] 	12089
scalar tree_4_3_u08_r8_network.node[12].core_layer 	data[12] 	9337
scalar tree_4_3_u08_r8_network.node[12].content_store 	p_hit[12] 	0.22764496649847
scalar tree_4_3_u08_r8_network.node[12].content_store 	hits[12] 	2752
scalar tree_4_3_u08_r8_network.node[12].content_store 	misses[12] 	9337
scalar tree_4_3_u08_r8_network.node[12].content_store 	decision_yes[12] 	242
scalar tree_4_3_u08_r8_network.node[12].content_store 	decision_no[12] 	9095
scalar tree_4_3_u08_r8_network.node[12].content_store 	decision_ratio[12] 	0.025918389204241
scalar tree_4_3_u08_r8_network.node[13].core_layer 	interests[13] 	12570
scalar tree_4_3_u08_r8_network.node[13].core_layer 	data[13] 	8870
scalar tree_4_3_u08_r8_network.node[13].content_store 	p_hit[13] 	0.29435163086714
scalar tree_4_3_u08_r8_network.node[13].content_store 	hits[13] 	3700
scalar tree_4_3_u08_r8_network.node[13].content_store 	misses[13] 	8870
scalar tree_4_3_u08_r8_network.node[13].content_store 	decision_yes[13] 	104
scalar tree_4_3_u08_r8_network.node[13].content_store 	decision_no[13] 	8766
scalar tree_4_3_u08_r8_network.node[13].content_store 	decision_ratio[13] 	0.011724915445321
scalar tree_4_3_u08_r8_network.node[14].core_layer 	interests[14] 	12416
scalar tree_4_3_u08_r8_network.node[14].core_layer 	data[14] 	8758
scalar tree_4_3_u08_r8_network.node[14].content_store 	p_hit[14] 	0.29461984536082
scalar tree_4_3_u08_r8_network.node[14].content_store 	hits[14] 	3658
scalar tree_4_3_u08_r8_network.node[14].content_store 	misses[14] 	8758
scalar tree_4_3_u08_r8_network.node[14].content_store 	decision_yes[14] 	115
scalar tree_4_3_u08_r8_network.node[14].content_store 	decision_no[14] 	8643
scalar tree_4_3_u08_r8_network.node[14].content_store 	decision_ratio[14] 	0.013130851792647
scalar tree_4_3_u08_r8_network.node[15].core_layer 	interests[15] 	12949
scalar tree_4_3_u08_r8_network.node[15].core_layer 	data[15] 	8922
scalar tree_4_3_u08_r8_network.node[15].content_store 	p_hit[15] 	0.31098926558035
scalar tree_4_3_u08_r8_network.node[15].content_store 	hits[15] 	4027
scalar tree_4_3_u08_r8_network.node[15].content_store 	misses[15] 	8922
scalar tree_4_3_u08_r8_network.node[15].content_store 	decision_yes[15] 	142
scalar tree_4_3_u08_r8_network.node[15].content_store 	decision_no[15] 	8780
scalar tree_4_3_u08_r8_network.node[15].content_store 	decision_ratio[15] 	0.015915713965479
scalar tree_4_3_u08_r8_network.node[16].core_layer 	interests[16] 	13335
scalar tree_4_3_u08_r8_network.node[16].core_layer 	data[16] 	9039
scalar tree_4_3_u08_r8_network.node[16].content_store 	p_hit[16] 	0.32215973003375
scalar tree_4_3_u08_r8_network.node[16].content_store 	hits[16] 	4296
scalar tree_4_3_u08_r8_network.node[16].content_store 	misses[16] 	9039
scalar tree_4_3_u08_r8_network.node[16].content_store 	decision_yes[16] 	126
scalar tree_4_3_u08_r8_network.node[16].content_store 	decision_no[16] 	8913
scalar tree_4_3_u08_r8_network.node[16].content_store 	decision_ratio[16] 	0.013939595087952
scalar tree_4_3_u08_r8_network.node[17].core_layer 	interests[17] 	12594
scalar tree_4_3_u08_r8_network.node[17].core_layer 	data[17] 	9042
scalar tree_4_3_u08_r8_network.node[17].content_store 	p_hit[17] 	0.28203906622201
scalar tree_4_3_u08_r8_network.node[17].content_store 	hits[17] 	3552
scalar tree_4_3_u08_r8_network.node[17].content_store 	misses[17] 	9042
scalar tree_4_3_u08_r8_network.node[17].content_store 	decision_yes[17] 	132
scalar tree_4_3_u08_r8_network.node[17].content_store 	decision_no[17] 	8910
scalar tree_4_3_u08_r8_network.node[17].content_store 	decision_ratio[17] 	0.014598540145985
scalar tree_4_3_u08_r8_network.node[18].core_layer 	interests[18] 	13244
scalar tree_4_3_u08_r8_network.node[18].core_layer 	data[18] 	9219
scalar tree_4_3_u08_r8_network.node[18].content_store 	p_hit[18] 	0.303911205074
scalar tree_4_3_u08_r8_network.node[18].content_store 	hits[18] 	4025
scalar tree_4_3_u08_r8_network.node[18].content_store 	misses[18] 	9219
scalar tree_4_3_u08_r8_network.node[18].content_store 	decision_yes[18] 	150
scalar tree_4_3_u08_r8_network.node[18].content_store 	decision_no[18] 	9069
scalar tree_4_3_u08_r8_network.node[18].content_store 	decision_ratio[18] 	0.01627074520013
scalar tree_4_3_u08_r8_network.node[19].core_layer 	interests[19] 	13011
scalar tree_4_3_u08_r8_network.node[19].core_layer 	data[19] 	8871
scalar tree_4_3_u08_r8_network.node[19].content_store 	p_hit[19] 	0.31811544078088
scalar tree_4_3_u08_r8_network.node[19].content_store 	hits[19] 	4139
scalar tree_4_3_u08_r8_network.node[19].content_store 	misses[19] 	8872
scalar tree_4_3_u08_r8_network.node[19].content_store 	decision_yes[19] 	123
scalar tree_4_3_u08_r8_network.node[19].content_store 	decision_no[19] 	8748
scalar tree_4_3_u08_r8_network.node[19].content_store 	decision_ratio[19] 	0.013865404125803
scalar tree_4_3_u08_r8_network.node[20].core_layer 	interests[20] 	13164
scalar tree_4_3_u08_r8_network.node[20].core_layer 	data[20] 	9039
scalar tree_4_3_u08_r8_network.node[20].content_store 	p_hit[20] 	0.31335460346399
scalar tree_4_3_u08_r8_network.node[20].content_store 	hits[20] 	4125
scalar tree_4_3_u08_r8_network.node[20].content_store 	misses[20] 	9039
scalar tree_4_3_u08_r8_network.node[20].content_store 	decision_yes[20] 	117
scalar tree_4_3_u08_r8_network.node[20].content_store 	decision_no[20] 	8922
scalar tree_4_3_u08_r8_network.node[20].content_store 	decision_ratio[20] 	0.012943909724527
scalar tree_4_3_u08_r8_network.node[21].core_layer 	interests[21] 	12522
scalar tree_4_3_u08_r8_network.node[21].core_layer 	data[21] 	8891
scalar tree_4_3_u08_r8_network.node[21].content_store 	p_hit[21] 	0.28996965341
scalar tree_4_3_u08_r8_network.node[21].content_store 	hits[21] 	3631
scalar tree_4_3_u08_r8_network.node[21].content_store 	misses[21] 	8891
scalar tree_4_3_u08_r8_network.node[21].content_store 	decision_yes[21] 	103
scalar tree_4_3_u08_r8_network.node[21].content_store 	decision_no[21] 	8788
scalar tree_4_3_u08_r8_network.node[21].content_store 	decision_ratio[21] 	0.011584748622202
scalar tree_4_3_u08_r8_network.node[22].core_layer 	interests[22] 	12857
scalar tree_4_3_u08_r8_network.node[22].core_layer 	data[22] 	9067
scalar tree_4_3_u08_r8_network.node[22].content_store 	p_hit[22] 	0.29470327448083
scalar tree_4_3_u08_r8_network.node[22].content_store 	hits[22] 	3789
scalar tree_4_3_u08_r8_network.node[22].content_store 	misses[22] 	9068
scalar tree_4_3_u08_r8_network.node[22].content_store 	decision_yes[22] 	109
scalar tree_4_3_u08_r8_network.node[22].content_store 	decision_no[22] 	8958
scalar tree_4_3_u08_r8_network.node[22].content_store 	decision_ratio[22] 	0.012021616852322
scalar tree_4_3_u08_r8_network.node[23].core_layer 	interests[23] 	12756
scalar tree_4_3_u08_r8_network.node[23].core_layer 	data[23] 	8937
scalar tree_4_3_u08_r8_network.node[23].content_store 	p_hit[23] 	0.29938852304798
scalar tree_4_3_u08_r8_network.node[23].content_store 	hits[23] 	3819
scalar tree_4_3_u08_r8_network.node[23].content_store 	misses[23] 	8937
scalar tree_4_3_u08_r8_network.node[23].content_store 	decision_yes[23] 	100
scalar tree_4_3_u08_r8_network.node[23].content_store 	decision_no[23] 	8837
scalar tree_4_3_u08_r8_network.node[23].content_store 	decision_ratio[23] 	0.01118943717131
scalar tree_4_3_u08_r8_network.node[24].core_layer 	interests[24] 	13096
scalar tree_4_3_u08_r8_network.node[24].core_layer 	data[24] 	8842
scalar tree_4_3_u08_r8_network.node[24].content_store 	p_hit[24] 	0.32483200977398
scalar tree_4_3_u08_r8_network.node[24].content_store 	hits[24] 	4254
scalar tree_4_3_u08_r8_network.node[24].content_store 	misses[24] 	8842
scalar tree_4_3_u08_r8_network.node[24].content_store 	decision_yes[24] 	131
scalar tree_4_3_u08_r8_network.node[24].content_store 	decision_no[24] 	8711
scalar tree_4_3_u08_r8_network.node[24].content_store 	decision_ratio[24] 	0.014815652567292
scalar tree_4_3_u08_r8_network.node[25].core_layer 	interests[25] 	13141
scalar tree_4_3_u08_r8_network.node[25].core_layer 	data[25] 	8858
scalar tree_4_3_u08_r8_network.node[25].content_store 	p_hit[25] 	0.32600258732212
scalar tree_4_3_u08_r8_network.node[25].content_store 	hits[25] 	4284
scalar tree_4_3_u08_r8_network.node[25].content_store 	misses[25] 	8857
scalar tree_4_3_u08_r8_network.node[25].content_store 	decision_yes[25] 	113
scalar tree_4_3_u08_r8_network.node[25].content_store 	decision_no[25] 	8745
scalar tree_4_3_u08_r8_network.node[25].content_store 	decision_ratio[25] 	0.012756829984195
scalar tree_4_3_u08_r8_network.node[26].core_layer 	interests[26] 	12406
scalar tree_4_3_u08_r8_network.node[26].core_layer 	data[26] 	8999
scalar tree_4_3_u08_r8_network.node[26].content_store 	p_hit[26] 	0.27462518136386
scalar tree_4_3_u08_r8_network.node[26].content_store 	hits[26] 	3407
scalar tree_4_3_u08_r8_network.node[26].content_store 	misses[26] 	8999
scalar tree_4_3_u08_r8_network.node[26].content_store 	decision_yes[26] 	123
scalar tree_4_3_u08_r8_network.node[26].content_store 	decision_no[26] 	8876
scalar tree_4_3_u08_r8_network.node[26].content_store 	decision_ratio[26] 	0.013668185353928
scalar tree_4_3_u08_r8_network.node[27].core_layer 	interests[27] 	12724
scalar tree_4_3_u08_r8_network.node[27].core_layer 	data[27] 	8911
scalar tree_4_3_u08_r8_network.node[27].content_store 	p_hit[27] 	0.29966991512103
scalar tree_4_3_u08_r8_network.node[27].content_store 	hits[27] 	3813
scalar tree_4_3_u08_r8_network.node[27].content_store 	misses[27] 	8911
scalar tree_4_3_u08_r8_network.node[27].content_store 	decision_yes[27] 	148
scalar tree_4_3_u08_r8_network.node[27].content_store 	decision_no[27] 	8763
scalar tree_4_3_u08_r8_network.node[27].content_store 	decision_ratio[27] 	0.016608685893839
scalar tree_4_3_u08_r8_network.node[28].core_layer 	interests[28] 	13333
scalar tree_4_3_u08_r8_network.node[28].core_layer 	data[28] 	9168
scalar tree_4_3_u08_r8_network.node[28].content_store 	p_hit[28] 	0.31238280957024
scalar tree_4_3_u08_r8_network.node[28].content_store 	hits[28] 	4165
scalar tree_4_3_u08_r8_network.node[28].content_store 	misses[28] 	9168
scalar tree_4_3_u08_r8_network.node[28].content_store 	decision_yes[28] 	138
scalar tree_4_3_u08_r8_network.node[28].content_store 	decision_no[28] 	9030
scalar tree_4_3_u08_r8_network.node[28].content_store 	decision_ratio[28] 	0.015052356020942
scalar tree_4_3_u08_r8_network.node[29].core_layer 	interests[29] 	12941
scalar tree_4_3_u08_r8_network.node[29].core_layer 	data[29] 	9084
scalar tree_4_3_u08_r8_network.node[29].content_store 	p_hit[29] 	0.29804497334055
scalar tree_4_3_u08_r8_network.node[29].content_store 	hits[29] 	3857
scalar tree_4_3_u08_r8_network.node[29].content_store 	misses[29] 	9084
scalar tree_4_3_u08_r8_network.node[29].content_store 	decision_yes[29] 	156
scalar tree_4_3_u08_r8_network.node[29].content_store 	decision_no[29] 	8928
scalar tree_4_3_u08_r8_network.node[29].content_store 	decision_ratio[29] 	0.017173051519155
scalar tree_4_3_u08_r8_network.node[30].core_layer 	interests[30] 	12401
scalar tree_4_3_u08_r8_network.node[30].core_layer 	data[30] 	8974
scalar tree_4_3_u08_r8_network.node[30].content_store 	p_hit[30] 	0.27634868155794
scalar tree_4_3_u08_r8_network.node[30].content_store 	hits[30] 	3427
scalar tree_4_3_u08_r8_network.node[30].content_store 	misses[30] 	8974
scalar tree_4_3_u08_r8_network.node[30].content_store 	decision_yes[30] 	131
scalar tree_4_3_u08_r8_network.node[30].content_store 	decision_no[30] 	8843
scalar tree_4_3_u08_r8_network.node[30].content_store 	decision_ratio[30] 	0.014597726766214
scalar tree_4_3_u08_r8_network.node[31].core_layer 	interests[31] 	12604
scalar tree_4_3_u08_r8_network.node[31].core_layer 	data[31] 	9093
scalar tree_4_3_u08_r8_network.node[31].content_store 	p_hit[31] 	0.27856236115519
scalar tree_4_3_u08_r8_network.node[31].content_store 	hits[31] 	3511
scalar tree_4_3_u08_r8_network.node[31].content_store 	misses[31] 	9093
scalar tree_4_3_u08_r8_network.node[31].content_store 	decision_yes[31] 	102
scalar tree_4_3_u08_r8_network.node[31].content_store 	decision_no[31] 	8991
scalar tree_4_3_u08_r8_network.node[31].content_store 	decision_ratio[31] 	0.011217419993402
scalar tree_4_3_u08_r8_network.node[32].core_layer 	interests[32] 	12657
scalar tree_4_3_u08_r8_network.node[32].core_layer 	data[32] 	8949
scalar tree_4_3_u08_r8_network.node[32].content_store 	p_hit[32] 	0.29296041716046
scalar tree_4_3_u08_r8_network.node[32].content_store 	hits[32] 	3708
scalar tree_4_3_u08_r8_network.node[32].content_store 	misses[32] 	8949
scalar tree_4_3_u08_r8_network.node[32].content_store 	decision_yes[32] 	128
scalar tree_4_3_u08_r8_network.node[32].content_store 	decision_no[32] 	8821
scalar tree_4_3_u08_r8_network.node[32].content_store 	decision_ratio[32] 	0.014303274108839
scalar tree_4_3_u08_r8_network.node[33].core_layer 	interests[33] 	13201
scalar tree_4_3_u08_r8_network.node[33].core_layer 	data[33] 	9028
scalar tree_4_3_u08_r8_network.node[33].content_store 	p_hit[33] 	0.31611241572608
scalar tree_4_3_u08_r8_network.node[33].content_store 	hits[33] 	4173
scalar tree_4_3_u08_r8_network.node[33].content_store 	misses[33] 	9028
scalar tree_4_3_u08_r8_network.node[33].content_store 	decision_yes[33] 	131
scalar tree_4_3_u08_r8_network.node[33].content_store 	decision_no[33] 	8897
scalar tree_4_3_u08_r8_network.node[33].content_store 	decision_ratio[33] 	0.014510412051396
scalar tree_4_3_u08_r8_network.node[34].core_layer 	interests[34] 	13184
scalar tree_4_3_u08_r8_network.node[34].core_layer 	data[34] 	8991
scalar tree_4_3_u08_r8_network.node[34].content_store 	p_hit[34] 	0.31803701456311
scalar tree_4_3_u08_r8_network.node[34].content_store 	hits[34] 	4193
scalar tree_4_3_u08_r8_network.node[34].content_store 	misses[34] 	8991
scalar tree_4_3_u08_r8_network.node[34].content_store 	decision_yes[34] 	98
scalar tree_4_3_u08_r8_network.node[34].content_store 	decision_no[34] 	8893
scalar tree_4_3_u08_r8_network.node[34].content_store 	decision_ratio[34] 	0.010899788677566
scalar tree_4_3_u08_r8_network.node[35].core_layer 	interests[35] 	12602
scalar tree_4_3_u08_r8_network.node[35].core_layer 	data[35] 	8925
scalar tree_4_3_u08_r8_network.node[35].content_store 	p_hit[35] 	0.29177908268529
scalar tree_4_3_u08_r8_network.node[35].content_store 	hits[35] 	3677
scalar tree_4_3_u08_r8_network.node[35].content_store 	misses[35] 	8925
scalar tree_4_3_u08_r8_network.node[35].content_store 	decision_yes[35] 	109
scalar tree_4_3_u08_r8_network.node[35].content_store 	decision_no[35] 	8816
scalar tree_4_3_u08_r8_network.node[35].content_store 	decision_ratio[35] 	0.012212885154062
scalar tree_4_3_u08_r8_network.node[36].core_layer 	interests[36] 	12679
scalar tree_4_3_u08_r8_network.node[36].core_layer 	data[36] 	8783
scalar tree_4_3_u08_r8_network.node[36].content_store 	p_hit[36] 	0.30727975392381
scalar tree_4_3_u08_r8_network.node[36].content_store 	hits[36] 	3896
scalar tree_4_3_u08_r8_network.node[36].content_store 	misses[36] 	8783
scalar tree_4_3_u08_r8_network.node[36].content_store 	decision_yes[36] 	137
scalar tree_4_3_u08_r8_network.node[36].content_store 	decision_no[36] 	8646
scalar tree_4_3_u08_r8_network.node[36].content_store 	decision_ratio[36] 	0.015598314926563
scalar tree_4_3_u08_r8_network.node[37].core_layer 	interests[37] 	13012
scalar tree_4_3_u08_r8_network.node[37].core_layer 	data[37] 	9029
scalar tree_4_3_u08_r8_network.node[37].content_store 	p_hit[37] 	0.30602520750077
scalar tree_4_3_u08_r8_network.node[37].content_store 	hits[37] 	3982
scalar tree_4_3_u08_r8_network.node[37].content_store 	misses[37] 	9030
scalar tree_4_3_u08_r8_network.node[37].content_store 	decision_yes[37] 	160
scalar tree_4_3_u08_r8_network.node[37].content_store 	decision_no[37] 	8869
scalar tree_4_3_u08_r8_network.node[37].content_store 	decision_ratio[37] 	0.017720677815926
scalar tree_4_3_u08_r8_network.node[38].core_layer 	interests[38] 	12707
scalar tree_4_3_u08_r8_network.node[38].core_layer 	data[38] 	8963
scalar tree_4_3_u08_r8_network.node[38].content_store 	p_hit[38] 	0.29464074919336
scalar tree_4_3_u08_r8_network.node[38].content_store 	hits[38] 	3744
scalar tree_4_3_u08_r8_network.node[38].content_store 	misses[38] 	8963
scalar tree_4_3_u08_r8_network.node[38].content_store 	decision_yes[38] 	148
scalar tree_4_3_u08_r8_network.node[38].content_store 	decision_no[38] 	8815
scalar tree_4_3_u08_r8_network.node[38].content_store 	decision_ratio[38] 	0.016512328461453
scalar tree_4_3_u08_r8_network.node[39].core_layer 	interests[39] 	12323
scalar tree_4_3_u08_r8_network.node[39].core_layer 	data[39] 	8877
scalar tree_4_3_u08_r8_network.node[39].content_store 	p_hit[39] 	0.27963969812546
scalar tree_4_3_u08_r8_network.node[39].content_store 	hits[39] 	3446
scalar tree_4_3_u08_r8_network.node[39].content_store 	misses[39] 	8877
scalar tree_4_3_u08_r8_network.node[39].content_store 	decision_yes[39] 	117
scalar tree_4_3_u08_r8_network.node[39].content_store 	decision_no[39] 	8760
scalar tree_4_3_u08_r8_network.node[39].content_store 	decision_ratio[39] 	0.013180128421764
scalar tree_4_3_u08_r8_network.client[13] 	hdistance[13] 	2.6992343541944
scalar tree_4_3_u08_r8_network.client[13] 	downloads[13] 	12016
scalar tree_4_3_u08_r8_network.client[13] 	avg_time[13] 	0.004252227855
scalar tree_4_3_u08_r8_network.client[14] 	hdistance[14] 	2.697198002201
scalar tree_4_3_u08_r8_network.client[14] 	downloads[14] 	11813
scalar tree_4_3_u08_r8_network.client[14] 	avg_time[14] 	0.004248367486
scalar tree_4_3_u08_r8_network.client[15] 	hdistance[15] 	2.6500168747891
scalar tree_4_3_u08_r8_network.client[15] 	downloads[15] 	11852
scalar tree_4_3_u08_r8_network.client[15] 	avg_time[15] 	0.004169926163
scalar tree_4_3_u08_r8_network.client[16] 	hdistance[16] 	2.6366644606221
scalar tree_4_3_u08_r8_network.client[16] 	downloads[16] 	12088
scalar tree_4_3_u08_r8_network.client[16] 	avg_time[16] 	0.004172673776
scalar tree_4_3_u08_r8_network.client[17] 	hdistance[17] 	2.7000248323814
scalar tree_4_3_u08_r8_network.client[17] 	downloads[17] 	12081
scalar tree_4_3_u08_r8_network.client[17] 	avg_time[17] 	0.004284879717
scalar tree_4_3_u08_r8_network.client[18] 	hdistance[18] 	2.6241779654137
scalar tree_4_3_u08_r8_network.client[18] 	downloads[18] 	12317
scalar tree_4_3_u08_r8_network.client[18] 	avg_time[18] 	0.004142401721
scalar tree_4_3_u08_r8_network.client[19] 	hdistance[19] 	2.6075864384021
scalar tree_4_3_u08_r8_network.client[19] 	downloads[19] 	11916
scalar tree_4_3_u08_r8_network.client[19] 	avg_time[19] 	0.004094090573
scalar tree_4_3_u08_r8_network.client[20] 	hdistance[20] 	2.6156946615119
scalar tree_4_3_u08_r8_network.client[20] 	downloads[20] 	12157
scalar tree_4_3_u08_r8_network.client[20] 	avg_time[20] 	0.004127001995
scalar tree_4_3_u08_r8_network.client[21] 	hdistance[21] 	2.6621307666777
scalar tree_4_3_u08_r8_network.client[21] 	downloads[21] 	12052
scalar tree_4_3_u08_r8_network.client[21] 	avg_time[21] 	0.004200461664
scalar tree_4_3_u08_r8_network.client[22] 	hdistance[22] 	2.6949675054158
scalar tree_4_3_u08_r8_network.client[22] 	downloads[22] 	12002
scalar tree_4_3_u08_r8_network.client[22] 	avg_time[22] 	0.00428294982
scalar tree_4_3_u08_r8_network.client[23] 	hdistance[23] 	2.6828168072843
scalar tree_4_3_u08_r8_network.client[23] 	downloads[23] 	11971
scalar tree_4_3_u08_r8_network.client[23] 	avg_time[23] 	0.004254111124
scalar tree_4_3_u08_r8_network.client[24] 	hdistance[24] 	2.6136744966443
scalar tree_4_3_u08_r8_network.client[24] 	downloads[24] 	11920
scalar tree_4_3_u08_r8_network.client[24] 	avg_time[24] 	0.004119292275
scalar tree_4_3_u08_r8_network.client[25] 	hdistance[25] 	2.6304384344028
scalar tree_4_3_u08_r8_network.client[25] 	downloads[25] 	11906
scalar tree_4_3_u08_r8_network.client[25] 	avg_time[25] 	0.004145637859
scalar tree_4_3_u08_r8_network.client[26] 	hdistance[26] 	2.744671959883
scalar tree_4_3_u08_r8_network.client[26] 	downloads[26] 	11965
scalar tree_4_3_u08_r8_network.client[26] 	avg_time[26] 	0.004310274441
scalar tree_4_3_u08_r8_network.client[27] 	hdistance[27] 	2.645840266223
scalar tree_4_3_u08_r8_network.client[27] 	downloads[27] 	12020
scalar tree_4_3_u08_r8_network.client[27] 	avg_time[27] 	0.004129614303
scalar tree_4_3_u08_r8_network.client[28] 	hdistance[28] 	2.6369829284307
scalar tree_4_3_u08_r8_network.client[28] 	downloads[28] 	12184
scalar tree_4_3_u08_r8_network.client[28] 	avg_time[28] 	0.004158237254
scalar tree_4_3_u08_r8_network.client[29] 	hdistance[29] 	2.6638385502471
scalar tree_4_3_u08_r8_network.client[29] 	downloads[29] 	12140
scalar tree_4_3_u08_r8_network.client[29] 	avg_time[29] 	0.004164576855
scalar tree_4_3_u08_r8_network.client[30] 	hdistance[30] 	2.700528576148
scalar tree_4_3_u08_r8_network.client[30] 	downloads[30] 	12108
scalar tree_4_3_u08_r8_network.client[30] 	avg_time[30] 	0.004222164136
scalar tree_4_3_u08_r8_network.client[31] 	hdistance[31] 	2.7151474530831
scalar tree_4_3_u08_r8_network.client[31] 	downloads[31] 	11936
scalar tree_4_3_u08_r8_network.client[31] 	avg_time[31] 	0.004302443403
scalar tree_4_3_u08_r8_network.client[32] 	hdistance[32] 	2.6799104180491
scalar tree_4_3_u08_r8_network.client[32] 	downloads[32] 	12056
scalar tree_4_3_u08_r8_network.client[32] 	avg_time[32] 	0.004223122411
scalar tree_4_3_u08_r8_network.client[33] 	hdistance[33] 	2.6229171796766
scalar tree_4_3_u08_r8_network.client[33] 	downloads[33] 	12183
scalar tree_4_3_u08_r8_network.client[33] 	avg_time[33] 	0.004115731988
scalar tree_4_3_u08_r8_network.client[34] 	hdistance[34] 	2.6193366032089
scalar tree_4_3_u08_r8_network.client[34] 	downloads[34] 	12029
scalar tree_4_3_u08_r8_network.client[34] 	avg_time[34] 	0.004138495636
scalar tree_4_3_u08_r8_network.client[35] 	hdistance[35] 	2.6492463143946
scalar tree_4_3_u08_r8_network.client[35] 	downloads[35] 	12074
scalar tree_4_3_u08_r8_network.client[35] 	avg_time[35] 	0.004196804182
scalar tree_4_3_u08_r8_network.client[36] 	hdistance[36] 	2.5965885219729
scalar tree_4_3_u08_r8_network.client[36] 	downloads[36] 	11901
scalar tree_4_3_u08_r8_network.client[36] 	avg_time[36] 	0.004082343072
scalar tree_4_3_u08_r8_network.client[37] 	hdistance[37] 	2.6582522643408
scalar tree_4_3_u08_r8_network.client[37] 	downloads[37] 	11924
scalar tree_4_3_u08_r8_network.client[37] 	avg_time[37] 	0.00418131198
scalar tree_4_3_u08_r8_network.client[38] 	hdistance[38] 	2.6407677478837
scalar tree_4_3_u08_r8_network.client[38] 	downloads[38] 	11931
scalar tree_4_3_u08_r8_network.client[38] 	avg_time[38] 	0.004156228673
scalar tree_4_3_u08_r8_network.client[39] 	hdistance[39] 	2.7048689138577
scalar tree_4_3_u08_r8_network.client[39] 	downloads[39] 	12015
scalar tree_4_3_u08_r8_network.client[39] 	avg_time[39] 	0.004206738597
