version 2
run General-60-20160822-10:44:00-13100
attr D lcd
attr F nrr
attr R lru
attr a 0.8
attr configname General
attr datetime 20160822-10:44:00
attr experiment General
attr inifile hw5115/scenario_B/bus.ini
attr iterationvars "$net=bus, $rep=0, $a=0.8, $F=nrr, $D=lcd, $R=lru, $window=60, $variance=0.05, $mytime=600"
attr iterationvars2 "$net=bus, $rep=0, $a=0.8, $F=nrr, $D=lcd, $R=lru, $window=60, $variance=0.05, $mytime=600, $repetition=0"
attr measurement "$net=bus, $rep=0, $a=0.8, $F=nrr, $D=lcd, $R=lru, $window=60, $variance=0.05, $mytime=600"
attr mytime 600
attr net bus
attr network networks.${net=bus}_network
attr processid 13100
attr rep 0
attr repetition 0
attr replication #0
attr resultdir results
attr runnumber 60
attr seedset 0
attr variance 0.05
attr window 60

scalar . 	a 	0.8
scalar . 	mytime 	600
scalar . 	rep 	0
scalar . 	variance 	0.05
scalar . 	window 	60
scalar bus_network.content_distribution 	repo-0 	9
scalar bus_network.content_distribution 	client-0 	5
scalar bus_network.content_distribution 	client-1 	8
scalar bus_network.content_distribution 	client-2 	9
scalar bus_network.content_distribution 	client-3 	0
scalar bus_network.content_distribution 	client-4 	1
scalar bus_network.content_distribution 	client-5 	7
scalar bus_network.content_distribution 	client-6 	6
scalar bus_network.content_distribution 	client-7 	2
scalar bus_network.content_distribution 	client-8 	4
scalar bus_network.content_distribution 	client-9 	3
scalar bus_network.content_distribution 	repo-0_card 	100000
scalar bus_network.content_distribution 	repo-0_price 	0
scalar bus_network.statistics 	stabilization_time 	1256.1
scalar bus_network.statistics 	p_hit 	0.062126292755066
scalar bus_network.statistics 	interests 	55726.9
scalar bus_network.statistics 	data 	43711.7
scalar bus_network.statistics 	hdistance 	4.4518012719731
scalar bus_network.statistics 	avg_time 	0.007282831217
scalar bus_network.statistics 	downloads 	120165
scalar bus_network.statistics 	total_cost 	0
scalar bus_network.statistics 	total_replicas 	100000
scalar bus_network.statistics 	inner_hit 	0.18963092414597
scalar bus_network.node[0].core_layer 	interests[0] 	12079
scalar bus_network.node[0].core_layer 	data[0] 	9906
scalar bus_network.node[0].core_layer 	repo_int[0] 	97378
scalar bus_network.node[0].content_store 	p_hit[0] 	0.17989899826145
scalar bus_network.node[0].content_store 	hits[0] 	2173
scalar bus_network.node[0].content_store 	misses[0] 	9906
scalar bus_network.node[0].content_store 	decision_yes[0] 	130
scalar bus_network.node[0].content_store 	decision_no[0] 	9776
scalar bus_network.node[0].content_store 	decision_ratio[0] 	0.013123359580052
scalar bus_network.node[1].core_layer 	interests[1] 	22351
scalar bus_network.node[1].core_layer 	data[1] 	19859
scalar bus_network.node[1].content_store 	p_hit[1] 	0.11153863361818
scalar bus_network.node[1].content_store 	hits[1] 	2493
scalar bus_network.node[1].content_store 	misses[1] 	19858
scalar bus_network.node[1].content_store 	decision_yes[1] 	296
scalar bus_network.node[1].content_store 	decision_no[1] 	19563
scalar bus_network.node[1].content_store 	decision_ratio[1] 	0.014905080819779
scalar bus_network.node[2].core_layer 	interests[2] 	31951
scalar bus_network.node[2].core_layer 	data[2] 	29500
scalar bus_network.node[2].content_store 	p_hit[2] 	0.076742511971456
scalar bus_network.node[2].content_store 	hits[2] 	2452
scalar bus_network.node[2].content_store 	misses[2] 	29499
scalar bus_network.node[2].content_store 	decision_yes[2] 	479
scalar bus_network.node[2].content_store 	decision_no[2] 	29021
scalar bus_network.node[2].content_store 	decision_ratio[2] 	0.016237288135593
scalar bus_network.node[3].core_layer 	interests[3] 	41961
scalar bus_network.node[3].core_layer 	data[3] 	39393
scalar bus_network.node[3].content_store 	p_hit[3] 	0.061247348728581
scalar bus_network.node[3].content_store 	hits[3] 	2570
scalar bus_network.node[3].content_store 	misses[3] 	39391
scalar bus_network.node[3].content_store 	decision_yes[3] 	612
scalar bus_network.node[3].content_store 	decision_no[3] 	38781
scalar bus_network.node[3].content_store 	decision_ratio[3] 	0.01553575508339
scalar bus_network.node[4].core_layer 	interests[4] 	51374
scalar bus_network.node[4].core_layer 	data[4] 	48832
scalar bus_network.node[4].content_store 	p_hit[4] 	0.049499746953712
scalar bus_network.node[4].content_store 	hits[4] 	2543
scalar bus_network.node[4].content_store 	misses[4] 	48831
scalar bus_network.node[4].content_store 	decision_yes[4] 	649
scalar bus_network.node[4].content_store 	decision_no[4] 	48183
scalar bus_network.node[4].content_store 	decision_ratio[4] 	0.013290465268676
scalar bus_network.node[5].core_layer 	interests[5] 	60881
scalar bus_network.node[5].core_layer 	data[5] 	58294
scalar bus_network.node[5].content_store 	p_hit[5] 	0.042525582694108
scalar bus_network.node[5].content_store 	hits[5] 	2589
scalar bus_network.node[5].content_store 	misses[5] 	58292
scalar bus_network.node[5].content_store 	decision_yes[5] 	747
scalar bus_network.node[5].content_store 	decision_no[5] 	57547
scalar bus_network.node[5].content_store 	decision_ratio[5] 	0.012814354822109
scalar bus_network.node[6].core_layer 	interests[6] 	70277
scalar bus_network.node[6].core_layer 	data[6] 	67743
scalar bus_network.node[6].content_store 	p_hit[6] 	0.03608577486233
scalar bus_network.node[6].content_store 	hits[6] 	2536
scalar bus_network.node[6].content_store 	misses[6] 	67741
scalar bus_network.node[6].content_store 	decision_yes[6] 	725
scalar bus_network.node[6].content_store 	decision_no[6] 	67018
scalar bus_network.node[6].content_store 	decision_ratio[6] 	0.010702212774752
scalar bus_network.node[7].core_layer 	interests[7] 	79677
scalar bus_network.node[7].core_layer 	data[7] 	77102
scalar bus_network.node[7].content_store 	p_hit[7] 	0.032330534533178
scalar bus_network.node[7].content_store 	hits[7] 	2576
scalar bus_network.node[7].content_store 	misses[7] 	77101
scalar bus_network.node[7].content_store 	decision_yes[7] 	719
scalar bus_network.node[7].content_store 	decision_no[7] 	76383
scalar bus_network.node[7].content_store 	decision_ratio[7] 	0.0093253093304973
scalar bus_network.node[8].core_layer 	interests[8] 	88616
scalar bus_network.node[8].core_layer 	data[8] 	86488
scalar bus_network.node[8].content_store 	p_hit[8] 	0.02401372212693
scalar bus_network.node[8].content_store 	hits[8] 	2128
scalar bus_network.node[8].content_store 	misses[8] 	86488
scalar bus_network.node[8].content_store 	decision_yes[8] 	794
scalar bus_network.node[8].content_store 	decision_no[8] 	85694
scalar bus_network.node[8].content_store 	decision_ratio[8] 	0.009180464341874
scalar bus_network.node[9].core_layer 	interests[9] 	98102
scalar bus_network.node[9].core_layer 	repo_load[9] 	97378
scalar bus_network.node[9].core_layer 	data[9] 	0
scalar bus_network.node[9].content_store 	p_hit[9] 	0.007380073800738
scalar bus_network.node[9].content_store 	hits[9] 	724
scalar bus_network.node[9].content_store 	misses[9] 	97378
scalar bus_network.node[9].content_store 	decision_yes[9] 	97378
scalar bus_network.node[9].content_store 	decision_no[9] 	0
scalar bus_network.node[9].content_store 	decision_ratio[9] 	1
scalar bus_network.client[0] 	hdistance[0] 	8.0335649116933
scalar bus_network.client[0] 	downloads[0] 	11947
scalar bus_network.client[0] 	avg_time[0] 	0.014499369239
scalar bus_network.client[1] 	hdistance[1] 	7.209556706966
scalar bus_network.client[1] 	downloads[1] 	12159
scalar bus_network.client[1] 	avg_time[1] 	0.012848586466
scalar bus_network.client[2] 	hdistance[2] 	6.4056044700305
scalar bus_network.client[2] 	downloads[2] 	11812
scalar bus_network.client[2] 	avg_time[2] 	0.011240430518
scalar bus_network.client[3] 	hdistance[3] 	5.600881848616
scalar bus_network.client[3] 	downloads[3] 	12247
scalar bus_network.client[3] 	avg_time[3] 	0.00963254205
scalar bus_network.client[4] 	hdistance[4] 	4.8446346838447
scalar bus_network.client[4] 	downloads[4] 	11798
scalar bus_network.client[4] 	avg_time[4] 	0.008108150979
scalar bus_network.client[5] 	hdistance[5] 	4.0184859891259
scalar bus_network.client[5] 	downloads[5] 	11955
scalar bus_network.client[5] 	avg_time[5] 	0.006469925909
scalar bus_network.client[6] 	hdistance[6] 	3.2688413014608
scalar bus_network.client[6] 	downloads[6] 	12048
scalar bus_network.client[6] 	avg_time[6] 	0.00495003016
scalar bus_network.client[7] 	hdistance[7] 	2.4699909188475
scalar bus_network.client[7] 	downloads[7] 	12113
scalar bus_network.client[7] 	avg_time[7] 	0.003343512233
scalar bus_network.client[8] 	hdistance[8] 	1.6846473029046
scalar bus_network.client[8] 	downloads[8] 	12050
scalar bus_network.client[8] 	avg_time[8] 	0.001735764618
scalar bus_network.client[9] 	hdistance[9] 	0.98180458624128
scalar bus_network.client[9] 	downloads[9] 	12036
scalar bus_network.client[9] 	avg_time[9] 	0
