version 2
run General-31-20160820-03:05:34-14346
attr a 0.9
attr cd fix0.1
attr configname General
attr cr lru
attr datetime 20160820-03:05:34
attr experiment General
attr fsize 1
attr inifile hw5115/scenario_A/SPR-FIX0.1.ini
attr iterationvars "$name=tree_4_3, $un=01, $rep=12, $cd=fix0.1, $cr=lru, $fsize=1, $a=0.9, $sl=spr, $ttl=1000, $variance=0.05"
attr iterationvars2 "$name=tree_4_3, $un=01, $rep=12, $cd=fix0.1, $cr=lru, $fsize=1, $a=0.9, $sl=spr, $ttl=1000, $variance=0.05, $repetition=0"
attr measurement "$name=tree_4_3, $un=01, $rep=12, $cd=fix0.1, $cr=lru, $fsize=1, $a=0.9, $sl=spr, $ttl=1000, $variance=0.05"
attr name tree_4_3
attr network networks.${name}_u${un}_r${rep}_network
attr processid 14346
attr rep 12
attr repetition 0
attr replication #0
attr resultdir results
attr runnumber 31
attr seedset 12
attr sl spr
attr ttl 1000
attr un 01
attr variance 0.05

scalar . 	a 	0.9
scalar . 	fsize 	1
scalar . 	rep 	12
scalar . 	ttl 	1000
scalar . 	un 	01
scalar . 	variance 	0.05
scalar tree_4_3_u01_r12_network.content_distribution 	repo-0 	0
scalar tree_4_3_u01_r12_network.content_distribution 	client-0 	13
scalar tree_4_3_u01_r12_network.content_distribution 	client-1 	14
scalar tree_4_3_u01_r12_network.content_distribution 	client-2 	15
scalar tree_4_3_u01_r12_network.content_distribution 	client-3 	16
scalar tree_4_3_u01_r12_network.content_distribution 	client-4 	17
scalar tree_4_3_u01_r12_network.content_distribution 	client-5 	18
scalar tree_4_3_u01_r12_network.content_distribution 	client-6 	19
scalar tree_4_3_u01_r12_network.content_distribution 	client-7 	20
scalar tree_4_3_u01_r12_network.content_distribution 	client-8 	21
scalar tree_4_3_u01_r12_network.content_distribution 	client-9 	22
scalar tree_4_3_u01_r12_network.content_distribution 	client-10 	23
scalar tree_4_3_u01_r12_network.content_distribution 	client-11 	24
scalar tree_4_3_u01_r12_network.content_distribution 	client-12 	25
scalar tree_4_3_u01_r12_network.content_distribution 	client-13 	26
scalar tree_4_3_u01_r12_network.content_distribution 	client-14 	27
scalar tree_4_3_u01_r12_network.content_distribution 	client-15 	28
scalar tree_4_3_u01_r12_network.content_distribution 	client-16 	29
scalar tree_4_3_u01_r12_network.content_distribution 	client-17 	30
scalar tree_4_3_u01_r12_network.content_distribution 	client-18 	31
scalar tree_4_3_u01_r12_network.content_distribution 	client-19 	32
scalar tree_4_3_u01_r12_network.content_distribution 	client-20 	33
scalar tree_4_3_u01_r12_network.content_distribution 	client-21 	34
scalar tree_4_3_u01_r12_network.content_distribution 	client-22 	35
scalar tree_4_3_u01_r12_network.content_distribution 	client-23 	36
scalar tree_4_3_u01_r12_network.content_distribution 	client-24 	37
scalar tree_4_3_u01_r12_network.content_distribution 	client-25 	38
scalar tree_4_3_u01_r12_network.content_distribution 	client-26 	39
scalar tree_4_3_u01_r12_network.content_distribution 	repo-0_card 	100000
scalar tree_4_3_u01_r12_network.content_distribution 	repo-0_price 	0
scalar tree_4_3_u01_r12_network.statistics 	stabilization_time 	795.3
scalar tree_4_3_u01_r12_network.statistics 	p_hit 	0.14958729665425
scalar tree_4_3_u01_r12_network.statistics 	interests 	26750.125
scalar tree_4_3_u01_r12_network.statistics 	data 	18662.975
scalar tree_4_3_u01_r12_network.statistics 	hdistance 	3.0428903566224
scalar tree_4_3_u01_r12_network.statistics 	avg_time 	0.004615578165
scalar tree_4_3_u01_r12_network.statistics 	downloads 	323482
scalar tree_4_3_u01_r12_network.statistics 	total_cost 	0
scalar tree_4_3_u01_r12_network.statistics 	total_replicas 	100000
scalar tree_4_3_u01_r12_network.statistics 	inner_hit 	0.26497919513296
scalar tree_4_3_u01_r12_network.node[0].core_layer 	interests[0] 	242195
scalar tree_4_3_u01_r12_network.node[0].core_layer 	repo_load[0] 	237766
scalar tree_4_3_u01_r12_network.node[0].core_layer 	data[0] 	0
scalar tree_4_3_u01_r12_network.node[0].core_layer 	repo_int[0] 	237766
scalar tree_4_3_u01_r12_network.node[0].content_store 	p_hit[0] 	0.018286917566424
scalar tree_4_3_u01_r12_network.node[0].content_store 	hits[0] 	4429
scalar tree_4_3_u01_r12_network.node[0].content_store 	misses[0] 	237766
scalar tree_4_3_u01_r12_network.node[0].content_store 	decision_yes[0] 	23761
scalar tree_4_3_u01_r12_network.node[0].content_store 	decision_no[0] 	214005
scalar tree_4_3_u01_r12_network.node[0].content_store 	decision_ratio[0] 	0.099934389273487
scalar tree_4_3_u01_r12_network.node[1].core_layer 	interests[1] 	82232
scalar tree_4_3_u01_r12_network.node[1].core_layer 	data[1] 	80335
scalar tree_4_3_u01_r12_network.node[1].content_store 	p_hit[1] 	0.023020235431462
scalar tree_4_3_u01_r12_network.node[1].content_store 	hits[1] 	1893
scalar tree_4_3_u01_r12_network.node[1].content_store 	misses[1] 	80339
scalar tree_4_3_u01_r12_network.node[1].content_store 	decision_yes[1] 	8031
scalar tree_4_3_u01_r12_network.node[1].content_store 	decision_no[1] 	72304
scalar tree_4_3_u01_r12_network.node[1].content_store 	decision_ratio[1] 	0.099968880313686
scalar tree_4_3_u01_r12_network.node[2].core_layer 	interests[2] 	110566
scalar tree_4_3_u01_r12_network.node[2].core_layer 	data[2] 	107956
scalar tree_4_3_u01_r12_network.node[2].content_store 	p_hit[2] 	0.023587721360997
scalar tree_4_3_u01_r12_network.node[2].content_store 	hits[2] 	2608
scalar tree_4_3_u01_r12_network.node[2].content_store 	misses[2] 	107958
scalar tree_4_3_u01_r12_network.node[2].content_store 	decision_yes[2] 	11009
scalar tree_4_3_u01_r12_network.node[2].content_store 	decision_no[2] 	96947
scalar tree_4_3_u01_r12_network.node[2].content_store 	decision_ratio[2] 	0.10197673126088
scalar tree_4_3_u01_r12_network.node[3].core_layer 	interests[3] 	55139
scalar tree_4_3_u01_r12_network.node[3].core_layer 	data[3] 	53904
scalar tree_4_3_u01_r12_network.node[3].content_store 	p_hit[3] 	0.022343531801447
scalar tree_4_3_u01_r12_network.node[3].content_store 	hits[3] 	1232
scalar tree_4_3_u01_r12_network.node[3].content_store 	misses[3] 	53907
scalar tree_4_3_u01_r12_network.node[3].content_store 	decision_yes[3] 	5327
scalar tree_4_3_u01_r12_network.node[3].content_store 	decision_no[3] 	48577
scalar tree_4_3_u01_r12_network.node[3].content_store 	decision_ratio[3] 	0.098823834965865
scalar tree_4_3_u01_r12_network.node[4].core_layer 	interests[4] 	28363
scalar tree_4_3_u01_r12_network.node[4].core_layer 	data[4] 	27334
scalar tree_4_3_u01_r12_network.node[4].content_store 	p_hit[4] 	0.036209145718013
scalar tree_4_3_u01_r12_network.node[4].content_store 	hits[4] 	1027
scalar tree_4_3_u01_r12_network.node[4].content_store 	misses[4] 	27336
scalar tree_4_3_u01_r12_network.node[4].content_store 	decision_yes[4] 	2762
scalar tree_4_3_u01_r12_network.node[4].content_store 	decision_no[4] 	24572
scalar tree_4_3_u01_r12_network.node[4].content_store 	decision_ratio[4] 	0.10104631594351
scalar tree_4_3_u01_r12_network.node[5].core_layer 	interests[5] 	28316
scalar tree_4_3_u01_r12_network.node[5].core_layer 	data[5] 	27392
scalar tree_4_3_u01_r12_network.node[5].content_store 	p_hit[5] 	0.032631727645148
scalar tree_4_3_u01_r12_network.node[5].content_store 	hits[5] 	924
scalar tree_4_3_u01_r12_network.node[5].content_store 	misses[5] 	27392
scalar tree_4_3_u01_r12_network.node[5].content_store 	decision_yes[5] 	2751
scalar tree_4_3_u01_r12_network.node[5].content_store 	decision_no[5] 	24641
scalar tree_4_3_u01_r12_network.node[5].content_store 	decision_ratio[5] 	0.10043078271028
scalar tree_4_3_u01_r12_network.node[6].core_layer 	interests[6] 	28443
scalar tree_4_3_u01_r12_network.node[6].core_layer 	data[6] 	27506
scalar tree_4_3_u01_r12_network.node[6].content_store 	p_hit[6] 	0.032943079140738
scalar tree_4_3_u01_r12_network.node[6].content_store 	hits[6] 	937
scalar tree_4_3_u01_r12_network.node[6].content_store 	misses[6] 	27506
scalar tree_4_3_u01_r12_network.node[6].content_store 	decision_yes[6] 	2789
scalar tree_4_3_u01_r12_network.node[6].content_store 	decision_no[6] 	24717
scalar tree_4_3_u01_r12_network.node[6].content_store 	decision_ratio[6] 	0.10139605904166
scalar tree_4_3_u01_r12_network.node[7].core_layer 	interests[7] 	37994
scalar tree_4_3_u01_r12_network.node[7].core_layer 	data[7] 	36797
scalar tree_4_3_u01_r12_network.node[7].content_store 	p_hit[7] 	0.031504974469653
scalar tree_4_3_u01_r12_network.node[7].content_store 	hits[7] 	1197
scalar tree_4_3_u01_r12_network.node[7].content_store 	misses[7] 	36797
scalar tree_4_3_u01_r12_network.node[7].content_store 	decision_yes[7] 	3721
scalar tree_4_3_u01_r12_network.node[7].content_store 	decision_no[7] 	33076
scalar tree_4_3_u01_r12_network.node[7].content_store 	decision_ratio[7] 	0.10112237410658
scalar tree_4_3_u01_r12_network.node[8].core_layer 	interests[8] 	18913
scalar tree_4_3_u01_r12_network.node[8].core_layer 	data[8] 	18333
scalar tree_4_3_u01_r12_network.node[8].content_store 	p_hit[8] 	0.030666737164913
scalar tree_4_3_u01_r12_network.node[8].content_store 	hits[8] 	580
scalar tree_4_3_u01_r12_network.node[8].content_store 	misses[8] 	18333
scalar tree_4_3_u01_r12_network.node[8].content_store 	decision_yes[8] 	1886
scalar tree_4_3_u01_r12_network.node[8].content_store 	decision_no[8] 	16447
scalar tree_4_3_u01_r12_network.node[8].content_store 	decision_ratio[8] 	0.10287459771996
scalar tree_4_3_u01_r12_network.node[9].core_layer 	interests[9] 	28797
scalar tree_4_3_u01_r12_network.node[9].core_layer 	data[9] 	27719
scalar tree_4_3_u01_r12_network.node[9].content_store 	p_hit[9] 	0.037434454977949
scalar tree_4_3_u01_r12_network.node[9].content_store 	hits[9] 	1078
scalar tree_4_3_u01_r12_network.node[9].content_store 	misses[9] 	27719
scalar tree_4_3_u01_r12_network.node[9].content_store 	decision_yes[9] 	2852
scalar tree_4_3_u01_r12_network.node[9].content_store 	decision_no[9] 	24867
scalar tree_4_3_u01_r12_network.node[9].content_store 	decision_ratio[9] 	0.10288971463617
scalar tree_4_3_u01_r12_network.node[10].core_layer 	interests[10] 	28400
scalar tree_4_3_u01_r12_network.node[10].core_layer 	data[10] 	27541
scalar tree_4_3_u01_r12_network.node[10].content_store 	p_hit[10] 	0.030246478873239
scalar tree_4_3_u01_r12_network.node[10].content_store 	hits[10] 	859
scalar tree_4_3_u01_r12_network.node[10].content_store 	misses[10] 	27541
scalar tree_4_3_u01_r12_network.node[10].content_store 	decision_yes[10] 	2839
scalar tree_4_3_u01_r12_network.node[10].content_store 	decision_no[10] 	24702
scalar tree_4_3_u01_r12_network.node[10].content_store 	decision_ratio[10] 	0.1030826767365
scalar tree_4_3_u01_r12_network.node[11].core_layer 	interests[11] 	28638
scalar tree_4_3_u01_r12_network.node[11].core_layer 	data[11] 	27717
scalar tree_4_3_u01_r12_network.node[11].content_store 	p_hit[11] 	0.032125148404218
scalar tree_4_3_u01_r12_network.node[11].content_store 	hits[11] 	920
scalar tree_4_3_u01_r12_network.node[11].content_store 	misses[11] 	27718
scalar tree_4_3_u01_r12_network.node[11].content_store 	decision_yes[11] 	2735
scalar tree_4_3_u01_r12_network.node[11].content_store 	decision_no[11] 	24982
scalar tree_4_3_u01_r12_network.node[11].content_store 	decision_ratio[11] 	0.098675902875492
scalar tree_4_3_u01_r12_network.node[12].core_layer 	interests[12] 	28523
scalar tree_4_3_u01_r12_network.node[12].core_layer 	data[12] 	27598
scalar tree_4_3_u01_r12_network.node[12].content_store 	p_hit[12] 	0.032394909371384
scalar tree_4_3_u01_r12_network.node[12].content_store 	hits[12] 	924
scalar tree_4_3_u01_r12_network.node[12].content_store 	misses[12] 	27599
scalar tree_4_3_u01_r12_network.node[12].content_store 	decision_yes[12] 	2902
scalar tree_4_3_u01_r12_network.node[12].content_store 	decision_no[12] 	24696
scalar tree_4_3_u01_r12_network.node[12].content_store 	decision_ratio[12] 	0.10515254728604
scalar tree_4_3_u01_r12_network.node[13].core_layer 	interests[13] 	11973
scalar tree_4_3_u01_r12_network.node[13].core_layer 	data[13] 	9482
scalar tree_4_3_u01_r12_network.node[13].content_store 	p_hit[13] 	0.20805144909379
scalar tree_4_3_u01_r12_network.node[13].content_store 	hits[13] 	2491
scalar tree_4_3_u01_r12_network.node[13].content_store 	misses[13] 	9482
scalar tree_4_3_u01_r12_network.node[13].content_store 	decision_yes[13] 	912
scalar tree_4_3_u01_r12_network.node[13].content_store 	decision_no[13] 	8570
scalar tree_4_3_u01_r12_network.node[13].content_store 	decision_ratio[13] 	0.096182240033748
scalar tree_4_3_u01_r12_network.node[14].core_layer 	interests[14] 	11891
scalar tree_4_3_u01_r12_network.node[14].core_layer 	data[14] 	9342
scalar tree_4_3_u01_r12_network.node[14].content_store 	p_hit[14] 	0.21436380455807
scalar tree_4_3_u01_r12_network.node[14].content_store 	hits[14] 	2549
scalar tree_4_3_u01_r12_network.node[14].content_store 	misses[14] 	9342
scalar tree_4_3_u01_r12_network.node[14].content_store 	decision_yes[14] 	882
scalar tree_4_3_u01_r12_network.node[14].content_store 	decision_no[14] 	8460
scalar tree_4_3_u01_r12_network.node[14].content_store 	decision_ratio[14] 	0.094412331406551
scalar tree_4_3_u01_r12_network.node[15].core_layer 	interests[15] 	12040
scalar tree_4_3_u01_r12_network.node[15].core_layer 	data[15] 	9539
scalar tree_4_3_u01_r12_network.node[15].content_store 	p_hit[15] 	0.20772425249169
scalar tree_4_3_u01_r12_network.node[15].content_store 	hits[15] 	2501
scalar tree_4_3_u01_r12_network.node[15].content_store 	misses[15] 	9539
scalar tree_4_3_u01_r12_network.node[15].content_store 	decision_yes[15] 	905
scalar tree_4_3_u01_r12_network.node[15].content_store 	decision_no[15] 	8634
scalar tree_4_3_u01_r12_network.node[15].content_store 	decision_ratio[15] 	0.094873676486005
scalar tree_4_3_u01_r12_network.node[16].core_layer 	interests[16] 	11863
scalar tree_4_3_u01_r12_network.node[16].core_layer 	data[16] 	9354
scalar tree_4_3_u01_r12_network.node[16].content_store 	p_hit[16] 	0.21149793475512
scalar tree_4_3_u01_r12_network.node[16].content_store 	hits[16] 	2509
scalar tree_4_3_u01_r12_network.node[16].content_store 	misses[16] 	9354
scalar tree_4_3_u01_r12_network.node[16].content_store 	decision_yes[16] 	862
scalar tree_4_3_u01_r12_network.node[16].content_store 	decision_no[16] 	8492
scalar tree_4_3_u01_r12_network.node[16].content_store 	decision_ratio[16] 	0.092153089587342
scalar tree_4_3_u01_r12_network.node[17].core_layer 	interests[17] 	11900
scalar tree_4_3_u01_r12_network.node[17].core_layer 	data[17] 	9450
scalar tree_4_3_u01_r12_network.node[17].content_store 	p_hit[17] 	0.20588235294118
scalar tree_4_3_u01_r12_network.node[17].content_store 	hits[17] 	2450
scalar tree_4_3_u01_r12_network.node[17].content_store 	misses[17] 	9450
scalar tree_4_3_u01_r12_network.node[17].content_store 	decision_yes[17] 	909
scalar tree_4_3_u01_r12_network.node[17].content_store 	decision_no[17] 	8541
scalar tree_4_3_u01_r12_network.node[17].content_store 	decision_ratio[17] 	0.096190476190476
scalar tree_4_3_u01_r12_network.node[18].core_layer 	interests[18] 	11988
scalar tree_4_3_u01_r12_network.node[18].core_layer 	data[18] 	9512
scalar tree_4_3_u01_r12_network.node[18].content_store 	p_hit[18] 	0.20653987320654
scalar tree_4_3_u01_r12_network.node[18].content_store 	hits[18] 	2476
scalar tree_4_3_u01_r12_network.node[18].content_store 	misses[18] 	9512
scalar tree_4_3_u01_r12_network.node[18].content_store 	decision_yes[18] 	933
scalar tree_4_3_u01_r12_network.node[18].content_store 	decision_no[18] 	8579
scalar tree_4_3_u01_r12_network.node[18].content_store 	decision_ratio[18] 	0.098086627417998
scalar tree_4_3_u01_r12_network.node[19].core_layer 	interests[19] 	11977
scalar tree_4_3_u01_r12_network.node[19].core_layer 	data[19] 	9513
scalar tree_4_3_u01_r12_network.node[19].content_store 	p_hit[19] 	0.20572764465225
scalar tree_4_3_u01_r12_network.node[19].content_store 	hits[19] 	2464
scalar tree_4_3_u01_r12_network.node[19].content_store 	misses[19] 	9513
scalar tree_4_3_u01_r12_network.node[19].content_store 	decision_yes[19] 	965
scalar tree_4_3_u01_r12_network.node[19].content_store 	decision_no[19] 	8548
scalar tree_4_3_u01_r12_network.node[19].content_store 	decision_ratio[19] 	0.10144013455272
scalar tree_4_3_u01_r12_network.node[20].core_layer 	interests[20] 	11804
scalar tree_4_3_u01_r12_network.node[20].core_layer 	data[20] 	9426
scalar tree_4_3_u01_r12_network.node[20].content_store 	p_hit[20] 	0.20145713317519
scalar tree_4_3_u01_r12_network.node[20].content_store 	hits[20] 	2378
scalar tree_4_3_u01_r12_network.node[20].content_store 	misses[20] 	9426
scalar tree_4_3_u01_r12_network.node[20].content_store 	decision_yes[20] 	949
scalar tree_4_3_u01_r12_network.node[20].content_store 	decision_no[20] 	8477
scalar tree_4_3_u01_r12_network.node[20].content_store 	decision_ratio[20] 	0.10067897305326
scalar tree_4_3_u01_r12_network.node[21].core_layer 	interests[21] 	12053
scalar tree_4_3_u01_r12_network.node[21].core_layer 	data[21] 	9504
scalar tree_4_3_u01_r12_network.node[21].content_store 	p_hit[21] 	0.21148261843524
scalar tree_4_3_u01_r12_network.node[21].content_store 	hits[21] 	2549
scalar tree_4_3_u01_r12_network.node[21].content_store 	misses[21] 	9504
scalar tree_4_3_u01_r12_network.node[21].content_store 	decision_yes[21] 	952
scalar tree_4_3_u01_r12_network.node[21].content_store 	decision_no[21] 	8552
scalar tree_4_3_u01_r12_network.node[21].content_store 	decision_ratio[21] 	0.10016835016835
scalar tree_4_3_u01_r12_network.node[22].core_layer 	interests[22] 	11977
scalar tree_4_3_u01_r12_network.node[22].core_layer 	data[22] 	9580
scalar tree_4_3_u01_r12_network.node[22].content_store 	p_hit[22] 	0.20005009601737
scalar tree_4_3_u01_r12_network.node[22].content_store 	hits[22] 	2396
scalar tree_4_3_u01_r12_network.node[22].content_store 	misses[22] 	9581
scalar tree_4_3_u01_r12_network.node[22].content_store 	decision_yes[22] 	908
scalar tree_4_3_u01_r12_network.node[22].content_store 	decision_no[22] 	8672
scalar tree_4_3_u01_r12_network.node[22].content_store 	decision_ratio[22] 	0.094780793319415
scalar tree_4_3_u01_r12_network.node[23].core_layer 	interests[23] 	11795
scalar tree_4_3_u01_r12_network.node[23].core_layer 	data[23] 	9359
scalar tree_4_3_u01_r12_network.node[23].content_store 	p_hit[23] 	0.20652818991098
scalar tree_4_3_u01_r12_network.node[23].content_store 	hits[23] 	2436
scalar tree_4_3_u01_r12_network.node[23].content_store 	misses[23] 	9359
scalar tree_4_3_u01_r12_network.node[23].content_store 	decision_yes[23] 	938
scalar tree_4_3_u01_r12_network.node[23].content_store 	decision_no[23] 	8421
scalar tree_4_3_u01_r12_network.node[23].content_store 	decision_ratio[23] 	0.1002243829469
scalar tree_4_3_u01_r12_network.node[24].core_layer 	interests[24] 	12002
scalar tree_4_3_u01_r12_network.node[24].core_layer 	data[24] 	9506
scalar tree_4_3_u01_r12_network.node[24].content_store 	p_hit[24] 	0.20796533911015
scalar tree_4_3_u01_r12_network.node[24].content_store 	hits[24] 	2496
scalar tree_4_3_u01_r12_network.node[24].content_store 	misses[24] 	9506
scalar tree_4_3_u01_r12_network.node[24].content_store 	decision_yes[24] 	916
scalar tree_4_3_u01_r12_network.node[24].content_store 	decision_no[24] 	8590
scalar tree_4_3_u01_r12_network.node[24].content_store 	decision_ratio[24] 	0.096360193561961
scalar tree_4_3_u01_r12_network.node[25].core_layer 	interests[25] 	11992
scalar tree_4_3_u01_r12_network.node[25].core_layer 	data[25] 	9549
scalar tree_4_3_u01_r12_network.node[25].content_store 	p_hit[25] 	0.2037191460974
scalar tree_4_3_u01_r12_network.node[25].content_store 	hits[25] 	2443
scalar tree_4_3_u01_r12_network.node[25].content_store 	misses[25] 	9549
scalar tree_4_3_u01_r12_network.node[25].content_store 	decision_yes[25] 	906
scalar tree_4_3_u01_r12_network.node[25].content_store 	decision_no[25] 	8643
scalar tree_4_3_u01_r12_network.node[25].content_store 	decision_ratio[25] 	0.09487904492617
scalar tree_4_3_u01_r12_network.node[26].core_layer 	interests[26] 	12060
scalar tree_4_3_u01_r12_network.node[26].core_layer 	data[26] 	9491
scalar tree_4_3_u01_r12_network.node[26].content_store 	p_hit[26] 	0.21301824212272
scalar tree_4_3_u01_r12_network.node[26].content_store 	hits[26] 	2569
scalar tree_4_3_u01_r12_network.node[26].content_store 	misses[26] 	9491
scalar tree_4_3_u01_r12_network.node[26].content_store 	decision_yes[26] 	902
scalar tree_4_3_u01_r12_network.node[26].content_store 	decision_no[26] 	8589
scalar tree_4_3_u01_r12_network.node[26].content_store 	decision_ratio[26] 	0.095037403856285
scalar tree_4_3_u01_r12_network.node[27].core_layer 	interests[27] 	11972
scalar tree_4_3_u01_r12_network.node[27].core_layer 	data[27] 	9422
scalar tree_4_3_u01_r12_network.node[27].content_store 	p_hit[27] 	0.21291346475109
scalar tree_4_3_u01_r12_network.node[27].content_store 	hits[27] 	2549
scalar tree_4_3_u01_r12_network.node[27].content_store 	misses[27] 	9423
scalar tree_4_3_u01_r12_network.node[27].content_store 	decision_yes[27] 	955
scalar tree_4_3_u01_r12_network.node[27].content_store 	decision_no[27] 	8467
scalar tree_4_3_u01_r12_network.node[27].content_store 	decision_ratio[27] 	0.10135852260667
scalar tree_4_3_u01_r12_network.node[28].core_layer 	interests[28] 	11918
scalar tree_4_3_u01_r12_network.node[28].core_layer 	data[28] 	9552
scalar tree_4_3_u01_r12_network.node[28].content_store 	p_hit[28] 	0.19852324215472
scalar tree_4_3_u01_r12_network.node[28].content_store 	hits[28] 	2366
scalar tree_4_3_u01_r12_network.node[28].content_store 	misses[28] 	9552
scalar tree_4_3_u01_r12_network.node[28].content_store 	decision_yes[28] 	951
scalar tree_4_3_u01_r12_network.node[28].content_store 	decision_no[28] 	8601
scalar tree_4_3_u01_r12_network.node[28].content_store 	decision_ratio[28] 	0.099560301507538
scalar tree_4_3_u01_r12_network.node[29].core_layer 	interests[29] 	12003
scalar tree_4_3_u01_r12_network.node[29].core_layer 	data[29] 	9552
scalar tree_4_3_u01_r12_network.node[29].content_store 	p_hit[29] 	0.20411563775723
scalar tree_4_3_u01_r12_network.node[29].content_store 	hits[29] 	2450
scalar tree_4_3_u01_r12_network.node[29].content_store 	misses[29] 	9553
scalar tree_4_3_u01_r12_network.node[29].content_store 	decision_yes[29] 	988
scalar tree_4_3_u01_r12_network.node[29].content_store 	decision_no[29] 	8564
scalar tree_4_3_u01_r12_network.node[29].content_store 	decision_ratio[29] 	0.1034338358459
scalar tree_4_3_u01_r12_network.node[30].core_layer 	interests[30] 	12165
scalar tree_4_3_u01_r12_network.node[30].core_layer 	data[30] 	9693
scalar tree_4_3_u01_r12_network.node[30].content_store 	p_hit[30] 	0.20320591861899
scalar tree_4_3_u01_r12_network.node[30].content_store 	hits[30] 	2472
scalar tree_4_3_u01_r12_network.node[30].content_store 	misses[30] 	9693
scalar tree_4_3_u01_r12_network.node[30].content_store 	decision_yes[30] 	927
scalar tree_4_3_u01_r12_network.node[30].content_store 	decision_no[30] 	8766
scalar tree_4_3_u01_r12_network.node[30].content_store 	decision_ratio[30] 	0.095636025998143
scalar tree_4_3_u01_r12_network.node[31].core_layer 	interests[31] 	12089
scalar tree_4_3_u01_r12_network.node[31].core_layer 	data[31] 	9594
scalar tree_4_3_u01_r12_network.node[31].content_store 	p_hit[31] 	0.20638597071718
scalar tree_4_3_u01_r12_network.node[31].content_store 	hits[31] 	2495
scalar tree_4_3_u01_r12_network.node[31].content_store 	misses[31] 	9594
scalar tree_4_3_u01_r12_network.node[31].content_store 	decision_yes[31] 	979
scalar tree_4_3_u01_r12_network.node[31].content_store 	decision_no[31] 	8615
scalar tree_4_3_u01_r12_network.node[31].content_store 	decision_ratio[31] 	0.10204294350636
scalar tree_4_3_u01_r12_network.node[32].core_layer 	interests[32] 	11947
scalar tree_4_3_u01_r12_network.node[32].core_layer 	data[32] 	9369
scalar tree_4_3_u01_r12_network.node[32].content_store 	p_hit[32] 	0.21578638988867
scalar tree_4_3_u01_r12_network.node[32].content_store 	hits[32] 	2578
scalar tree_4_3_u01_r12_network.node[32].content_store 	misses[32] 	9369
scalar tree_4_3_u01_r12_network.node[32].content_store 	decision_yes[32] 	946
scalar tree_4_3_u01_r12_network.node[32].content_store 	decision_no[32] 	8423
scalar tree_4_3_u01_r12_network.node[32].content_store 	decision_ratio[32] 	0.10097128829117
scalar tree_4_3_u01_r12_network.node[33].core_layer 	interests[33] 	11967
scalar tree_4_3_u01_r12_network.node[33].core_layer 	data[33] 	9437
scalar tree_4_3_u01_r12_network.node[33].content_store 	p_hit[33] 	0.21141472382385
scalar tree_4_3_u01_r12_network.node[33].content_store 	hits[33] 	2530
scalar tree_4_3_u01_r12_network.node[33].content_store 	misses[33] 	9437
scalar tree_4_3_u01_r12_network.node[33].content_store 	decision_yes[33] 	902
scalar tree_4_3_u01_r12_network.node[33].content_store 	decision_no[33] 	8535
scalar tree_4_3_u01_r12_network.node[33].content_store 	decision_ratio[33] 	0.095581222846244
scalar tree_4_3_u01_r12_network.node[34].core_layer 	interests[34] 	11943
scalar tree_4_3_u01_r12_network.node[34].core_layer 	data[34] 	9474
scalar tree_4_3_u01_r12_network.node[34].content_store 	p_hit[34] 	0.20673197689023
scalar tree_4_3_u01_r12_network.node[34].content_store 	hits[34] 	2469
scalar tree_4_3_u01_r12_network.node[34].content_store 	misses[34] 	9474
scalar tree_4_3_u01_r12_network.node[34].content_store 	decision_yes[34] 	1014
scalar tree_4_3_u01_r12_network.node[34].content_store 	decision_no[34] 	8460
scalar tree_4_3_u01_r12_network.node[34].content_store 	decision_ratio[34] 	0.10702976567448
scalar tree_4_3_u01_r12_network.node[35].core_layer 	interests[35] 	12255
scalar tree_4_3_u01_r12_network.node[35].core_layer 	data[35] 	9712
scalar tree_4_3_u01_r12_network.node[35].content_store 	p_hit[35] 	0.20750713994288
scalar tree_4_3_u01_r12_network.node[35].content_store 	hits[35] 	2543
scalar tree_4_3_u01_r12_network.node[35].content_store 	misses[35] 	9712
scalar tree_4_3_u01_r12_network.node[35].content_store 	decision_yes[35] 	1016
scalar tree_4_3_u01_r12_network.node[35].content_store 	decision_no[35] 	8696
scalar tree_4_3_u01_r12_network.node[35].content_store 	decision_ratio[35] 	0.10461285008237
scalar tree_4_3_u01_r12_network.node[36].core_layer 	interests[36] 	11880
scalar tree_4_3_u01_r12_network.node[36].core_layer 	data[36] 	9452
scalar tree_4_3_u01_r12_network.node[36].content_store 	p_hit[36] 	0.20429292929293
scalar tree_4_3_u01_r12_network.node[36].content_store 	hits[36] 	2427
scalar tree_4_3_u01_r12_network.node[36].content_store 	misses[36] 	9453
scalar tree_4_3_u01_r12_network.node[36].content_store 	decision_yes[36] 	934
scalar tree_4_3_u01_r12_network.node[36].content_store 	decision_no[36] 	8518
scalar tree_4_3_u01_r12_network.node[36].content_store 	decision_ratio[36] 	0.098815065594583
scalar tree_4_3_u01_r12_network.node[37].core_layer 	interests[37] 	11947
scalar tree_4_3_u01_r12_network.node[37].core_layer 	data[37] 	9458
scalar tree_4_3_u01_r12_network.node[37].content_store 	p_hit[37] 	0.20833682095924
scalar tree_4_3_u01_r12_network.node[37].content_store 	hits[37] 	2489
scalar tree_4_3_u01_r12_network.node[37].content_store 	misses[37] 	9458
scalar tree_4_3_u01_r12_network.node[37].content_store 	decision_yes[37] 	898
scalar tree_4_3_u01_r12_network.node[37].content_store 	decision_no[37] 	8560
scalar tree_4_3_u01_r12_network.node[37].content_store 	decision_ratio[37] 	0.094946077394798
scalar tree_4_3_u01_r12_network.node[38].core_layer 	interests[38] 	12076
scalar tree_4_3_u01_r12_network.node[38].core_layer 	data[38] 	9597
scalar tree_4_3_u01_r12_network.node[38].content_store 	p_hit[38] 	0.20528320635972
scalar tree_4_3_u01_r12_network.node[38].content_store 	hits[38] 	2479
scalar tree_4_3_u01_r12_network.node[38].content_store 	misses[38] 	9597
scalar tree_4_3_u01_r12_network.node[38].content_store 	decision_yes[38] 	981
scalar tree_4_3_u01_r12_network.node[38].content_store 	decision_no[38] 	8616
scalar tree_4_3_u01_r12_network.node[38].content_store 	decision_ratio[38] 	0.10221944357612
scalar tree_4_3_u01_r12_network.node[39].core_layer 	interests[39] 	12009
scalar tree_4_3_u01_r12_network.node[39].core_layer 	data[39] 	9468
scalar tree_4_3_u01_r12_network.node[39].content_store 	p_hit[39] 	0.21159130652011
scalar tree_4_3_u01_r12_network.node[39].content_store 	hits[39] 	2541
scalar tree_4_3_u01_r12_network.node[39].content_store 	misses[39] 	9468
scalar tree_4_3_u01_r12_network.node[39].content_store 	decision_yes[39] 	1001
scalar tree_4_3_u01_r12_network.node[39].content_store 	decision_no[39] 	8467
scalar tree_4_3_u01_r12_network.node[39].content_store 	decision_ratio[39] 	0.10572454583861
scalar tree_4_3_u01_r12_network.client[13] 	hdistance[13] 	3.0370834377349
scalar tree_4_3_u01_r12_network.client[13] 	downloads[13] 	11973
scalar tree_4_3_u01_r12_network.client[13] 	avg_time[13] 	0.004608854605
scalar tree_4_3_u01_r12_network.client[14] 	hdistance[14] 	3.0144647212177
scalar tree_4_3_u01_r12_network.client[14] 	downloads[14] 	11891
scalar tree_4_3_u01_r12_network.client[14] 	avg_time[14] 	0.004570208619
scalar tree_4_3_u01_r12_network.client[15] 	hdistance[15] 	3.0232558139535
scalar tree_4_3_u01_r12_network.client[15] 	downloads[15] 	12040
scalar tree_4_3_u01_r12_network.client[15] 	avg_time[15] 	0.004591430025
scalar tree_4_3_u01_r12_network.client[16] 	hdistance[16] 	3.0275646969569
scalar tree_4_3_u01_r12_network.client[16] 	downloads[16] 	11863
scalar tree_4_3_u01_r12_network.client[16] 	avg_time[16] 	0.004589561224
scalar tree_4_3_u01_r12_network.client[17] 	hdistance[17] 	3.0510924369748
scalar tree_4_3_u01_r12_network.client[17] 	downloads[17] 	11900
scalar tree_4_3_u01_r12_network.client[17] 	avg_time[17] 	0.004627728134
scalar tree_4_3_u01_r12_network.client[18] 	hdistance[18] 	3.0482982982983
scalar tree_4_3_u01_r12_network.client[18] 	downloads[18] 	11988
scalar tree_4_3_u01_r12_network.client[18] 	avg_time[18] 	0.004624121105
scalar tree_4_3_u01_r12_network.client[19] 	hdistance[19] 	3.0455873758036
scalar tree_4_3_u01_r12_network.client[19] 	downloads[19] 	11977
scalar tree_4_3_u01_r12_network.client[19] 	avg_time[19] 	0.004618682812
scalar tree_4_3_u01_r12_network.client[20] 	hdistance[20] 	3.0687902405964
scalar tree_4_3_u01_r12_network.client[20] 	downloads[20] 	11804
scalar tree_4_3_u01_r12_network.client[20] 	avg_time[20] 	0.00465489067
scalar tree_4_3_u01_r12_network.client[21] 	hdistance[21] 	3.0263005060981
scalar tree_4_3_u01_r12_network.client[21] 	downloads[21] 	12053
scalar tree_4_3_u01_r12_network.client[21] 	avg_time[21] 	0.004593485719
scalar tree_4_3_u01_r12_network.client[22] 	hdistance[22] 	3.0678022712091
scalar tree_4_3_u01_r12_network.client[22] 	downloads[22] 	11976
scalar tree_4_3_u01_r12_network.client[22] 	avg_time[22] 	0.004655206406
scalar tree_4_3_u01_r12_network.client[23] 	hdistance[23] 	3.0543450614667
scalar tree_4_3_u01_r12_network.client[23] 	downloads[23] 	11795
scalar tree_4_3_u01_r12_network.client[23] 	avg_time[23] 	0.004632905147
scalar tree_4_3_u01_r12_network.client[24] 	hdistance[24] 	3.0504915847359
scalar tree_4_3_u01_r12_network.client[24] 	downloads[24] 	12002
scalar tree_4_3_u01_r12_network.client[24] 	avg_time[24] 	0.004622086824
scalar tree_4_3_u01_r12_network.client[25] 	hdistance[25] 	3.0510340226818
scalar tree_4_3_u01_r12_network.client[25] 	downloads[25] 	11992
scalar tree_4_3_u01_r12_network.client[25] 	avg_time[25] 	0.004629583384
scalar tree_4_3_u01_r12_network.client[26] 	hdistance[26] 	3.0255389718076
scalar tree_4_3_u01_r12_network.client[26] 	downloads[26] 	12060
scalar tree_4_3_u01_r12_network.client[26] 	avg_time[26] 	0.004587559175
scalar tree_4_3_u01_r12_network.client[27] 	hdistance[27] 	3.0337482248768
scalar tree_4_3_u01_r12_network.client[27] 	downloads[27] 	11971
scalar tree_4_3_u01_r12_network.client[27] 	avg_time[27] 	0.004597054623
scalar tree_4_3_u01_r12_network.client[28] 	hdistance[28] 	3.0602450075516
scalar tree_4_3_u01_r12_network.client[28] 	downloads[28] 	11918
scalar tree_4_3_u01_r12_network.client[28] 	avg_time[28] 	0.004644064817
scalar tree_4_3_u01_r12_network.client[29] 	hdistance[29] 	3.0494917513748
scalar tree_4_3_u01_r12_network.client[29] 	downloads[29] 	12002
scalar tree_4_3_u01_r12_network.client[29] 	avg_time[29] 	0.00462812525
scalar tree_4_3_u01_r12_network.client[30] 	hdistance[30] 	3.0471023427867
scalar tree_4_3_u01_r12_network.client[30] 	downloads[30] 	12165
scalar tree_4_3_u01_r12_network.client[30] 	avg_time[30] 	0.004624082444
scalar tree_4_3_u01_r12_network.client[31] 	hdistance[31] 	3.0618744313012
scalar tree_4_3_u01_r12_network.client[31] 	downloads[31] 	12089
scalar tree_4_3_u01_r12_network.client[31] 	avg_time[31] 	0.004641571995
scalar tree_4_3_u01_r12_network.client[32] 	hdistance[32] 	3.0210094584415
scalar tree_4_3_u01_r12_network.client[32] 	downloads[32] 	11947
scalar tree_4_3_u01_r12_network.client[32] 	avg_time[32] 	0.004581063416
scalar tree_4_3_u01_r12_network.client[33] 	hdistance[33] 	3.0243168713963
scalar tree_4_3_u01_r12_network.client[33] 	downloads[33] 	11967
scalar tree_4_3_u01_r12_network.client[33] 	avg_time[33] 	0.004587585185
scalar tree_4_3_u01_r12_network.client[34] 	hdistance[34] 	3.0435401490413
scalar tree_4_3_u01_r12_network.client[34] 	downloads[34] 	11943
scalar tree_4_3_u01_r12_network.client[34] 	avg_time[34] 	0.00461776473
scalar tree_4_3_u01_r12_network.client[35] 	hdistance[35] 	3.0404732762138
scalar tree_4_3_u01_r12_network.client[35] 	downloads[35] 	12255
scalar tree_4_3_u01_r12_network.client[35] 	avg_time[35] 	0.004616398398
scalar tree_4_3_u01_r12_network.client[36] 	hdistance[36] 	3.0596851586834
scalar tree_4_3_u01_r12_network.client[36] 	downloads[36] 	11879
scalar tree_4_3_u01_r12_network.client[36] 	avg_time[36] 	0.004639340353
scalar tree_4_3_u01_r12_network.client[37] 	hdistance[37] 	3.0467062860969
scalar tree_4_3_u01_r12_network.client[37] 	downloads[37] 	11947
scalar tree_4_3_u01_r12_network.client[37] 	avg_time[37] 	0.004618729749
scalar tree_4_3_u01_r12_network.client[38] 	hdistance[38] 	3.0437230871149
scalar tree_4_3_u01_r12_network.client[38] 	downloads[38] 	12076
scalar tree_4_3_u01_r12_network.client[38] 	avg_time[38] 	0.004618857616
scalar tree_4_3_u01_r12_network.client[39] 	hdistance[39] 	3.0344741443917
scalar tree_4_3_u01_r12_network.client[39] 	downloads[39] 	12009
scalar tree_4_3_u01_r12_network.client[39] 	avg_time[39] 	0.00459966805
