version 2
run General-36-20160820-03:11:02-14346
attr a 0.9
attr cd fix0.1
attr configname General
attr cr lru
attr datetime 20160820-03:11:02
attr experiment General
attr fsize 1
attr inifile hw5115/scenario_A/SPR-FIX0.1.ini
attr iterationvars "$name=tree_4_3, $un=01, $rep=17, $cd=fix0.1, $cr=lru, $fsize=1, $a=0.9, $sl=spr, $ttl=1000, $variance=0.05"
attr iterationvars2 "$name=tree_4_3, $un=01, $rep=17, $cd=fix0.1, $cr=lru, $fsize=1, $a=0.9, $sl=spr, $ttl=1000, $variance=0.05, $repetition=0"
attr measurement "$name=tree_4_3, $un=01, $rep=17, $cd=fix0.1, $cr=lru, $fsize=1, $a=0.9, $sl=spr, $ttl=1000, $variance=0.05"
attr name tree_4_3
attr network networks.${name}_u${un}_r${rep}_network
attr processid 14346
attr rep 17
attr repetition 0
attr replication #0
attr resultdir results
attr runnumber 36
attr seedset 17
attr sl spr
attr ttl 1000
attr un 01
attr variance 0.05

scalar . 	a 	0.9
scalar . 	fsize 	1
scalar . 	rep 	17
scalar . 	ttl 	1000
scalar . 	un 	01
scalar . 	variance 	0.05
scalar tree_4_3_u01_r17_network.content_distribution 	repo-0 	0
scalar tree_4_3_u01_r17_network.content_distribution 	client-0 	13
scalar tree_4_3_u01_r17_network.content_distribution 	client-1 	14
scalar tree_4_3_u01_r17_network.content_distribution 	client-2 	15
scalar tree_4_3_u01_r17_network.content_distribution 	client-3 	16
scalar tree_4_3_u01_r17_network.content_distribution 	client-4 	17
scalar tree_4_3_u01_r17_network.content_distribution 	client-5 	18
scalar tree_4_3_u01_r17_network.content_distribution 	client-6 	19
scalar tree_4_3_u01_r17_network.content_distribution 	client-7 	20
scalar tree_4_3_u01_r17_network.content_distribution 	client-8 	21
scalar tree_4_3_u01_r17_network.content_distribution 	client-9 	22
scalar tree_4_3_u01_r17_network.content_distribution 	client-10 	23
scalar tree_4_3_u01_r17_network.content_distribution 	client-11 	24
scalar tree_4_3_u01_r17_network.content_distribution 	client-12 	25
scalar tree_4_3_u01_r17_network.content_distribution 	client-13 	26
scalar tree_4_3_u01_r17_network.content_distribution 	client-14 	27
scalar tree_4_3_u01_r17_network.content_distribution 	client-15 	28
scalar tree_4_3_u01_r17_network.content_distribution 	client-16 	29
scalar tree_4_3_u01_r17_network.content_distribution 	client-17 	30
scalar tree_4_3_u01_r17_network.content_distribution 	client-18 	31
scalar tree_4_3_u01_r17_network.content_distribution 	client-19 	32
scalar tree_4_3_u01_r17_network.content_distribution 	client-20 	33
scalar tree_4_3_u01_r17_network.content_distribution 	client-21 	34
scalar tree_4_3_u01_r17_network.content_distribution 	client-22 	35
scalar tree_4_3_u01_r17_network.content_distribution 	client-23 	36
scalar tree_4_3_u01_r17_network.content_distribution 	client-24 	37
scalar tree_4_3_u01_r17_network.content_distribution 	client-25 	38
scalar tree_4_3_u01_r17_network.content_distribution 	client-26 	39
scalar tree_4_3_u01_r17_network.content_distribution 	repo-0_card 	100000
scalar tree_4_3_u01_r17_network.content_distribution 	repo-0_price 	0
scalar tree_4_3_u01_r17_network.statistics 	stabilization_time 	903.4
scalar tree_4_3_u01_r17_network.statistics 	p_hit 	0.15030487331985
scalar tree_4_3_u01_r17_network.statistics 	interests 	26838.15
scalar tree_4_3_u01_r17_network.statistics 	data 	18713.925
scalar tree_4_3_u01_r17_network.statistics 	hdistance 	3.036166268286
scalar tree_4_3_u01_r17_network.statistics 	avg_time 	0.004607213158
scalar tree_4_3_u01_r17_network.statistics 	downloads 	324952
scalar tree_4_3_u01_r17_network.statistics 	total_cost 	0
scalar tree_4_3_u01_r17_network.statistics 	total_replicas 	100000
scalar tree_4_3_u01_r17_network.statistics 	inner_hit 	0.26755028434969
scalar tree_4_3_u01_r17_network.node[0].core_layer 	interests[0] 	242612
scalar tree_4_3_u01_r17_network.node[0].core_layer 	repo_load[0] 	238011
scalar tree_4_3_u01_r17_network.node[0].core_layer 	data[0] 	0
scalar tree_4_3_u01_r17_network.node[0].core_layer 	repo_int[0] 	238011
scalar tree_4_3_u01_r17_network.node[0].content_store 	p_hit[0] 	0.01896443704351
scalar tree_4_3_u01_r17_network.node[0].content_store 	hits[0] 	4601
scalar tree_4_3_u01_r17_network.node[0].content_store 	misses[0] 	238011
scalar tree_4_3_u01_r17_network.node[0].content_store 	decision_yes[0] 	23826
scalar tree_4_3_u01_r17_network.node[0].content_store 	decision_no[0] 	214185
scalar tree_4_3_u01_r17_network.node[0].content_store 	decision_ratio[0] 	0.1001046170135
scalar tree_4_3_u01_r17_network.node[1].core_layer 	interests[1] 	82734
scalar tree_4_3_u01_r17_network.node[1].core_layer 	data[1] 	80788
scalar tree_4_3_u01_r17_network.node[1].content_store 	p_hit[1] 	0.023496990354631
scalar tree_4_3_u01_r17_network.node[1].content_store 	hits[1] 	1944
scalar tree_4_3_u01_r17_network.node[1].content_store 	misses[1] 	80790
scalar tree_4_3_u01_r17_network.node[1].content_store 	decision_yes[1] 	8035
scalar tree_4_3_u01_r17_network.node[1].content_store 	decision_no[1] 	72753
scalar tree_4_3_u01_r17_network.node[1].content_store 	decision_ratio[1] 	0.099457840273308
scalar tree_4_3_u01_r17_network.node[2].core_layer 	interests[2] 	82737
scalar tree_4_3_u01_r17_network.node[2].core_layer 	data[2] 	80730
scalar tree_4_3_u01_r17_network.node[2].content_store 	p_hit[2] 	0.024233414312823
scalar tree_4_3_u01_r17_network.node[2].content_store 	hits[2] 	2005
scalar tree_4_3_u01_r17_network.node[2].content_store 	misses[2] 	80732
scalar tree_4_3_u01_r17_network.node[2].content_store 	decision_yes[2] 	7881
scalar tree_4_3_u01_r17_network.node[2].content_store 	decision_no[2] 	72849
scalar tree_4_3_u01_r17_network.node[2].content_store 	decision_ratio[2] 	0.097621701969528
scalar tree_4_3_u01_r17_network.node[3].core_layer 	interests[3] 	83071
scalar tree_4_3_u01_r17_network.node[3].core_layer 	data[3] 	81094
scalar tree_4_3_u01_r17_network.node[3].content_store 	p_hit[3] 	0.023774843206414
scalar tree_4_3_u01_r17_network.node[3].content_store 	hits[3] 	1975
scalar tree_4_3_u01_r17_network.node[3].content_store 	misses[3] 	81096
scalar tree_4_3_u01_r17_network.node[3].content_store 	decision_yes[3] 	8135
scalar tree_4_3_u01_r17_network.node[3].content_store 	decision_no[3] 	72959
scalar tree_4_3_u01_r17_network.node[3].content_store 	decision_ratio[3] 	0.1003156830345
scalar tree_4_3_u01_r17_network.node[4].core_layer 	interests[4] 	28734
scalar tree_4_3_u01_r17_network.node[4].core_layer 	data[4] 	27702
scalar tree_4_3_u01_r17_network.node[4].content_store 	p_hit[4] 	0.035915640008352
scalar tree_4_3_u01_r17_network.node[4].content_store 	hits[4] 	1032
scalar tree_4_3_u01_r17_network.node[4].content_store 	misses[4] 	27702
scalar tree_4_3_u01_r17_network.node[4].content_store 	decision_yes[4] 	2692
scalar tree_4_3_u01_r17_network.node[4].content_store 	decision_no[4] 	25010
scalar tree_4_3_u01_r17_network.node[4].content_store 	decision_ratio[4] 	0.097177099126417
scalar tree_4_3_u01_r17_network.node[5].core_layer 	interests[5] 	28579
scalar tree_4_3_u01_r17_network.node[5].core_layer 	data[5] 	27527
scalar tree_4_3_u01_r17_network.node[5].content_store 	p_hit[5] 	0.036705273102628
scalar tree_4_3_u01_r17_network.node[5].content_store 	hits[5] 	1049
scalar tree_4_3_u01_r17_network.node[5].content_store 	misses[5] 	27530
scalar tree_4_3_u01_r17_network.node[5].content_store 	decision_yes[5] 	2772
scalar tree_4_3_u01_r17_network.node[5].content_store 	decision_no[5] 	24755
scalar tree_4_3_u01_r17_network.node[5].content_store 	decision_ratio[5] 	0.10070112979983
scalar tree_4_3_u01_r17_network.node[6].core_layer 	interests[6] 	28586
scalar tree_4_3_u01_r17_network.node[6].core_layer 	data[6] 	27505
scalar tree_4_3_u01_r17_network.node[6].content_store 	p_hit[6] 	0.037745749667669
scalar tree_4_3_u01_r17_network.node[6].content_store 	hits[6] 	1079
scalar tree_4_3_u01_r17_network.node[6].content_store 	misses[6] 	27507
scalar tree_4_3_u01_r17_network.node[6].content_store 	decision_yes[6] 	2702
scalar tree_4_3_u01_r17_network.node[6].content_store 	decision_no[6] 	24803
scalar tree_4_3_u01_r17_network.node[6].content_store 	decision_ratio[6] 	0.098236684239229
scalar tree_4_3_u01_r17_network.node[7].core_layer 	interests[7] 	28355
scalar tree_4_3_u01_r17_network.node[7].core_layer 	data[7] 	27463
scalar tree_4_3_u01_r17_network.node[7].content_store 	p_hit[7] 	0.031352495150767
scalar tree_4_3_u01_r17_network.node[7].content_store 	hits[7] 	889
scalar tree_4_3_u01_r17_network.node[7].content_store 	misses[7] 	27466
scalar tree_4_3_u01_r17_network.node[7].content_store 	decision_yes[7] 	2806
scalar tree_4_3_u01_r17_network.node[7].content_store 	decision_no[7] 	24657
scalar tree_4_3_u01_r17_network.node[7].content_store 	decision_ratio[7] 	0.10217383388559
scalar tree_4_3_u01_r17_network.node[8].core_layer 	interests[8] 	28621
scalar tree_4_3_u01_r17_network.node[8].core_layer 	data[8] 	27657
scalar tree_4_3_u01_r17_network.node[8].content_store 	p_hit[8] 	0.033681562489081
scalar tree_4_3_u01_r17_network.node[8].content_store 	hits[8] 	964
scalar tree_4_3_u01_r17_network.node[8].content_store 	misses[8] 	27657
scalar tree_4_3_u01_r17_network.node[8].content_store 	decision_yes[8] 	2762
scalar tree_4_3_u01_r17_network.node[8].content_store 	decision_no[8] 	24895
scalar tree_4_3_u01_r17_network.node[8].content_store 	decision_ratio[8] 	0.099866218317243
scalar tree_4_3_u01_r17_network.node[9].core_layer 	interests[9] 	28610
scalar tree_4_3_u01_r17_network.node[9].core_layer 	data[9] 	27615
scalar tree_4_3_u01_r17_network.node[9].content_store 	p_hit[9] 	0.034778049632995
scalar tree_4_3_u01_r17_network.node[9].content_store 	hits[9] 	995
scalar tree_4_3_u01_r17_network.node[9].content_store 	misses[9] 	27615
scalar tree_4_3_u01_r17_network.node[9].content_store 	decision_yes[9] 	2830
scalar tree_4_3_u01_r17_network.node[9].content_store 	decision_no[9] 	24785
scalar tree_4_3_u01_r17_network.node[9].content_store 	decision_ratio[9] 	0.10248053594061
scalar tree_4_3_u01_r17_network.node[10].core_layer 	interests[10] 	28556
scalar tree_4_3_u01_r17_network.node[10].core_layer 	data[10] 	27615
scalar tree_4_3_u01_r17_network.node[10].content_store 	p_hit[10] 	0.032952794509035
scalar tree_4_3_u01_r17_network.node[10].content_store 	hits[10] 	941
scalar tree_4_3_u01_r17_network.node[10].content_store 	misses[10] 	27615
scalar tree_4_3_u01_r17_network.node[10].content_store 	decision_yes[10] 	2708
scalar tree_4_3_u01_r17_network.node[10].content_store 	decision_no[10] 	24907
scalar tree_4_3_u01_r17_network.node[10].content_store 	decision_ratio[10] 	0.098062647112077
scalar tree_4_3_u01_r17_network.node[11].core_layer 	interests[11] 	28833
scalar tree_4_3_u01_r17_network.node[11].core_layer 	data[11] 	27886
scalar tree_4_3_u01_r17_network.node[11].content_store 	p_hit[11] 	0.032809627856969
scalar tree_4_3_u01_r17_network.node[11].content_store 	hits[11] 	946
scalar tree_4_3_u01_r17_network.node[11].content_store 	misses[11] 	27887
scalar tree_4_3_u01_r17_network.node[11].content_store 	decision_yes[11] 	2741
scalar tree_4_3_u01_r17_network.node[11].content_store 	decision_no[11] 	25145
scalar tree_4_3_u01_r17_network.node[11].content_store 	decision_ratio[11] 	0.098293050276124
scalar tree_4_3_u01_r17_network.node[12].core_layer 	interests[12] 	28534
scalar tree_4_3_u01_r17_network.node[12].core_layer 	data[12] 	27569
scalar tree_4_3_u01_r17_network.node[12].content_store 	p_hit[12] 	0.03371416555688
scalar tree_4_3_u01_r17_network.node[12].content_store 	hits[12] 	962
scalar tree_4_3_u01_r17_network.node[12].content_store 	misses[12] 	27572
scalar tree_4_3_u01_r17_network.node[12].content_store 	decision_yes[12] 	2794
scalar tree_4_3_u01_r17_network.node[12].content_store 	decision_no[12] 	24775
scalar tree_4_3_u01_r17_network.node[12].content_store 	decision_ratio[12] 	0.10134571438935
scalar tree_4_3_u01_r17_network.node[13].core_layer 	interests[13] 	12101
scalar tree_4_3_u01_r17_network.node[13].core_layer 	data[13] 	9595
scalar tree_4_3_u01_r17_network.node[13].content_store 	p_hit[13] 	0.20700768531526
scalar tree_4_3_u01_r17_network.node[13].content_store 	hits[13] 	2505
scalar tree_4_3_u01_r17_network.node[13].content_store 	misses[13] 	9596
scalar tree_4_3_u01_r17_network.node[13].content_store 	decision_yes[13] 	974
scalar tree_4_3_u01_r17_network.node[13].content_store 	decision_no[13] 	8621
scalar tree_4_3_u01_r17_network.node[13].content_store 	decision_ratio[13] 	0.10151120375195
scalar tree_4_3_u01_r17_network.node[14].core_layer 	interests[14] 	11853
scalar tree_4_3_u01_r17_network.node[14].core_layer 	data[14] 	9305
scalar tree_4_3_u01_r17_network.node[14].content_store 	p_hit[14] 	0.21496667510335
scalar tree_4_3_u01_r17_network.node[14].content_store 	hits[14] 	2548
scalar tree_4_3_u01_r17_network.node[14].content_store 	misses[14] 	9305
scalar tree_4_3_u01_r17_network.node[14].content_store 	decision_yes[14] 	899
scalar tree_4_3_u01_r17_network.node[14].content_store 	decision_no[14] 	8406
scalar tree_4_3_u01_r17_network.node[14].content_store 	decision_ratio[14] 	0.096614723267061
scalar tree_4_3_u01_r17_network.node[15].core_layer 	interests[15] 	12280
scalar tree_4_3_u01_r17_network.node[15].core_layer 	data[15] 	9834
scalar tree_4_3_u01_r17_network.node[15].content_store 	p_hit[15] 	0.19910423452769
scalar tree_4_3_u01_r17_network.node[15].content_store 	hits[15] 	2445
scalar tree_4_3_u01_r17_network.node[15].content_store 	misses[15] 	9835
scalar tree_4_3_u01_r17_network.node[15].content_store 	decision_yes[15] 	999
scalar tree_4_3_u01_r17_network.node[15].content_store 	decision_no[15] 	8835
scalar tree_4_3_u01_r17_network.node[15].content_store 	decision_ratio[15] 	0.10158633312996
scalar tree_4_3_u01_r17_network.node[16].core_layer 	interests[16] 	12040
scalar tree_4_3_u01_r17_network.node[16].core_layer 	data[16] 	9530
scalar tree_4_3_u01_r17_network.node[16].content_store 	p_hit[16] 	0.20847176079734
scalar tree_4_3_u01_r17_network.node[16].content_store 	hits[16] 	2510
scalar tree_4_3_u01_r17_network.node[16].content_store 	misses[16] 	9530
scalar tree_4_3_u01_r17_network.node[16].content_store 	decision_yes[16] 	948
scalar tree_4_3_u01_r17_network.node[16].content_store 	decision_no[16] 	8582
scalar tree_4_3_u01_r17_network.node[16].content_store 	decision_ratio[16] 	0.099475341028332
scalar tree_4_3_u01_r17_network.node[17].core_layer 	interests[17] 	12113
scalar tree_4_3_u01_r17_network.node[17].core_layer 	data[17] 	9570
scalar tree_4_3_u01_r17_network.node[17].content_store 	p_hit[17] 	0.2099397341699
scalar tree_4_3_u01_r17_network.node[17].content_store 	hits[17] 	2543
scalar tree_4_3_u01_r17_network.node[17].content_store 	misses[17] 	9570
scalar tree_4_3_u01_r17_network.node[17].content_store 	decision_yes[17] 	941
scalar tree_4_3_u01_r17_network.node[17].content_store 	decision_no[17] 	8629
scalar tree_4_3_u01_r17_network.node[17].content_store 	decision_ratio[17] 	0.098328108672936
scalar tree_4_3_u01_r17_network.node[18].core_layer 	interests[18] 	11735
scalar tree_4_3_u01_r17_network.node[18].core_layer 	data[18] 	9479
scalar tree_4_3_u01_r17_network.node[18].content_store 	p_hit[18] 	0.1922454196847
scalar tree_4_3_u01_r17_network.node[18].content_store 	hits[18] 	2256
scalar tree_4_3_u01_r17_network.node[18].content_store 	misses[18] 	9479
scalar tree_4_3_u01_r17_network.node[18].content_store 	decision_yes[18] 	925
scalar tree_4_3_u01_r17_network.node[18].content_store 	decision_no[18] 	8554
scalar tree_4_3_u01_r17_network.node[18].content_store 	decision_ratio[18] 	0.0975841333474
scalar tree_4_3_u01_r17_network.node[19].core_layer 	interests[19] 	11947
scalar tree_4_3_u01_r17_network.node[19].core_layer 	data[19] 	9481
scalar tree_4_3_u01_r17_network.node[19].content_store 	p_hit[19] 	0.20641165146062
scalar tree_4_3_u01_r17_network.node[19].content_store 	hits[19] 	2466
scalar tree_4_3_u01_r17_network.node[19].content_store 	misses[19] 	9481
scalar tree_4_3_u01_r17_network.node[19].content_store 	decision_yes[19] 	957
scalar tree_4_3_u01_r17_network.node[19].content_store 	decision_no[19] 	8524
scalar tree_4_3_u01_r17_network.node[19].content_store 	decision_ratio[19] 	0.10093871954435
scalar tree_4_3_u01_r17_network.node[20].core_layer 	interests[20] 	12067
scalar tree_4_3_u01_r17_network.node[20].core_layer 	data[20] 	9547
scalar tree_4_3_u01_r17_network.node[20].content_store 	p_hit[20] 	0.20883401011022
scalar tree_4_3_u01_r17_network.node[20].content_store 	hits[20] 	2520
scalar tree_4_3_u01_r17_network.node[20].content_store 	misses[20] 	9547
scalar tree_4_3_u01_r17_network.node[20].content_store 	decision_yes[20] 	917
scalar tree_4_3_u01_r17_network.node[20].content_store 	decision_no[20] 	8630
scalar tree_4_3_u01_r17_network.node[20].content_store 	decision_ratio[20] 	0.096051115533675
scalar tree_4_3_u01_r17_network.node[21].core_layer 	interests[21] 	12021
scalar tree_4_3_u01_r17_network.node[21].core_layer 	data[21] 	9558
scalar tree_4_3_u01_r17_network.node[21].content_store 	p_hit[21] 	0.20480825222527
scalar tree_4_3_u01_r17_network.node[21].content_store 	hits[21] 	2462
scalar tree_4_3_u01_r17_network.node[21].content_store 	misses[21] 	9559
scalar tree_4_3_u01_r17_network.node[21].content_store 	decision_yes[21] 	991
scalar tree_4_3_u01_r17_network.node[21].content_store 	decision_no[21] 	8567
scalar tree_4_3_u01_r17_network.node[21].content_store 	decision_ratio[21] 	0.10368277882402
scalar tree_4_3_u01_r17_network.node[22].core_layer 	interests[22] 	12111
scalar tree_4_3_u01_r17_network.node[22].core_layer 	data[22] 	9572
scalar tree_4_3_u01_r17_network.node[22].content_store 	p_hit[22] 	0.20964412517546
scalar tree_4_3_u01_r17_network.node[22].content_store 	hits[22] 	2539
scalar tree_4_3_u01_r17_network.node[22].content_store 	misses[22] 	9572
scalar tree_4_3_u01_r17_network.node[22].content_store 	decision_yes[22] 	972
scalar tree_4_3_u01_r17_network.node[22].content_store 	decision_no[22] 	8600
scalar tree_4_3_u01_r17_network.node[22].content_store 	decision_ratio[22] 	0.10154617634768
scalar tree_4_3_u01_r17_network.node[23].core_layer 	interests[23] 	11842
scalar tree_4_3_u01_r17_network.node[23].core_layer 	data[23] 	9297
scalar tree_4_3_u01_r17_network.node[23].content_store 	p_hit[23] 	0.21474413105894
scalar tree_4_3_u01_r17_network.node[23].content_store 	hits[23] 	2543
scalar tree_4_3_u01_r17_network.node[23].content_store 	misses[23] 	9299
scalar tree_4_3_u01_r17_network.node[23].content_store 	decision_yes[23] 	934
scalar tree_4_3_u01_r17_network.node[23].content_store 	decision_no[23] 	8363
scalar tree_4_3_u01_r17_network.node[23].content_store 	decision_ratio[23] 	0.10046251478972
scalar tree_4_3_u01_r17_network.node[24].core_layer 	interests[24] 	11989
scalar tree_4_3_u01_r17_network.node[24].core_layer 	data[24] 	9485
scalar tree_4_3_u01_r17_network.node[24].content_store 	p_hit[24] 	0.20877471015097
scalar tree_4_3_u01_r17_network.node[24].content_store 	hits[24] 	2503
scalar tree_4_3_u01_r17_network.node[24].content_store 	misses[24] 	9486
scalar tree_4_3_u01_r17_network.node[24].content_store 	decision_yes[24] 	961
scalar tree_4_3_u01_r17_network.node[24].content_store 	decision_no[24] 	8524
scalar tree_4_3_u01_r17_network.node[24].content_store 	decision_ratio[24] 	0.10131787032156
scalar tree_4_3_u01_r17_network.node[25].core_layer 	interests[25] 	11965
scalar tree_4_3_u01_r17_network.node[25].core_layer 	data[25] 	9492
scalar tree_4_3_u01_r17_network.node[25].content_store 	p_hit[25] 	0.20668616798997
scalar tree_4_3_u01_r17_network.node[25].content_store 	hits[25] 	2473
scalar tree_4_3_u01_r17_network.node[25].content_store 	misses[25] 	9492
scalar tree_4_3_u01_r17_network.node[25].content_store 	decision_yes[25] 	981
scalar tree_4_3_u01_r17_network.node[25].content_store 	decision_no[25] 	8511
scalar tree_4_3_u01_r17_network.node[25].content_store 	decision_ratio[25] 	0.10335018963338
scalar tree_4_3_u01_r17_network.node[26].core_layer 	interests[26] 	12068
scalar tree_4_3_u01_r17_network.node[26].core_layer 	data[26] 	9522
scalar tree_4_3_u01_r17_network.node[26].content_store 	p_hit[26] 	0.21097116340736
scalar tree_4_3_u01_r17_network.node[26].content_store 	hits[26] 	2546
scalar tree_4_3_u01_r17_network.node[26].content_store 	misses[26] 	9522
scalar tree_4_3_u01_r17_network.node[26].content_store 	decision_yes[26] 	987
scalar tree_4_3_u01_r17_network.node[26].content_store 	decision_no[26] 	8535
scalar tree_4_3_u01_r17_network.node[26].content_store 	decision_ratio[26] 	0.10365469439193
scalar tree_4_3_u01_r17_network.node[27].core_layer 	interests[27] 	12129
scalar tree_4_3_u01_r17_network.node[27].core_layer 	data[27] 	9607
scalar tree_4_3_u01_r17_network.node[27].content_store 	p_hit[27] 	0.20793140407288
scalar tree_4_3_u01_r17_network.node[27].content_store 	hits[27] 	2522
scalar tree_4_3_u01_r17_network.node[27].content_store 	misses[27] 	9607
scalar tree_4_3_u01_r17_network.node[27].content_store 	decision_yes[27] 	952
scalar tree_4_3_u01_r17_network.node[27].content_store 	decision_no[27] 	8655
scalar tree_4_3_u01_r17_network.node[27].content_store 	decision_ratio[27] 	0.099094410325804
scalar tree_4_3_u01_r17_network.node[28].core_layer 	interests[28] 	12083
scalar tree_4_3_u01_r17_network.node[28].core_layer 	data[28] 	9652
scalar tree_4_3_u01_r17_network.node[28].content_store 	p_hit[28] 	0.20110899611024
scalar tree_4_3_u01_r17_network.node[28].content_store 	hits[28] 	2430
scalar tree_4_3_u01_r17_network.node[28].content_store 	misses[28] 	9653
scalar tree_4_3_u01_r17_network.node[28].content_store 	decision_yes[28] 	970
scalar tree_4_3_u01_r17_network.node[28].content_store 	decision_no[28] 	8682
scalar tree_4_3_u01_r17_network.node[28].content_store 	decision_ratio[28] 	0.10049730625777
scalar tree_4_3_u01_r17_network.node[29].core_layer 	interests[29] 	11966
scalar tree_4_3_u01_r17_network.node[29].core_layer 	data[29] 	9456
scalar tree_4_3_u01_r17_network.node[29].content_store 	p_hit[29] 	0.20976098947017
scalar tree_4_3_u01_r17_network.node[29].content_store 	hits[29] 	2510
scalar tree_4_3_u01_r17_network.node[29].content_store 	misses[29] 	9456
scalar tree_4_3_u01_r17_network.node[29].content_store 	decision_yes[29] 	960
scalar tree_4_3_u01_r17_network.node[29].content_store 	decision_no[29] 	8496
scalar tree_4_3_u01_r17_network.node[29].content_store 	decision_ratio[29] 	0.10152284263959
scalar tree_4_3_u01_r17_network.node[30].core_layer 	interests[30] 	12016
scalar tree_4_3_u01_r17_network.node[30].core_layer 	data[30] 	9502
scalar tree_4_3_u01_r17_network.node[30].content_store 	p_hit[30] 	0.20922103861518
scalar tree_4_3_u01_r17_network.node[30].content_store 	hits[30] 	2514
scalar tree_4_3_u01_r17_network.node[30].content_store 	misses[30] 	9502
scalar tree_4_3_u01_r17_network.node[30].content_store 	decision_yes[30] 	949
scalar tree_4_3_u01_r17_network.node[30].content_store 	decision_no[30] 	8553
scalar tree_4_3_u01_r17_network.node[30].content_store 	decision_ratio[30] 	0.099873710797727
scalar tree_4_3_u01_r17_network.node[31].core_layer 	interests[31] 	12167
scalar tree_4_3_u01_r17_network.node[31].core_layer 	data[31] 	9455
scalar tree_4_3_u01_r17_network.node[31].content_store 	p_hit[31] 	0.22289800279444
scalar tree_4_3_u01_r17_network.node[31].content_store 	hits[31] 	2712
scalar tree_4_3_u01_r17_network.node[31].content_store 	misses[31] 	9455
scalar tree_4_3_u01_r17_network.node[31].content_store 	decision_yes[31] 	919
scalar tree_4_3_u01_r17_network.node[31].content_store 	decision_no[31] 	8536
scalar tree_4_3_u01_r17_network.node[31].content_store 	decision_ratio[31] 	0.097197250132205
scalar tree_4_3_u01_r17_network.node[32].core_layer 	interests[32] 	12162
scalar tree_4_3_u01_r17_network.node[32].core_layer 	data[32] 	9616
scalar tree_4_3_u01_r17_network.node[32].content_store 	p_hit[32] 	0.20925834566683
scalar tree_4_3_u01_r17_network.node[32].content_store 	hits[32] 	2545
scalar tree_4_3_u01_r17_network.node[32].content_store 	misses[32] 	9617
scalar tree_4_3_u01_r17_network.node[32].content_store 	decision_yes[32] 	959
scalar tree_4_3_u01_r17_network.node[32].content_store 	decision_no[32] 	8657
scalar tree_4_3_u01_r17_network.node[32].content_store 	decision_ratio[32] 	0.099729617304493
scalar tree_4_3_u01_r17_network.node[33].core_layer 	interests[33] 	11919
scalar tree_4_3_u01_r17_network.node[33].core_layer 	data[33] 	9485
scalar tree_4_3_u01_r17_network.node[33].content_store 	p_hit[33] 	0.20421176273177
scalar tree_4_3_u01_r17_network.node[33].content_store 	hits[33] 	2434
scalar tree_4_3_u01_r17_network.node[33].content_store 	misses[33] 	9485
scalar tree_4_3_u01_r17_network.node[33].content_store 	decision_yes[33] 	925
scalar tree_4_3_u01_r17_network.node[33].content_store 	decision_no[33] 	8560
scalar tree_4_3_u01_r17_network.node[33].content_store 	decision_ratio[33] 	0.097522403795467
scalar tree_4_3_u01_r17_network.node[34].core_layer 	interests[34] 	12264
scalar tree_4_3_u01_r17_network.node[34].core_layer 	data[34] 	9801
scalar tree_4_3_u01_r17_network.node[34].content_store 	p_hit[34] 	0.20075016307893
scalar tree_4_3_u01_r17_network.node[34].content_store 	hits[34] 	2462
scalar tree_4_3_u01_r17_network.node[34].content_store 	misses[34] 	9802
scalar tree_4_3_u01_r17_network.node[34].content_store 	decision_yes[34] 	1022
scalar tree_4_3_u01_r17_network.node[34].content_store 	decision_no[34] 	8779
scalar tree_4_3_u01_r17_network.node[34].content_store 	decision_ratio[34] 	0.10427507397204
scalar tree_4_3_u01_r17_network.node[35].core_layer 	interests[35] 	12082
scalar tree_4_3_u01_r17_network.node[35].core_layer 	data[35] 	9557
scalar tree_4_3_u01_r17_network.node[35].content_store 	p_hit[35] 	0.20898857804999
scalar tree_4_3_u01_r17_network.node[35].content_store 	hits[35] 	2525
scalar tree_4_3_u01_r17_network.node[35].content_store 	misses[35] 	9557
scalar tree_4_3_u01_r17_network.node[35].content_store 	decision_yes[35] 	947
scalar tree_4_3_u01_r17_network.node[35].content_store 	decision_no[35] 	8610
scalar tree_4_3_u01_r17_network.node[35].content_store 	decision_ratio[35] 	0.099089672491368
scalar tree_4_3_u01_r17_network.node[36].core_layer 	interests[36] 	11998
scalar tree_4_3_u01_r17_network.node[36].core_layer 	data[36] 	9475
scalar tree_4_3_u01_r17_network.node[36].content_store 	p_hit[36] 	0.21036839473246
scalar tree_4_3_u01_r17_network.node[36].content_store 	hits[36] 	2524
scalar tree_4_3_u01_r17_network.node[36].content_store 	misses[36] 	9474
scalar tree_4_3_u01_r17_network.node[36].content_store 	decision_yes[36] 	979
scalar tree_4_3_u01_r17_network.node[36].content_store 	decision_no[36] 	8496
scalar tree_4_3_u01_r17_network.node[36].content_store 	decision_ratio[36] 	0.10332453825858
scalar tree_4_3_u01_r17_network.node[37].core_layer 	interests[37] 	12034
scalar tree_4_3_u01_r17_network.node[37].core_layer 	data[37] 	9559
scalar tree_4_3_u01_r17_network.node[37].content_store 	p_hit[37] 	0.20558417816187
scalar tree_4_3_u01_r17_network.node[37].content_store 	hits[37] 	2474
scalar tree_4_3_u01_r17_network.node[37].content_store 	misses[37] 	9560
scalar tree_4_3_u01_r17_network.node[37].content_store 	decision_yes[37] 	971
scalar tree_4_3_u01_r17_network.node[37].content_store 	decision_no[37] 	8588
scalar tree_4_3_u01_r17_network.node[37].content_store 	decision_ratio[37] 	0.10157966314468
scalar tree_4_3_u01_r17_network.node[38].core_layer 	interests[38] 	11997
scalar tree_4_3_u01_r17_network.node[38].core_layer 	data[38] 	9441
scalar tree_4_3_u01_r17_network.node[38].content_store 	p_hit[38] 	0.2128032008002
scalar tree_4_3_u01_r17_network.node[38].content_store 	hits[38] 	2553
scalar tree_4_3_u01_r17_network.node[38].content_store 	misses[38] 	9444
scalar tree_4_3_u01_r17_network.node[38].content_store 	decision_yes[38] 	927
scalar tree_4_3_u01_r17_network.node[38].content_store 	decision_no[38] 	8514
scalar tree_4_3_u01_r17_network.node[38].content_store 	decision_ratio[38] 	0.098188751191611
scalar tree_4_3_u01_r17_network.node[39].core_layer 	interests[39] 	12015
scalar tree_4_3_u01_r17_network.node[39].core_layer 	data[39] 	9533
scalar tree_4_3_u01_r17_network.node[39].content_store 	p_hit[39] 	0.20657511444028
scalar tree_4_3_u01_r17_network.node[39].content_store 	hits[39] 	2482
scalar tree_4_3_u01_r17_network.node[39].content_store 	misses[39] 	9533
scalar tree_4_3_u01_r17_network.node[39].content_store 	decision_yes[39] 	884
scalar tree_4_3_u01_r17_network.node[39].content_store 	decision_no[39] 	8649
scalar tree_4_3_u01_r17_network.node[39].content_store 	decision_ratio[39] 	0.092730515052974
scalar tree_4_3_u01_r17_network.client[13] 	hdistance[13] 	3.0355371900826
scalar tree_4_3_u01_r17_network.client[13] 	downloads[13] 	12100
scalar tree_4_3_u01_r17_network.client[13] 	avg_time[13] 	0.004604258276
scalar tree_4_3_u01_r17_network.client[14] 	hdistance[14] 	3.0141736269299
scalar tree_4_3_u01_r17_network.client[14] 	downloads[14] 	11853
scalar tree_4_3_u01_r17_network.client[14] 	avg_time[14] 	0.004571497925
scalar tree_4_3_u01_r17_network.client[15] 	hdistance[15] 	3.0676765208893
scalar tree_4_3_u01_r17_network.client[15] 	downloads[15] 	12279
scalar tree_4_3_u01_r17_network.client[15] 	avg_time[15] 	0.004654892615
scalar tree_4_3_u01_r17_network.client[16] 	hdistance[16] 	3.0250830564784
scalar tree_4_3_u01_r17_network.client[16] 	downloads[16] 	12040
scalar tree_4_3_u01_r17_network.client[16] 	avg_time[16] 	0.004591867685
scalar tree_4_3_u01_r17_network.client[17] 	hdistance[17] 	3.019235532073
scalar tree_4_3_u01_r17_network.client[17] 	downloads[17] 	12113
scalar tree_4_3_u01_r17_network.client[17] 	avg_time[17] 	0.004582094814
scalar tree_4_3_u01_r17_network.client[18] 	hdistance[18] 	3.0936514699617
scalar tree_4_3_u01_r17_network.client[18] 	downloads[18] 	11735
scalar tree_4_3_u01_r17_network.client[18] 	avg_time[18] 	0.004694330248
scalar tree_4_3_u01_r17_network.client[19] 	hdistance[19] 	3.0424374319913
scalar tree_4_3_u01_r17_network.client[19] 	downloads[19] 	11947
scalar tree_4_3_u01_r17_network.client[19] 	avg_time[19] 	0.004619231977
scalar tree_4_3_u01_r17_network.client[20] 	hdistance[20] 	3.025772768708
scalar tree_4_3_u01_r17_network.client[20] 	downloads[20] 	12067
scalar tree_4_3_u01_r17_network.client[20] 	avg_time[20] 	0.004590864658
scalar tree_4_3_u01_r17_network.client[21] 	hdistance[21] 	3.0310316139767
scalar tree_4_3_u01_r17_network.client[21] 	downloads[21] 	12020
scalar tree_4_3_u01_r17_network.client[21] 	avg_time[21] 	0.004603070527
scalar tree_4_3_u01_r17_network.client[22] 	hdistance[22] 	3.0372388737511
scalar tree_4_3_u01_r17_network.client[22] 	downloads[22] 	12111
scalar tree_4_3_u01_r17_network.client[22] 	avg_time[22] 	0.004603960679
scalar tree_4_3_u01_r17_network.client[23] 	hdistance[23] 	3.0265202702703
scalar tree_4_3_u01_r17_network.client[23] 	downloads[23] 	11840
scalar tree_4_3_u01_r17_network.client[23] 	avg_time[23] 	0.004589017328
scalar tree_4_3_u01_r17_network.client[24] 	hdistance[24] 	3.03003003003
scalar tree_4_3_u01_r17_network.client[24] 	downloads[24] 	11988
scalar tree_4_3_u01_r17_network.client[24] 	avg_time[24] 	0.004599763415
scalar tree_4_3_u01_r17_network.client[25] 	hdistance[25] 	3.0397826995403
scalar tree_4_3_u01_r17_network.client[25] 	downloads[25] 	11965
scalar tree_4_3_u01_r17_network.client[25] 	avg_time[25] 	0.004612822045
scalar tree_4_3_u01_r17_network.client[26] 	hdistance[26] 	3.0265992707988
scalar tree_4_3_u01_r17_network.client[26] 	downloads[26] 	12068
scalar tree_4_3_u01_r17_network.client[26] 	avg_time[26] 	0.004594746401
scalar tree_4_3_u01_r17_network.client[27] 	hdistance[27] 	3.0397394673922
scalar tree_4_3_u01_r17_network.client[27] 	downloads[27] 	12129
scalar tree_4_3_u01_r17_network.client[27] 	avg_time[27] 	0.004611259255
scalar tree_4_3_u01_r17_network.client[28] 	hdistance[28] 	3.0530541301109
scalar tree_4_3_u01_r17_network.client[28] 	downloads[28] 	12082
scalar tree_4_3_u01_r17_network.client[28] 	avg_time[28] 	0.004634690808
scalar tree_4_3_u01_r17_network.client[29] 	hdistance[29] 	3.0315059334782
scalar tree_4_3_u01_r17_network.client[29] 	downloads[29] 	11966
scalar tree_4_3_u01_r17_network.client[29] 	avg_time[29] 	0.004600531852
scalar tree_4_3_u01_r17_network.client[30] 	hdistance[30] 	3.0284620505992
scalar tree_4_3_u01_r17_network.client[30] 	downloads[30] 	12016
scalar tree_4_3_u01_r17_network.client[30] 	avg_time[30] 	0.004597866504
scalar tree_4_3_u01_r17_network.client[31] 	hdistance[31] 	2.9889044135777
scalar tree_4_3_u01_r17_network.client[31] 	downloads[31] 	12167
scalar tree_4_3_u01_r17_network.client[31] 	avg_time[31] 	0.004535910373
scalar tree_4_3_u01_r17_network.client[32] 	hdistance[32] 	3.026395855604
scalar tree_4_3_u01_r17_network.client[32] 	downloads[32] 	12161
scalar tree_4_3_u01_r17_network.client[32] 	avg_time[32] 	0.004592906053
scalar tree_4_3_u01_r17_network.client[33] 	hdistance[33] 	3.0504236932629
scalar tree_4_3_u01_r17_network.client[33] 	downloads[33] 	11919
scalar tree_4_3_u01_r17_network.client[33] 	avg_time[33] 	0.004626895253
scalar tree_4_3_u01_r17_network.client[34] 	hdistance[34] 	3.0645029764332
scalar tree_4_3_u01_r17_network.client[34] 	downloads[34] 	12263
scalar tree_4_3_u01_r17_network.client[34] 	avg_time[34] 	0.004650226765
scalar tree_4_3_u01_r17_network.client[35] 	hdistance[35] 	3.0360039728522
scalar tree_4_3_u01_r17_network.client[35] 	downloads[35] 	12082
scalar tree_4_3_u01_r17_network.client[35] 	avg_time[35] 	0.004608174437
scalar tree_4_3_u01_r17_network.client[36] 	hdistance[36] 	3.0335861321777
scalar tree_4_3_u01_r17_network.client[36] 	downloads[36] 	11999
scalar tree_4_3_u01_r17_network.client[36] 	avg_time[36] 	0.004603016361
scalar tree_4_3_u01_r17_network.client[37] 	hdistance[37] 	3.0529377545084
scalar tree_4_3_u01_r17_network.client[37] 	downloads[37] 	12033
scalar tree_4_3_u01_r17_network.client[37] 	avg_time[37] 	0.004629053737
scalar tree_4_3_u01_r17_network.client[38] 	hdistance[38] 	3.0130065032516
scalar tree_4_3_u01_r17_network.client[38] 	downloads[38] 	11994
scalar tree_4_3_u01_r17_network.client[38] 	avg_time[38] 	0.004572480173
scalar tree_4_3_u01_r17_network.client[39] 	hdistance[39] 	3.0431960049937
scalar tree_4_3_u01_r17_network.client[39] 	downloads[39] 	12015
scalar tree_4_3_u01_r17_network.client[39] 	avg_time[39] 	0.004619325116
