version 2
run General-25-20160820-02:59:10-14346
attr a 0.9
attr cd fix0.1
attr configname General
attr cr lru
attr datetime 20160820-02:59:10
attr experiment General
attr fsize 1
attr inifile hw5115/scenario_A/SPR-FIX0.1.ini
attr iterationvars "$name=tree_4_3, $un=01, $rep=6, $cd=fix0.1, $cr=lru, $fsize=1, $a=0.9, $sl=spr, $ttl=1000, $variance=0.05"
attr iterationvars2 "$name=tree_4_3, $un=01, $rep=6, $cd=fix0.1, $cr=lru, $fsize=1, $a=0.9, $sl=spr, $ttl=1000, $variance=0.05, $repetition=0"
attr measurement "$name=tree_4_3, $un=01, $rep=6, $cd=fix0.1, $cr=lru, $fsize=1, $a=0.9, $sl=spr, $ttl=1000, $variance=0.05"
attr name tree_4_3
attr network networks.${name}_u${un}_r${rep}_network
attr processid 14346
attr rep 6
attr repetition 0
attr replication #0
attr resultdir results
attr runnumber 25
attr seedset 6
attr sl spr
attr ttl 1000
attr un 01
attr variance 0.05

scalar . 	a 	0.9
scalar . 	fsize 	1
scalar . 	rep 	6
scalar . 	ttl 	1000
scalar . 	un 	01
scalar . 	variance 	0.05
scalar tree_4_3_u01_r6_network.content_distribution 	repo-0 	0
scalar tree_4_3_u01_r6_network.content_distribution 	client-0 	13
scalar tree_4_3_u01_r6_network.content_distribution 	client-1 	14
scalar tree_4_3_u01_r6_network.content_distribution 	client-2 	15
scalar tree_4_3_u01_r6_network.content_distribution 	client-3 	16
scalar tree_4_3_u01_r6_network.content_distribution 	client-4 	17
scalar tree_4_3_u01_r6_network.content_distribution 	client-5 	18
scalar tree_4_3_u01_r6_network.content_distribution 	client-6 	19
scalar tree_4_3_u01_r6_network.content_distribution 	client-7 	20
scalar tree_4_3_u01_r6_network.content_distribution 	client-8 	21
scalar tree_4_3_u01_r6_network.content_distribution 	client-9 	22
scalar tree_4_3_u01_r6_network.content_distribution 	client-10 	23
scalar tree_4_3_u01_r6_network.content_distribution 	client-11 	24
scalar tree_4_3_u01_r6_network.content_distribution 	client-12 	25
scalar tree_4_3_u01_r6_network.content_distribution 	client-13 	26
scalar tree_4_3_u01_r6_network.content_distribution 	client-14 	27
scalar tree_4_3_u01_r6_network.content_distribution 	client-15 	28
scalar tree_4_3_u01_r6_network.content_distribution 	client-16 	29
scalar tree_4_3_u01_r6_network.content_distribution 	client-17 	30
scalar tree_4_3_u01_r6_network.content_distribution 	client-18 	31
scalar tree_4_3_u01_r6_network.content_distribution 	client-19 	32
scalar tree_4_3_u01_r6_network.content_distribution 	client-20 	33
scalar tree_4_3_u01_r6_network.content_distribution 	client-21 	34
scalar tree_4_3_u01_r6_network.content_distribution 	client-22 	35
scalar tree_4_3_u01_r6_network.content_distribution 	client-23 	36
scalar tree_4_3_u01_r6_network.content_distribution 	client-24 	37
scalar tree_4_3_u01_r6_network.content_distribution 	client-25 	38
scalar tree_4_3_u01_r6_network.content_distribution 	client-26 	39
scalar tree_4_3_u01_r6_network.content_distribution 	repo-0_card 	100000
scalar tree_4_3_u01_r6_network.content_distribution 	repo-0_price 	0
scalar tree_4_3_u01_r6_network.statistics 	stabilization_time 	917.5
scalar tree_4_3_u01_r6_network.statistics 	p_hit 	0.1491995180248
scalar tree_4_3_u01_r6_network.statistics 	interests 	26792.65
scalar tree_4_3_u01_r6_network.statistics 	data 	18694.25
scalar tree_4_3_u01_r6_network.statistics 	hdistance 	3.0432524305999
scalar tree_4_3_u01_r6_network.statistics 	avg_time 	0.004616806812
scalar tree_4_3_u01_r6_network.statistics 	downloads 	323931
scalar tree_4_3_u01_r6_network.statistics 	total_cost 	0
scalar tree_4_3_u01_r6_network.statistics 	total_replicas 	100000
scalar tree_4_3_u01_r6_network.statistics 	inner_hit 	0.26524784599189
scalar tree_4_3_u01_r6_network.node[0].core_layer 	interests[0] 	242393
scalar tree_4_3_u01_r6_network.node[0].core_layer 	repo_load[0] 	238009
scalar tree_4_3_u01_r6_network.node[0].core_layer 	data[0] 	0
scalar tree_4_3_u01_r6_network.node[0].core_layer 	repo_int[0] 	238009
scalar tree_4_3_u01_r6_network.node[0].content_store 	p_hit[0] 	0.018086330875892
scalar tree_4_3_u01_r6_network.node[0].content_store 	hits[0] 	4384
scalar tree_4_3_u01_r6_network.node[0].content_store 	misses[0] 	238009
scalar tree_4_3_u01_r6_network.node[0].content_store 	decision_yes[0] 	23833
scalar tree_4_3_u01_r6_network.node[0].content_store 	decision_no[0] 	214176
scalar tree_4_3_u01_r6_network.node[0].content_store 	decision_ratio[0] 	0.1001348688495
scalar tree_4_3_u01_r6_network.node[1].core_layer 	interests[1] 	82525
scalar tree_4_3_u01_r6_network.node[1].core_layer 	data[1] 	80519
scalar tree_4_3_u01_r6_network.node[1].content_store 	p_hit[1] 	0.024271432899121
scalar tree_4_3_u01_r6_network.node[1].content_store 	hits[1] 	2003
scalar tree_4_3_u01_r6_network.node[1].content_store 	misses[1] 	80522
scalar tree_4_3_u01_r6_network.node[1].content_store 	decision_yes[1] 	8007
scalar tree_4_3_u01_r6_network.node[1].content_store 	decision_no[1] 	72512
scalar tree_4_3_u01_r6_network.node[1].content_store 	decision_ratio[1] 	0.099442367639936
scalar tree_4_3_u01_r6_network.node[2].core_layer 	interests[2] 	83141
scalar tree_4_3_u01_r6_network.node[2].core_layer 	data[2] 	81167
scalar tree_4_3_u01_r6_network.node[2].content_store 	p_hit[2] 	0.023706715098447
scalar tree_4_3_u01_r6_network.node[2].content_store 	hits[2] 	1971
scalar tree_4_3_u01_r6_network.node[2].content_store 	misses[2] 	81170
scalar tree_4_3_u01_r6_network.node[2].content_store 	decision_yes[2] 	8088
scalar tree_4_3_u01_r6_network.node[2].content_store 	decision_no[2] 	73079
scalar tree_4_3_u01_r6_network.node[2].content_store 	decision_ratio[2] 	0.099646408022965
scalar tree_4_3_u01_r6_network.node[3].core_layer 	interests[3] 	82586
scalar tree_4_3_u01_r6_network.node[3].core_layer 	data[3] 	80707
scalar tree_4_3_u01_r6_network.node[3].content_store 	p_hit[3] 	0.022691497348219
scalar tree_4_3_u01_r6_network.node[3].content_store 	hits[3] 	1874
scalar tree_4_3_u01_r6_network.node[3].content_store 	misses[3] 	80712
scalar tree_4_3_u01_r6_network.node[3].content_store 	decision_yes[3] 	7896
scalar tree_4_3_u01_r6_network.node[3].content_store 	decision_no[3] 	72811
scalar tree_4_3_u01_r6_network.node[3].content_store 	decision_ratio[3] 	0.097835379830746
scalar tree_4_3_u01_r6_network.node[4].core_layer 	interests[4] 	28421
scalar tree_4_3_u01_r6_network.node[4].core_layer 	data[4] 	27440
scalar tree_4_3_u01_r6_network.node[4].content_store 	p_hit[4] 	0.034481545336195
scalar tree_4_3_u01_r6_network.node[4].content_store 	hits[4] 	980
scalar tree_4_3_u01_r6_network.node[4].content_store 	misses[4] 	27441
scalar tree_4_3_u01_r6_network.node[4].content_store 	decision_yes[4] 	2732
scalar tree_4_3_u01_r6_network.node[4].content_store 	decision_no[4] 	24708
scalar tree_4_3_u01_r6_network.node[4].content_store 	decision_ratio[4] 	0.099562682215743
scalar tree_4_3_u01_r6_network.node[5].core_layer 	interests[5] 	37905
scalar tree_4_3_u01_r6_network.node[5].core_layer 	data[5] 	36552
scalar tree_4_3_u01_r6_network.node[5].content_store 	p_hit[5] 	0.035694499406411
scalar tree_4_3_u01_r6_network.node[5].content_store 	hits[5] 	1353
scalar tree_4_3_u01_r6_network.node[5].content_store 	misses[5] 	36552
scalar tree_4_3_u01_r6_network.node[5].content_store 	decision_yes[5] 	3626
scalar tree_4_3_u01_r6_network.node[5].content_store 	decision_no[5] 	32926
scalar tree_4_3_u01_r6_network.node[5].content_store 	decision_ratio[5] 	0.099201138104618
scalar tree_4_3_u01_r6_network.node[6].core_layer 	interests[6] 	19243
scalar tree_4_3_u01_r6_network.node[6].core_layer 	data[6] 	18533
scalar tree_4_3_u01_r6_network.node[6].content_store 	p_hit[6] 	0.0368965338045
scalar tree_4_3_u01_r6_network.node[6].content_store 	hits[6] 	710
scalar tree_4_3_u01_r6_network.node[6].content_store 	misses[6] 	18533
scalar tree_4_3_u01_r6_network.node[6].content_store 	decision_yes[6] 	1885
scalar tree_4_3_u01_r6_network.node[6].content_store 	decision_no[6] 	16648
scalar tree_4_3_u01_r6_network.node[6].content_store 	decision_ratio[6] 	0.10171046241839
scalar tree_4_3_u01_r6_network.node[7].core_layer 	interests[7] 	38212
scalar tree_4_3_u01_r6_network.node[7].core_layer 	data[7] 	36944
scalar tree_4_3_u01_r6_network.node[7].content_store 	p_hit[7] 	0.033157123416728
scalar tree_4_3_u01_r6_network.node[7].content_store 	hits[7] 	1267
scalar tree_4_3_u01_r6_network.node[7].content_store 	misses[7] 	36945
scalar tree_4_3_u01_r6_network.node[7].content_store 	decision_yes[7] 	3683
scalar tree_4_3_u01_r6_network.node[7].content_store 	decision_no[7] 	33261
scalar tree_4_3_u01_r6_network.node[7].content_store 	decision_ratio[7] 	0.099691424859246
scalar tree_4_3_u01_r6_network.node[8].core_layer 	interests[8] 	19217
scalar tree_4_3_u01_r6_network.node[8].core_layer 	data[8] 	18544
scalar tree_4_3_u01_r6_network.node[8].content_store 	p_hit[8] 	0.035021075089764
scalar tree_4_3_u01_r6_network.node[8].content_store 	hits[8] 	673
scalar tree_4_3_u01_r6_network.node[8].content_store 	misses[8] 	18544
scalar tree_4_3_u01_r6_network.node[8].content_store 	decision_yes[8] 	1875
scalar tree_4_3_u01_r6_network.node[8].content_store 	decision_no[8] 	16669
scalar tree_4_3_u01_r6_network.node[8].content_store 	decision_ratio[8] 	0.1011108714409
scalar tree_4_3_u01_r6_network.node[9].core_layer 	interests[9] 	28628
scalar tree_4_3_u01_r6_network.node[9].core_layer 	data[9] 	27652
scalar tree_4_3_u01_r6_network.node[9].content_store 	p_hit[9] 	0.034057566019282
scalar tree_4_3_u01_r6_network.node[9].content_store 	hits[9] 	975
scalar tree_4_3_u01_r6_network.node[9].content_store 	misses[9] 	27653
scalar tree_4_3_u01_r6_network.node[9].content_store 	decision_yes[9] 	2876
scalar tree_4_3_u01_r6_network.node[9].content_store 	decision_no[9] 	24776
scalar tree_4_3_u01_r6_network.node[9].content_store 	decision_ratio[9] 	0.1040069434399
scalar tree_4_3_u01_r6_network.node[10].core_layer 	interests[10] 	37686
scalar tree_4_3_u01_r6_network.node[10].core_layer 	data[10] 	36391
scalar tree_4_3_u01_r6_network.node[10].content_store 	p_hit[10] 	0.034336358329353
scalar tree_4_3_u01_r6_network.node[10].content_store 	hits[10] 	1294
scalar tree_4_3_u01_r6_network.node[10].content_store 	misses[10] 	36392
scalar tree_4_3_u01_r6_network.node[10].content_store 	decision_yes[10] 	3687
scalar tree_4_3_u01_r6_network.node[10].content_store 	decision_no[10] 	32704
scalar tree_4_3_u01_r6_network.node[10].content_store 	decision_ratio[10] 	0.10131625951472
scalar tree_4_3_u01_r6_network.node[11].core_layer 	interests[11] 	18966
scalar tree_4_3_u01_r6_network.node[11].core_layer 	data[11] 	18353
scalar tree_4_3_u01_r6_network.node[11].content_store 	p_hit[11] 	0.03232099546557
scalar tree_4_3_u01_r6_network.node[11].content_store 	hits[11] 	613
scalar tree_4_3_u01_r6_network.node[11].content_store 	misses[11] 	18353
scalar tree_4_3_u01_r6_network.node[11].content_store 	decision_yes[11] 	1861
scalar tree_4_3_u01_r6_network.node[11].content_store 	decision_no[11] 	16492
scalar tree_4_3_u01_r6_network.node[11].content_store 	decision_ratio[11] 	0.10140031602463
scalar tree_4_3_u01_r6_network.node[12].core_layer 	interests[12] 	28845
scalar tree_4_3_u01_r6_network.node[12].core_layer 	data[12] 	27843
scalar tree_4_3_u01_r6_network.node[12].content_store 	p_hit[12] 	0.034633385335413
scalar tree_4_3_u01_r6_network.node[12].content_store 	hits[12] 	999
scalar tree_4_3_u01_r6_network.node[12].content_store 	misses[12] 	27846
scalar tree_4_3_u01_r6_network.node[12].content_store 	decision_yes[12] 	2772
scalar tree_4_3_u01_r6_network.node[12].content_store 	decision_no[12] 	25071
scalar tree_4_3_u01_r6_network.node[12].content_store 	decision_ratio[12] 	0.099558237258916
scalar tree_4_3_u01_r6_network.node[13].core_layer 	interests[13] 	11875
scalar tree_4_3_u01_r6_network.node[13].core_layer 	data[13] 	9475
scalar tree_4_3_u01_r6_network.node[13].content_store 	p_hit[13] 	0.20202105263158
scalar tree_4_3_u01_r6_network.node[13].content_store 	hits[13] 	2399
scalar tree_4_3_u01_r6_network.node[13].content_store 	misses[13] 	9476
scalar tree_4_3_u01_r6_network.node[13].content_store 	decision_yes[13] 	1013
scalar tree_4_3_u01_r6_network.node[13].content_store 	decision_no[13] 	8462
scalar tree_4_3_u01_r6_network.node[13].content_store 	decision_ratio[13] 	0.10691292875989
scalar tree_4_3_u01_r6_network.node[14].core_layer 	interests[14] 	11793
scalar tree_4_3_u01_r6_network.node[14].core_layer 	data[14] 	9231
scalar tree_4_3_u01_r6_network.node[14].content_store 	p_hit[14] 	0.21724751971509
scalar tree_4_3_u01_r6_network.node[14].content_store 	hits[14] 	2562
scalar tree_4_3_u01_r6_network.node[14].content_store 	misses[14] 	9231
scalar tree_4_3_u01_r6_network.node[14].content_store 	decision_yes[14] 	867
scalar tree_4_3_u01_r6_network.node[14].content_store 	decision_no[14] 	8364
scalar tree_4_3_u01_r6_network.node[14].content_store 	decision_ratio[14] 	0.093922651933702
scalar tree_4_3_u01_r6_network.node[15].core_layer 	interests[15] 	12094
scalar tree_4_3_u01_r6_network.node[15].core_layer 	data[15] 	9715
scalar tree_4_3_u01_r6_network.node[15].content_store 	p_hit[15] 	0.1966264263271
scalar tree_4_3_u01_r6_network.node[15].content_store 	hits[15] 	2378
scalar tree_4_3_u01_r6_network.node[15].content_store 	misses[15] 	9716
scalar tree_4_3_u01_r6_network.node[15].content_store 	decision_yes[15] 	1036
scalar tree_4_3_u01_r6_network.node[15].content_store 	decision_no[15] 	8679
scalar tree_4_3_u01_r6_network.node[15].content_store 	decision_ratio[15] 	0.10663921770458
scalar tree_4_3_u01_r6_network.node[16].core_layer 	interests[16] 	11838
scalar tree_4_3_u01_r6_network.node[16].core_layer 	data[16] 	9327
scalar tree_4_3_u01_r6_network.node[16].content_store 	p_hit[16] 	0.21202905896266
scalar tree_4_3_u01_r6_network.node[16].content_store 	hits[16] 	2510
scalar tree_4_3_u01_r6_network.node[16].content_store 	misses[16] 	9328
scalar tree_4_3_u01_r6_network.node[16].content_store 	decision_yes[16] 	916
scalar tree_4_3_u01_r6_network.node[16].content_store 	decision_no[16] 	8411
scalar tree_4_3_u01_r6_network.node[16].content_store 	decision_ratio[16] 	0.098209499303099
scalar tree_4_3_u01_r6_network.node[17].core_layer 	interests[17] 	12057
scalar tree_4_3_u01_r6_network.node[17].core_layer 	data[17] 	9532
scalar tree_4_3_u01_r6_network.node[17].content_store 	p_hit[17] 	0.20933897321058
scalar tree_4_3_u01_r6_network.node[17].content_store 	hits[17] 	2524
scalar tree_4_3_u01_r6_network.node[17].content_store 	misses[17] 	9533
scalar tree_4_3_u01_r6_network.node[17].content_store 	decision_yes[17] 	900
scalar tree_4_3_u01_r6_network.node[17].content_store 	decision_no[17] 	8632
scalar tree_4_3_u01_r6_network.node[17].content_store 	decision_ratio[17] 	0.094418799832144
scalar tree_4_3_u01_r6_network.node[18].core_layer 	interests[18] 	12084
scalar tree_4_3_u01_r6_network.node[18].core_layer 	data[18] 	9574
scalar tree_4_3_u01_r6_network.node[18].content_store 	p_hit[18] 	0.20771267792122
scalar tree_4_3_u01_r6_network.node[18].content_store 	hits[18] 	2510
scalar tree_4_3_u01_r6_network.node[18].content_store 	misses[18] 	9574
scalar tree_4_3_u01_r6_network.node[18].content_store 	decision_yes[18] 	941
scalar tree_4_3_u01_r6_network.node[18].content_store 	decision_no[18] 	8633
scalar tree_4_3_u01_r6_network.node[18].content_store 	decision_ratio[18] 	0.098287027365782
scalar tree_4_3_u01_r6_network.node[19].core_layer 	interests[19] 	12078
scalar tree_4_3_u01_r6_network.node[19].core_layer 	data[19] 	9595
scalar tree_4_3_u01_r6_network.node[19].content_store 	p_hit[19] 	0.20566318926975
scalar tree_4_3_u01_r6_network.node[19].content_store 	hits[19] 	2484
scalar tree_4_3_u01_r6_network.node[19].content_store 	misses[19] 	9594
scalar tree_4_3_u01_r6_network.node[19].content_store 	decision_yes[19] 	937
scalar tree_4_3_u01_r6_network.node[19].content_store 	decision_no[19] 	8658
scalar tree_4_3_u01_r6_network.node[19].content_store 	decision_ratio[19] 	0.097655028660761
scalar tree_4_3_u01_r6_network.node[20].core_layer 	interests[20] 	11858
scalar tree_4_3_u01_r6_network.node[20].core_layer 	data[20] 	9472
scalar tree_4_3_u01_r6_network.node[20].content_store 	p_hit[20] 	0.20121437004554
scalar tree_4_3_u01_r6_network.node[20].content_store 	hits[20] 	2386
scalar tree_4_3_u01_r6_network.node[20].content_store 	misses[20] 	9472
scalar tree_4_3_u01_r6_network.node[20].content_store 	decision_yes[20] 	973
scalar tree_4_3_u01_r6_network.node[20].content_store 	decision_no[20] 	8499
scalar tree_4_3_u01_r6_network.node[20].content_store 	decision_ratio[20] 	0.10272381756757
scalar tree_4_3_u01_r6_network.node[21].core_layer 	interests[21] 	12066
scalar tree_4_3_u01_r6_network.node[21].core_layer 	data[21] 	9648
scalar tree_4_3_u01_r6_network.node[21].content_store 	p_hit[21] 	0.20031493452677
scalar tree_4_3_u01_r6_network.node[21].content_store 	hits[21] 	2417
scalar tree_4_3_u01_r6_network.node[21].content_store 	misses[21] 	9649
scalar tree_4_3_u01_r6_network.node[21].content_store 	decision_yes[21] 	947
scalar tree_4_3_u01_r6_network.node[21].content_store 	decision_no[21] 	8701
scalar tree_4_3_u01_r6_network.node[21].content_store 	decision_ratio[21] 	0.098155058043118
scalar tree_4_3_u01_r6_network.node[22].core_layer 	interests[22] 	11846
scalar tree_4_3_u01_r6_network.node[22].core_layer 	data[22] 	9348
scalar tree_4_3_u01_r6_network.node[22].content_store 	p_hit[22] 	0.21087286847881
scalar tree_4_3_u01_r6_network.node[22].content_store 	hits[22] 	2498
scalar tree_4_3_u01_r6_network.node[22].content_store 	misses[22] 	9348
scalar tree_4_3_u01_r6_network.node[22].content_store 	decision_yes[22] 	919
scalar tree_4_3_u01_r6_network.node[22].content_store 	decision_no[22] 	8429
scalar tree_4_3_u01_r6_network.node[22].content_store 	decision_ratio[22] 	0.098309798887463
scalar tree_4_3_u01_r6_network.node[23].core_layer 	interests[23] 	12125
scalar tree_4_3_u01_r6_network.node[23].core_layer 	data[23] 	9595
scalar tree_4_3_u01_r6_network.node[23].content_store 	p_hit[23] 	0.20865979381443
scalar tree_4_3_u01_r6_network.node[23].content_store 	hits[23] 	2530
scalar tree_4_3_u01_r6_network.node[23].content_store 	misses[23] 	9595
scalar tree_4_3_u01_r6_network.node[23].content_store 	decision_yes[23] 	940
scalar tree_4_3_u01_r6_network.node[23].content_store 	decision_no[23] 	8655
scalar tree_4_3_u01_r6_network.node[23].content_store 	decision_ratio[23] 	0.097967691505993
scalar tree_4_3_u01_r6_network.node[24].core_layer 	interests[24] 	12057
scalar tree_4_3_u01_r6_network.node[24].core_layer 	data[24] 	9634
scalar tree_4_3_u01_r6_network.node[24].content_store 	p_hit[24] 	0.20079621796467
scalar tree_4_3_u01_r6_network.node[24].content_store 	hits[24] 	2421
scalar tree_4_3_u01_r6_network.node[24].content_store 	misses[24] 	9636
scalar tree_4_3_u01_r6_network.node[24].content_store 	decision_yes[24] 	996
scalar tree_4_3_u01_r6_network.node[24].content_store 	decision_no[24] 	8638
scalar tree_4_3_u01_r6_network.node[24].content_store 	decision_ratio[24] 	0.10338384886859
scalar tree_4_3_u01_r6_network.node[25].core_layer 	interests[25] 	12196
scalar tree_4_3_u01_r6_network.node[25].core_layer 	data[25] 	9635
scalar tree_4_3_u01_r6_network.node[25].content_store 	p_hit[25] 	0.20998688094457
scalar tree_4_3_u01_r6_network.node[25].content_store 	hits[25] 	2561
scalar tree_4_3_u01_r6_network.node[25].content_store 	misses[25] 	9635
scalar tree_4_3_u01_r6_network.node[25].content_store 	decision_yes[25] 	960
scalar tree_4_3_u01_r6_network.node[25].content_store 	decision_no[25] 	8675
scalar tree_4_3_u01_r6_network.node[25].content_store 	decision_ratio[25] 	0.099636741048262
scalar tree_4_3_u01_r6_network.node[26].core_layer 	interests[26] 	11956
scalar tree_4_3_u01_r6_network.node[26].core_layer 	data[26] 	9511
scalar tree_4_3_u01_r6_network.node[26].content_store 	p_hit[26] 	0.20449983271997
scalar tree_4_3_u01_r6_network.node[26].content_store 	hits[26] 	2445
scalar tree_4_3_u01_r6_network.node[26].content_store 	misses[26] 	9511
scalar tree_4_3_u01_r6_network.node[26].content_store 	decision_yes[26] 	937
scalar tree_4_3_u01_r6_network.node[26].content_store 	decision_no[26] 	8574
scalar tree_4_3_u01_r6_network.node[26].content_store 	decision_ratio[26] 	0.098517506045631
scalar tree_4_3_u01_r6_network.node[27].core_layer 	interests[27] 	12172
scalar tree_4_3_u01_r6_network.node[27].core_layer 	data[27] 	9706
scalar tree_4_3_u01_r6_network.node[27].content_store 	p_hit[27] 	0.20259612224778
scalar tree_4_3_u01_r6_network.node[27].content_store 	hits[27] 	2466
scalar tree_4_3_u01_r6_network.node[27].content_store 	misses[27] 	9706
scalar tree_4_3_u01_r6_network.node[27].content_store 	decision_yes[27] 	961
scalar tree_4_3_u01_r6_network.node[27].content_store 	decision_no[27] 	8745
scalar tree_4_3_u01_r6_network.node[27].content_store 	decision_ratio[27] 	0.099010921079744
scalar tree_4_3_u01_r6_network.node[28].core_layer 	interests[28] 	12015
scalar tree_4_3_u01_r6_network.node[28].core_layer 	data[28] 	9520
scalar tree_4_3_u01_r6_network.node[28].content_store 	p_hit[28] 	0.20765709529754
scalar tree_4_3_u01_r6_network.node[28].content_store 	hits[28] 	2495
scalar tree_4_3_u01_r6_network.node[28].content_store 	misses[28] 	9520
scalar tree_4_3_u01_r6_network.node[28].content_store 	decision_yes[28] 	965
scalar tree_4_3_u01_r6_network.node[28].content_store 	decision_no[28] 	8555
scalar tree_4_3_u01_r6_network.node[28].content_store 	decision_ratio[28] 	0.10136554621849
scalar tree_4_3_u01_r6_network.node[29].core_layer 	interests[29] 	12042
scalar tree_4_3_u01_r6_network.node[29].core_layer 	data[29] 	9566
scalar tree_4_3_u01_r6_network.node[29].content_store 	p_hit[29] 	0.20569672811825
scalar tree_4_3_u01_r6_network.node[29].content_store 	hits[29] 	2477
scalar tree_4_3_u01_r6_network.node[29].content_store 	misses[29] 	9565
scalar tree_4_3_u01_r6_network.node[29].content_store 	decision_yes[29] 	921
scalar tree_4_3_u01_r6_network.node[29].content_store 	decision_no[29] 	8645
scalar tree_4_3_u01_r6_network.node[29].content_store 	decision_ratio[29] 	0.096278486305666
scalar tree_4_3_u01_r6_network.node[30].core_layer 	interests[30] 	12004
scalar tree_4_3_u01_r6_network.node[30].core_layer 	data[30] 	9543
scalar tree_4_3_u01_r6_network.node[30].content_store 	p_hit[30] 	0.20501499500167
scalar tree_4_3_u01_r6_network.node[30].content_store 	hits[30] 	2461
scalar tree_4_3_u01_r6_network.node[30].content_store 	misses[30] 	9543
scalar tree_4_3_u01_r6_network.node[30].content_store 	decision_yes[30] 	917
scalar tree_4_3_u01_r6_network.node[30].content_store 	decision_no[30] 	8626
scalar tree_4_3_u01_r6_network.node[30].content_store 	decision_ratio[30] 	0.096091375877607
scalar tree_4_3_u01_r6_network.node[31].core_layer 	interests[31] 	11894
scalar tree_4_3_u01_r6_network.node[31].core_layer 	data[31] 	9483
scalar tree_4_3_u01_r6_network.node[31].content_store 	p_hit[31] 	0.20270724735161
scalar tree_4_3_u01_r6_network.node[31].content_store 	hits[31] 	2411
scalar tree_4_3_u01_r6_network.node[31].content_store 	misses[31] 	9483
scalar tree_4_3_u01_r6_network.node[31].content_store 	decision_yes[31] 	957
scalar tree_4_3_u01_r6_network.node[31].content_store 	decision_no[31] 	8526
scalar tree_4_3_u01_r6_network.node[31].content_store 	decision_ratio[31] 	0.10091743119266
scalar tree_4_3_u01_r6_network.node[32].core_layer 	interests[32] 	11909
scalar tree_4_3_u01_r6_network.node[32].core_layer 	data[32] 	9311
scalar tree_4_3_u01_r6_network.node[32].content_store 	p_hit[32] 	0.21815433705601
scalar tree_4_3_u01_r6_network.node[32].content_store 	hits[32] 	2598
scalar tree_4_3_u01_r6_network.node[32].content_store 	misses[32] 	9311
scalar tree_4_3_u01_r6_network.node[32].content_store 	decision_yes[32] 	958
scalar tree_4_3_u01_r6_network.node[32].content_store 	decision_no[32] 	8353
scalar tree_4_3_u01_r6_network.node[32].content_store 	decision_ratio[32] 	0.10288905595532
scalar tree_4_3_u01_r6_network.node[33].core_layer 	interests[33] 	11912
scalar tree_4_3_u01_r6_network.node[33].core_layer 	data[33] 	9496
scalar tree_4_3_u01_r6_network.node[33].content_store 	p_hit[33] 	0.20273673606447
scalar tree_4_3_u01_r6_network.node[33].content_store 	hits[33] 	2415
scalar tree_4_3_u01_r6_network.node[33].content_store 	misses[33] 	9497
scalar tree_4_3_u01_r6_network.node[33].content_store 	decision_yes[33] 	918
scalar tree_4_3_u01_r6_network.node[33].content_store 	decision_no[33] 	8578
scalar tree_4_3_u01_r6_network.node[33].content_store 	decision_ratio[33] 	0.096672283066554
scalar tree_4_3_u01_r6_network.node[34].core_layer 	interests[34] 	11874
scalar tree_4_3_u01_r6_network.node[34].core_layer 	data[34] 	9396
scalar tree_4_3_u01_r6_network.node[34].content_store 	p_hit[34] 	0.20869125821122
scalar tree_4_3_u01_r6_network.node[34].content_store 	hits[34] 	2478
scalar tree_4_3_u01_r6_network.node[34].content_store 	misses[34] 	9396
scalar tree_4_3_u01_r6_network.node[34].content_store 	decision_yes[34] 	942
scalar tree_4_3_u01_r6_network.node[34].content_store 	decision_no[34] 	8454
scalar tree_4_3_u01_r6_network.node[34].content_store 	decision_ratio[34] 	0.10025542784163
scalar tree_4_3_u01_r6_network.node[35].core_layer 	interests[35] 	11994
scalar tree_4_3_u01_r6_network.node[35].core_layer 	data[35] 	9557
scalar tree_4_3_u01_r6_network.node[35].content_store 	p_hit[35] 	0.20318492579623
scalar tree_4_3_u01_r6_network.node[35].content_store 	hits[35] 	2437
scalar tree_4_3_u01_r6_network.node[35].content_store 	misses[35] 	9557
scalar tree_4_3_u01_r6_network.node[35].content_store 	decision_yes[35] 	937
scalar tree_4_3_u01_r6_network.node[35].content_store 	decision_no[35] 	8620
scalar tree_4_3_u01_r6_network.node[35].content_store 	decision_ratio[35] 	0.098043319033169
scalar tree_4_3_u01_r6_network.node[36].core_layer 	interests[36] 	11903
scalar tree_4_3_u01_r6_network.node[36].core_layer 	data[36] 	9410
scalar tree_4_3_u01_r6_network.node[36].content_store 	p_hit[36] 	0.20944299756364
scalar tree_4_3_u01_r6_network.node[36].content_store 	hits[36] 	2493
scalar tree_4_3_u01_r6_network.node[36].content_store 	misses[36] 	9410
scalar tree_4_3_u01_r6_network.node[36].content_store 	decision_yes[36] 	940
scalar tree_4_3_u01_r6_network.node[36].content_store 	decision_no[36] 	8470
scalar tree_4_3_u01_r6_network.node[36].content_store 	decision_ratio[36] 	0.099893730074389
scalar tree_4_3_u01_r6_network.node[37].core_layer 	interests[37] 	12141
scalar tree_4_3_u01_r6_network.node[37].core_layer 	data[37] 	9627
scalar tree_4_3_u01_r6_network.node[37].content_store 	p_hit[37] 	0.20698459764435
scalar tree_4_3_u01_r6_network.node[37].content_store 	hits[37] 	2513
scalar tree_4_3_u01_r6_network.node[37].content_store 	misses[37] 	9628
scalar tree_4_3_u01_r6_network.node[37].content_store 	decision_yes[37] 	993
scalar tree_4_3_u01_r6_network.node[37].content_store 	decision_no[37] 	8634
scalar tree_4_3_u01_r6_network.node[37].content_store 	decision_ratio[37] 	0.10314739794328
scalar tree_4_3_u01_r6_network.node[38].core_layer 	interests[38] 	12073
scalar tree_4_3_u01_r6_network.node[38].core_layer 	data[38] 	9635
scalar tree_4_3_u01_r6_network.node[38].content_store 	p_hit[38] 	0.2019382092272
scalar tree_4_3_u01_r6_network.node[38].content_store 	hits[38] 	2438
scalar tree_4_3_u01_r6_network.node[38].content_store 	misses[38] 	9635
scalar tree_4_3_u01_r6_network.node[38].content_store 	decision_yes[38] 	946
scalar tree_4_3_u01_r6_network.node[38].content_store 	decision_no[38] 	8689
scalar tree_4_3_u01_r6_network.node[38].content_store 	decision_ratio[38] 	0.098183705241308
scalar tree_4_3_u01_r6_network.node[39].core_layer 	interests[39] 	12082
scalar tree_4_3_u01_r6_network.node[39].core_layer 	data[39] 	9583
scalar tree_4_3_u01_r6_network.node[39].content_store 	p_hit[39] 	0.20683661645423
scalar tree_4_3_u01_r6_network.node[39].content_store 	hits[39] 	2499
scalar tree_4_3_u01_r6_network.node[39].content_store 	misses[39] 	9583
scalar tree_4_3_u01_r6_network.node[39].content_store 	decision_yes[39] 	985
scalar tree_4_3_u01_r6_network.node[39].content_store 	decision_no[39] 	8598
scalar tree_4_3_u01_r6_network.node[39].content_store 	decision_ratio[39] 	0.10278618386726
scalar tree_4_3_u01_r6_network.client[13] 	hdistance[13] 	3.0544045814384
scalar tree_4_3_u01_r6_network.client[13] 	downloads[13] 	11874
scalar tree_4_3_u01_r6_network.client[13] 	avg_time[13] 	0.004636910896
scalar tree_4_3_u01_r6_network.client[14] 	hdistance[14] 	3.0016111252438
scalar tree_4_3_u01_r6_network.client[14] 	downloads[14] 	11793
scalar tree_4_3_u01_r6_network.client[14] 	avg_time[14] 	0.004554054505
scalar tree_4_3_u01_r6_network.client[15] 	hdistance[15] 	3.0802116927148
scalar tree_4_3_u01_r6_network.client[15] 	downloads[15] 	12093
scalar tree_4_3_u01_r6_network.client[15] 	avg_time[15] 	0.0046736026
scalar tree_4_3_u01_r6_network.client[16] 	hdistance[16] 	3.012080763707
scalar tree_4_3_u01_r6_network.client[16] 	downloads[16] 	11837
scalar tree_4_3_u01_r6_network.client[16] 	avg_time[16] 	0.004572183597
scalar tree_4_3_u01_r6_network.client[17] 	hdistance[17] 	3.0390676841407
scalar tree_4_3_u01_r6_network.client[17] 	downloads[17] 	12056
scalar tree_4_3_u01_r6_network.client[17] 	avg_time[17] 	0.004607254505
scalar tree_4_3_u01_r6_network.client[18] 	hdistance[18] 	3.0396391923204
scalar tree_4_3_u01_r6_network.client[18] 	downloads[18] 	12084
scalar tree_4_3_u01_r6_network.client[18] 	avg_time[18] 	0.004608416635
scalar tree_4_3_u01_r6_network.client[19] 	hdistance[19] 	3.0327841708751
scalar tree_4_3_u01_r6_network.client[19] 	downloads[19] 	12079
scalar tree_4_3_u01_r6_network.client[19] 	avg_time[19] 	0.004605939118
scalar tree_4_3_u01_r6_network.client[20] 	hdistance[20] 	3.0511890706696
scalar tree_4_3_u01_r6_network.client[20] 	downloads[20] 	11858
scalar tree_4_3_u01_r6_network.client[20] 	avg_time[20] 	0.004631132113
scalar tree_4_3_u01_r6_network.client[21] 	hdistance[21] 	3.0597596353087
scalar tree_4_3_u01_r6_network.client[21] 	downloads[21] 	12065
scalar tree_4_3_u01_r6_network.client[21] 	avg_time[21] 	0.004644340163
scalar tree_4_3_u01_r6_network.client[22] 	hdistance[22] 	3.0315718385953
scalar tree_4_3_u01_r6_network.client[22] 	downloads[22] 	11846
scalar tree_4_3_u01_r6_network.client[22] 	avg_time[22] 	0.004599017792
scalar tree_4_3_u01_r6_network.client[23] 	hdistance[23] 	3.0359587628866
scalar tree_4_3_u01_r6_network.client[23] 	downloads[23] 	12125
scalar tree_4_3_u01_r6_network.client[23] 	avg_time[23] 	0.00460304852
scalar tree_4_3_u01_r6_network.client[24] 	hdistance[24] 	3.0671090833679
scalar tree_4_3_u01_r6_network.client[24] 	downloads[24] 	12055
scalar tree_4_3_u01_r6_network.client[24] 	avg_time[24] 	0.004654847767
scalar tree_4_3_u01_r6_network.client[25] 	hdistance[25] 	3.0279599868809
scalar tree_4_3_u01_r6_network.client[25] 	downloads[25] 	12196
scalar tree_4_3_u01_r6_network.client[25] 	avg_time[25] 	0.004592486295
scalar tree_4_3_u01_r6_network.client[26] 	hdistance[26] 	3.0464202074272
scalar tree_4_3_u01_r6_network.client[26] 	downloads[26] 	11956
scalar tree_4_3_u01_r6_network.client[26] 	avg_time[26] 	0.004623951484
scalar tree_4_3_u01_r6_network.client[27] 	hdistance[27] 	3.0518402891883
scalar tree_4_3_u01_r6_network.client[27] 	downloads[27] 	12172
scalar tree_4_3_u01_r6_network.client[27] 	avg_time[27] 	0.004632756062
scalar tree_4_3_u01_r6_network.client[28] 	hdistance[28] 	3.0406991260924
scalar tree_4_3_u01_r6_network.client[28] 	downloads[28] 	12015
scalar tree_4_3_u01_r6_network.client[28] 	avg_time[28] 	0.004613440534
scalar tree_4_3_u01_r6_network.client[29] 	hdistance[29] 	3.0488250435938
scalar tree_4_3_u01_r6_network.client[29] 	downloads[29] 	12043
scalar tree_4_3_u01_r6_network.client[29] 	avg_time[29] 	0.004621931092
scalar tree_4_3_u01_r6_network.client[30] 	hdistance[30] 	3.052232589137
scalar tree_4_3_u01_r6_network.client[30] 	downloads[30] 	12004
scalar tree_4_3_u01_r6_network.client[30] 	avg_time[30] 	0.004627954311
scalar tree_4_3_u01_r6_network.client[31] 	hdistance[31] 	3.068017487809
scalar tree_4_3_u01_r6_network.client[31] 	downloads[31] 	11894
scalar tree_4_3_u01_r6_network.client[31] 	avg_time[31] 	0.004650443452
scalar tree_4_3_u01_r6_network.client[32] 	hdistance[32] 	3.0038626249055
scalar tree_4_3_u01_r6_network.client[32] 	downloads[32] 	11909
scalar tree_4_3_u01_r6_network.client[32] 	avg_time[32] 	0.004554199718
scalar tree_4_3_u01_r6_network.client[33] 	hdistance[33] 	3.0536478885064
scalar tree_4_3_u01_r6_network.client[33] 	downloads[33] 	11911
scalar tree_4_3_u01_r6_network.client[33] 	avg_time[33] 	0.004633018422
scalar tree_4_3_u01_r6_network.client[34] 	hdistance[34] 	3.0229914098029
scalar tree_4_3_u01_r6_network.client[34] 	downloads[34] 	11874
scalar tree_4_3_u01_r6_network.client[34] 	avg_time[34] 	0.004589639392
scalar tree_4_3_u01_r6_network.client[35] 	hdistance[35] 	3.0582791395698
scalar tree_4_3_u01_r6_network.client[35] 	downloads[35] 	11994
scalar tree_4_3_u01_r6_network.client[35] 	avg_time[35] 	0.004637649154
scalar tree_4_3_u01_r6_network.client[36] 	hdistance[36] 	3.0415021423171
scalar tree_4_3_u01_r6_network.client[36] 	downloads[36] 	11903
scalar tree_4_3_u01_r6_network.client[36] 	avg_time[36] 	0.004613193745
scalar tree_4_3_u01_r6_network.client[37] 	hdistance[37] 	3.0481054365733
scalar tree_4_3_u01_r6_network.client[37] 	downloads[37] 	12140
scalar tree_4_3_u01_r6_network.client[37] 	avg_time[37] 	0.004620634487
scalar tree_4_3_u01_r6_network.client[38] 	hdistance[38] 	3.0639443386068
scalar tree_4_3_u01_r6_network.client[38] 	downloads[38] 	12073
scalar tree_4_3_u01_r6_network.client[38] 	avg_time[38] 	0.004645267335
scalar tree_4_3_u01_r6_network.client[39] 	hdistance[39] 	3.0341003145175
scalar tree_4_3_u01_r6_network.client[39] 	downloads[39] 	12082
scalar tree_4_3_u01_r6_network.client[39] 	avg_time[39] 	0.00460647025
