version 2
run General-29-20160820-03:03:29-14346
attr a 0.9
attr cd fix0.1
attr configname General
attr cr lru
attr datetime 20160820-03:03:29
attr experiment General
attr fsize 1
attr inifile hw5115/scenario_A/SPR-FIX0.1.ini
attr iterationvars "$name=tree_4_3, $un=01, $rep=10, $cd=fix0.1, $cr=lru, $fsize=1, $a=0.9, $sl=spr, $ttl=1000, $variance=0.05"
attr iterationvars2 "$name=tree_4_3, $un=01, $rep=10, $cd=fix0.1, $cr=lru, $fsize=1, $a=0.9, $sl=spr, $ttl=1000, $variance=0.05, $repetition=0"
attr measurement "$name=tree_4_3, $un=01, $rep=10, $cd=fix0.1, $cr=lru, $fsize=1, $a=0.9, $sl=spr, $ttl=1000, $variance=0.05"
attr name tree_4_3
attr network networks.${name}_u${un}_r${rep}_network
attr processid 14346
attr rep 10
attr repetition 0
attr replication #0
attr resultdir results
attr runnumber 29
attr seedset 10
attr sl spr
attr ttl 1000
attr un 01
attr variance 0.05

scalar . 	a 	0.9
scalar . 	fsize 	1
scalar . 	rep 	10
scalar . 	ttl 	1000
scalar . 	un 	01
scalar . 	variance 	0.05
scalar tree_4_3_u01_r10_network.content_distribution 	repo-0 	0
scalar tree_4_3_u01_r10_network.content_distribution 	client-0 	13
scalar tree_4_3_u01_r10_network.content_distribution 	client-1 	14
scalar tree_4_3_u01_r10_network.content_distribution 	client-2 	15
scalar tree_4_3_u01_r10_network.content_distribution 	client-3 	16
scalar tree_4_3_u01_r10_network.content_distribution 	client-4 	17
scalar tree_4_3_u01_r10_network.content_distribution 	client-5 	18
scalar tree_4_3_u01_r10_network.content_distribution 	client-6 	19
scalar tree_4_3_u01_r10_network.content_distribution 	client-7 	20
scalar tree_4_3_u01_r10_network.content_distribution 	client-8 	21
scalar tree_4_3_u01_r10_network.content_distribution 	client-9 	22
scalar tree_4_3_u01_r10_network.content_distribution 	client-10 	23
scalar tree_4_3_u01_r10_network.content_distribution 	client-11 	24
scalar tree_4_3_u01_r10_network.content_distribution 	client-12 	25
scalar tree_4_3_u01_r10_network.content_distribution 	client-13 	26
scalar tree_4_3_u01_r10_network.content_distribution 	client-14 	27
scalar tree_4_3_u01_r10_network.content_distribution 	client-15 	28
scalar tree_4_3_u01_r10_network.content_distribution 	client-16 	29
scalar tree_4_3_u01_r10_network.content_distribution 	client-17 	30
scalar tree_4_3_u01_r10_network.content_distribution 	client-18 	31
scalar tree_4_3_u01_r10_network.content_distribution 	client-19 	32
scalar tree_4_3_u01_r10_network.content_distribution 	client-20 	33
scalar tree_4_3_u01_r10_network.content_distribution 	client-21 	34
scalar tree_4_3_u01_r10_network.content_distribution 	client-22 	35
scalar tree_4_3_u01_r10_network.content_distribution 	client-23 	36
scalar tree_4_3_u01_r10_network.content_distribution 	client-24 	37
scalar tree_4_3_u01_r10_network.content_distribution 	client-25 	38
scalar tree_4_3_u01_r10_network.content_distribution 	client-26 	39
scalar tree_4_3_u01_r10_network.content_distribution 	repo-0_card 	100000
scalar tree_4_3_u01_r10_network.content_distribution 	repo-0_price 	0
scalar tree_4_3_u01_r10_network.statistics 	stabilization_time 	920
scalar tree_4_3_u01_r10_network.statistics 	p_hit 	0.14993048629533
scalar tree_4_3_u01_r10_network.statistics 	interests 	26735.525
scalar tree_4_3_u01_r10_network.statistics 	data 	18648.15
scalar tree_4_3_u01_r10_network.statistics 	hdistance 	3.0401753240634
scalar tree_4_3_u01_r10_network.statistics 	avg_time 	0.004611720417
scalar tree_4_3_u01_r10_network.statistics 	downloads 	323491
scalar tree_4_3_u01_r10_network.statistics 	total_cost 	0
scalar tree_4_3_u01_r10_network.statistics 	total_replicas 	100000
scalar tree_4_3_u01_r10_network.statistics 	inner_hit 	0.26576318970234
scalar tree_4_3_u01_r10_network.node[0].core_layer 	interests[0] 	241948
scalar tree_4_3_u01_r10_network.node[0].core_layer 	repo_load[0] 	237519
scalar tree_4_3_u01_r10_network.node[0].core_layer 	data[0] 	0
scalar tree_4_3_u01_r10_network.node[0].core_layer 	repo_int[0] 	237519
scalar tree_4_3_u01_r10_network.node[0].content_store 	p_hit[0] 	0.018305586324334
scalar tree_4_3_u01_r10_network.node[0].content_store 	hits[0] 	4429
scalar tree_4_3_u01_r10_network.node[0].content_store 	misses[0] 	237519
scalar tree_4_3_u01_r10_network.node[0].content_store 	decision_yes[0] 	23969
scalar tree_4_3_u01_r10_network.node[0].content_store 	decision_no[0] 	213550
scalar tree_4_3_u01_r10_network.node[0].content_store 	decision_ratio[0] 	0.10091403214059
scalar tree_4_3_u01_r10_network.node[1].core_layer 	interests[1] 	82860
scalar tree_4_3_u01_r10_network.node[1].core_layer 	data[1] 	80823
scalar tree_4_3_u01_r10_network.node[1].content_store 	p_hit[1] 	0.024583635047067
scalar tree_4_3_u01_r10_network.node[1].content_store 	hits[1] 	2037
scalar tree_4_3_u01_r10_network.node[1].content_store 	misses[1] 	80823
scalar tree_4_3_u01_r10_network.node[1].content_store 	decision_yes[1] 	8180
scalar tree_4_3_u01_r10_network.node[1].content_store 	decision_no[1] 	72643
scalar tree_4_3_u01_r10_network.node[1].content_store 	decision_ratio[1] 	0.10120881432266
scalar tree_4_3_u01_r10_network.node[2].core_layer 	interests[2] 	82198
scalar tree_4_3_u01_r10_network.node[2].core_layer 	data[2] 	80400
scalar tree_4_3_u01_r10_network.node[2].content_store 	p_hit[2] 	0.021837514294752
scalar tree_4_3_u01_r10_network.node[2].content_store 	hits[2] 	1795
scalar tree_4_3_u01_r10_network.node[2].content_store 	misses[2] 	80403
scalar tree_4_3_u01_r10_network.node[2].content_store 	decision_yes[2] 	8060
scalar tree_4_3_u01_r10_network.node[2].content_store 	decision_no[2] 	72340
scalar tree_4_3_u01_r10_network.node[2].content_store 	decision_ratio[2] 	0.10024875621891
scalar tree_4_3_u01_r10_network.node[3].core_layer 	interests[3] 	82638
scalar tree_4_3_u01_r10_network.node[3].core_layer 	data[3] 	80726
scalar tree_4_3_u01_r10_network.node[3].content_store 	p_hit[3] 	0.023124954621361
scalar tree_4_3_u01_r10_network.node[3].content_store 	hits[3] 	1911
scalar tree_4_3_u01_r10_network.node[3].content_store 	misses[3] 	80727
scalar tree_4_3_u01_r10_network.node[3].content_store 	decision_yes[3] 	8151
scalar tree_4_3_u01_r10_network.node[3].content_store 	decision_no[3] 	72575
scalar tree_4_3_u01_r10_network.node[3].content_store 	decision_ratio[3] 	0.10097118648267
scalar tree_4_3_u01_r10_network.node[4].core_layer 	interests[4] 	28609
scalar tree_4_3_u01_r10_network.node[4].core_layer 	data[4] 	27606
scalar tree_4_3_u01_r10_network.node[4].content_store 	p_hit[4] 	0.035093851585166
scalar tree_4_3_u01_r10_network.node[4].content_store 	hits[4] 	1004
scalar tree_4_3_u01_r10_network.node[4].content_store 	misses[4] 	27605
scalar tree_4_3_u01_r10_network.node[4].content_store 	decision_yes[4] 	2796
scalar tree_4_3_u01_r10_network.node[4].content_store 	decision_no[4] 	24810
scalar tree_4_3_u01_r10_network.node[4].content_store 	decision_ratio[4] 	0.10128232992828
scalar tree_4_3_u01_r10_network.node[5].core_layer 	interests[5] 	28550
scalar tree_4_3_u01_r10_network.node[5].core_layer 	data[5] 	27624
scalar tree_4_3_u01_r10_network.node[5].content_store 	p_hit[5] 	0.032399299474606
scalar tree_4_3_u01_r10_network.node[5].content_store 	hits[5] 	925
scalar tree_4_3_u01_r10_network.node[5].content_store 	misses[5] 	27625
scalar tree_4_3_u01_r10_network.node[5].content_store 	decision_yes[5] 	2782
scalar tree_4_3_u01_r10_network.node[5].content_store 	decision_no[5] 	24842
scalar tree_4_3_u01_r10_network.node[5].content_store 	decision_ratio[5] 	0.10070952794671
scalar tree_4_3_u01_r10_network.node[6].core_layer 	interests[6] 	28486
scalar tree_4_3_u01_r10_network.node[6].core_layer 	data[6] 	27631
scalar tree_4_3_u01_r10_network.node[6].content_store 	p_hit[6] 	0.030014744084814
scalar tree_4_3_u01_r10_network.node[6].content_store 	hits[6] 	855
scalar tree_4_3_u01_r10_network.node[6].content_store 	misses[6] 	27631
scalar tree_4_3_u01_r10_network.node[6].content_store 	decision_yes[6] 	2765
scalar tree_4_3_u01_r10_network.node[6].content_store 	decision_no[6] 	24866
scalar tree_4_3_u01_r10_network.node[6].content_store 	decision_ratio[6] 	0.10006876334552
scalar tree_4_3_u01_r10_network.node[7].core_layer 	interests[7] 	28502
scalar tree_4_3_u01_r10_network.node[7].core_layer 	data[7] 	27492
scalar tree_4_3_u01_r10_network.node[7].content_store 	p_hit[7] 	0.035365939232335
scalar tree_4_3_u01_r10_network.node[7].content_store 	hits[7] 	1008
scalar tree_4_3_u01_r10_network.node[7].content_store 	misses[7] 	27494
scalar tree_4_3_u01_r10_network.node[7].content_store 	decision_yes[7] 	2799
scalar tree_4_3_u01_r10_network.node[7].content_store 	decision_no[7] 	24693
scalar tree_4_3_u01_r10_network.node[7].content_store 	decision_ratio[7] 	0.10181143605412
scalar tree_4_3_u01_r10_network.node[8].core_layer 	interests[8] 	37878
scalar tree_4_3_u01_r10_network.node[8].core_layer 	data[8] 	36574
scalar tree_4_3_u01_r10_network.node[8].content_store 	p_hit[8] 	0.034373514969111
scalar tree_4_3_u01_r10_network.node[8].content_store 	hits[8] 	1302
scalar tree_4_3_u01_r10_network.node[8].content_store 	misses[8] 	36576
scalar tree_4_3_u01_r10_network.node[8].content_store 	decision_yes[8] 	3593
scalar tree_4_3_u01_r10_network.node[8].content_store 	decision_no[8] 	32981
scalar tree_4_3_u01_r10_network.node[8].content_store 	decision_ratio[8] 	0.098239186307213
scalar tree_4_3_u01_r10_network.node[9].core_layer 	interests[9] 	18695
scalar tree_4_3_u01_r10_network.node[9].core_layer 	data[9] 	18131
scalar tree_4_3_u01_r10_network.node[9].content_store 	p_hit[9] 	0.030168494249799
scalar tree_4_3_u01_r10_network.node[9].content_store 	hits[9] 	564
scalar tree_4_3_u01_r10_network.node[9].content_store 	misses[9] 	18131
scalar tree_4_3_u01_r10_network.node[9].content_store 	decision_yes[9] 	1824
scalar tree_4_3_u01_r10_network.node[9].content_store 	decision_no[9] 	16307
scalar tree_4_3_u01_r10_network.node[9].content_store 	decision_ratio[9] 	0.10060118029894
scalar tree_4_3_u01_r10_network.node[10].core_layer 	interests[10] 	28614
scalar tree_4_3_u01_r10_network.node[10].core_layer 	data[10] 	27695
scalar tree_4_3_u01_r10_network.node[10].content_store 	p_hit[10] 	0.032117145453275
scalar tree_4_3_u01_r10_network.node[10].content_store 	hits[10] 	919
scalar tree_4_3_u01_r10_network.node[10].content_store 	misses[10] 	27695
scalar tree_4_3_u01_r10_network.node[10].content_store 	decision_yes[10] 	2756
scalar tree_4_3_u01_r10_network.node[10].content_store 	decision_no[10] 	24939
scalar tree_4_3_u01_r10_network.node[10].content_store 	decision_ratio[10] 	0.099512547391226
scalar tree_4_3_u01_r10_network.node[11].core_layer 	interests[11] 	28326
scalar tree_4_3_u01_r10_network.node[11].core_layer 	data[11] 	27381
scalar tree_4_3_u01_r10_network.node[11].content_store 	p_hit[11] 	0.033290969427381
scalar tree_4_3_u01_r10_network.node[11].content_store 	hits[11] 	943
scalar tree_4_3_u01_r10_network.node[11].content_store 	misses[11] 	27383
scalar tree_4_3_u01_r10_network.node[11].content_store 	decision_yes[11] 	2672
scalar tree_4_3_u01_r10_network.node[11].content_store 	decision_no[11] 	24709
scalar tree_4_3_u01_r10_network.node[11].content_store 	decision_ratio[11] 	0.097585917241883
scalar tree_4_3_u01_r10_network.node[12].core_layer 	interests[12] 	28621
scalar tree_4_3_u01_r10_network.node[12].core_layer 	data[12] 	27561
scalar tree_4_3_u01_r10_network.node[12].content_store 	p_hit[12] 	0.037035742985919
scalar tree_4_3_u01_r10_network.node[12].content_store 	hits[12] 	1060
scalar tree_4_3_u01_r10_network.node[12].content_store 	misses[12] 	27561
scalar tree_4_3_u01_r10_network.node[12].content_store 	decision_yes[12] 	2732
scalar tree_4_3_u01_r10_network.node[12].content_store 	decision_no[12] 	24829
scalar tree_4_3_u01_r10_network.node[12].content_store 	decision_ratio[12] 	0.099125575995065
scalar tree_4_3_u01_r10_network.node[13].core_layer 	interests[13] 	11938
scalar tree_4_3_u01_r10_network.node[13].core_layer 	data[13] 	9470
scalar tree_4_3_u01_r10_network.node[13].content_store 	p_hit[13] 	0.20673479644832
scalar tree_4_3_u01_r10_network.node[13].content_store 	hits[13] 	2468
scalar tree_4_3_u01_r10_network.node[13].content_store 	misses[13] 	9470
scalar tree_4_3_u01_r10_network.node[13].content_store 	decision_yes[13] 	944
scalar tree_4_3_u01_r10_network.node[13].content_store 	decision_no[13] 	8526
scalar tree_4_3_u01_r10_network.node[13].content_store 	decision_ratio[13] 	0.099683210137276
scalar tree_4_3_u01_r10_network.node[14].core_layer 	interests[14] 	12085
scalar tree_4_3_u01_r10_network.node[14].core_layer 	data[14] 	9622
scalar tree_4_3_u01_r10_network.node[14].content_store 	p_hit[14] 	0.20380637153496
scalar tree_4_3_u01_r10_network.node[14].content_store 	hits[14] 	2463
scalar tree_4_3_u01_r10_network.node[14].content_store 	misses[14] 	9622
scalar tree_4_3_u01_r10_network.node[14].content_store 	decision_yes[14] 	969
scalar tree_4_3_u01_r10_network.node[14].content_store 	decision_no[14] 	8653
scalar tree_4_3_u01_r10_network.node[14].content_store 	decision_ratio[14] 	0.10070671378092
scalar tree_4_3_u01_r10_network.node[15].core_layer 	interests[15] 	12103
scalar tree_4_3_u01_r10_network.node[15].core_layer 	data[15] 	9519
scalar tree_4_3_u01_r10_network.node[15].content_store 	p_hit[15] 	0.21358340907213
scalar tree_4_3_u01_r10_network.node[15].content_store 	hits[15] 	2585
scalar tree_4_3_u01_r10_network.node[15].content_store 	misses[15] 	9518
scalar tree_4_3_u01_r10_network.node[15].content_store 	decision_yes[15] 	953
scalar tree_4_3_u01_r10_network.node[15].content_store 	decision_no[15] 	8566
scalar tree_4_3_u01_r10_network.node[15].content_store 	decision_ratio[15] 	0.10011555835697
scalar tree_4_3_u01_r10_network.node[16].core_layer 	interests[16] 	11956
scalar tree_4_3_u01_r10_network.node[16].core_layer 	data[16] 	9391
scalar tree_4_3_u01_r10_network.node[16].content_store 	p_hit[16] 	0.21453663432586
scalar tree_4_3_u01_r10_network.node[16].content_store 	hits[16] 	2565
scalar tree_4_3_u01_r10_network.node[16].content_store 	misses[16] 	9391
scalar tree_4_3_u01_r10_network.node[16].content_store 	decision_yes[16] 	908
scalar tree_4_3_u01_r10_network.node[16].content_store 	decision_no[16] 	8483
scalar tree_4_3_u01_r10_network.node[16].content_store 	decision_ratio[16] 	0.096688318602918
scalar tree_4_3_u01_r10_network.node[17].core_layer 	interests[17] 	11982
scalar tree_4_3_u01_r10_network.node[17].core_layer 	data[17] 	9553
scalar tree_4_3_u01_r10_network.node[17].content_store 	p_hit[17] 	0.20272074778835
scalar tree_4_3_u01_r10_network.node[17].content_store 	hits[17] 	2429
scalar tree_4_3_u01_r10_network.node[17].content_store 	misses[17] 	9553
scalar tree_4_3_u01_r10_network.node[17].content_store 	decision_yes[17] 	985
scalar tree_4_3_u01_r10_network.node[17].content_store 	decision_no[17] 	8568
scalar tree_4_3_u01_r10_network.node[17].content_store 	decision_ratio[17] 	0.10310897100387
scalar tree_4_3_u01_r10_network.node[18].core_layer 	interests[18] 	12168
scalar tree_4_3_u01_r10_network.node[18].core_layer 	data[18] 	9606
scalar tree_4_3_u01_r10_network.node[18].content_store 	p_hit[18] 	0.21055226824458
scalar tree_4_3_u01_r10_network.node[18].content_store 	hits[18] 	2562
scalar tree_4_3_u01_r10_network.node[18].content_store 	misses[18] 	9606
scalar tree_4_3_u01_r10_network.node[18].content_store 	decision_yes[18] 	945
scalar tree_4_3_u01_r10_network.node[18].content_store 	decision_no[18] 	8661
scalar tree_4_3_u01_r10_network.node[18].content_store 	decision_ratio[18] 	0.098376014990631
scalar tree_4_3_u01_r10_network.node[19].core_layer 	interests[19] 	12108
scalar tree_4_3_u01_r10_network.node[19].core_layer 	data[19] 	9606
scalar tree_4_3_u01_r10_network.node[19].content_store 	p_hit[19] 	0.20664023785927
scalar tree_4_3_u01_r10_network.node[19].content_store 	hits[19] 	2502
scalar tree_4_3_u01_r10_network.node[19].content_store 	misses[19] 	9606
scalar tree_4_3_u01_r10_network.node[19].content_store 	decision_yes[19] 	929
scalar tree_4_3_u01_r10_network.node[19].content_store 	decision_no[19] 	8677
scalar tree_4_3_u01_r10_network.node[19].content_store 	decision_ratio[19] 	0.096710389339996
scalar tree_4_3_u01_r10_network.node[20].core_layer 	interests[20] 	12039
scalar tree_4_3_u01_r10_network.node[20].core_layer 	data[20] 	9529
scalar tree_4_3_u01_r10_network.node[20].content_store 	p_hit[20] 	0.20848907716588
scalar tree_4_3_u01_r10_network.node[20].content_store 	hits[20] 	2510
scalar tree_4_3_u01_r10_network.node[20].content_store 	misses[20] 	9529
scalar tree_4_3_u01_r10_network.node[20].content_store 	decision_yes[20] 	958
scalar tree_4_3_u01_r10_network.node[20].content_store 	decision_no[20] 	8571
scalar tree_4_3_u01_r10_network.node[20].content_store 	decision_ratio[20] 	0.10053520831147
scalar tree_4_3_u01_r10_network.node[21].core_layer 	interests[21] 	11883
scalar tree_4_3_u01_r10_network.node[21].core_layer 	data[21] 	9351
scalar tree_4_3_u01_r10_network.node[21].content_store 	p_hit[21] 	0.21290919801397
scalar tree_4_3_u01_r10_network.node[21].content_store 	hits[21] 	2530
scalar tree_4_3_u01_r10_network.node[21].content_store 	misses[21] 	9353
scalar tree_4_3_u01_r10_network.node[21].content_store 	decision_yes[21] 	962
scalar tree_4_3_u01_r10_network.node[21].content_store 	decision_no[21] 	8389
scalar tree_4_3_u01_r10_network.node[21].content_store 	decision_ratio[21] 	0.10287669767939
scalar tree_4_3_u01_r10_network.node[22].core_layer 	interests[22] 	11909
scalar tree_4_3_u01_r10_network.node[22].core_layer 	data[22] 	9533
scalar tree_4_3_u01_r10_network.node[22].content_store 	p_hit[22] 	0.19934503316819
scalar tree_4_3_u01_r10_network.node[22].content_store 	hits[22] 	2374
scalar tree_4_3_u01_r10_network.node[22].content_store 	misses[22] 	9535
scalar tree_4_3_u01_r10_network.node[22].content_store 	decision_yes[22] 	952
scalar tree_4_3_u01_r10_network.node[22].content_store 	decision_no[22] 	8581
scalar tree_4_3_u01_r10_network.node[22].content_store 	decision_ratio[22] 	0.09986363159551
scalar tree_4_3_u01_r10_network.node[23].core_layer 	interests[23] 	11929
scalar tree_4_3_u01_r10_network.node[23].core_layer 	data[23] 	9448
scalar tree_4_3_u01_r10_network.node[23].content_store 	p_hit[23] 	0.20798055159695
scalar tree_4_3_u01_r10_network.node[23].content_store 	hits[23] 	2481
scalar tree_4_3_u01_r10_network.node[23].content_store 	misses[23] 	9448
scalar tree_4_3_u01_r10_network.node[23].content_store 	decision_yes[23] 	967
scalar tree_4_3_u01_r10_network.node[23].content_store 	decision_no[23] 	8481
scalar tree_4_3_u01_r10_network.node[23].content_store 	decision_ratio[23] 	0.10234970364098
scalar tree_4_3_u01_r10_network.node[24].core_layer 	interests[24] 	12059
scalar tree_4_3_u01_r10_network.node[24].core_layer 	data[24] 	9521
scalar tree_4_3_u01_r10_network.node[24].content_store 	p_hit[24] 	0.21054813831993
scalar tree_4_3_u01_r10_network.node[24].content_store 	hits[24] 	2539
scalar tree_4_3_u01_r10_network.node[24].content_store 	misses[24] 	9520
scalar tree_4_3_u01_r10_network.node[24].content_store 	decision_yes[24] 	939
scalar tree_4_3_u01_r10_network.node[24].content_store 	decision_no[24] 	8582
scalar tree_4_3_u01_r10_network.node[24].content_store 	decision_ratio[24] 	0.098624094107762
scalar tree_4_3_u01_r10_network.node[25].core_layer 	interests[25] 	12098
scalar tree_4_3_u01_r10_network.node[25].core_layer 	data[25] 	9597
scalar tree_4_3_u01_r10_network.node[25].content_store 	p_hit[25] 	0.206728384857
scalar tree_4_3_u01_r10_network.node[25].content_store 	hits[25] 	2501
scalar tree_4_3_u01_r10_network.node[25].content_store 	misses[25] 	9597
scalar tree_4_3_u01_r10_network.node[25].content_store 	decision_yes[25] 	1001
scalar tree_4_3_u01_r10_network.node[25].content_store 	decision_no[25] 	8596
scalar tree_4_3_u01_r10_network.node[25].content_store 	decision_ratio[25] 	0.10430342815463
scalar tree_4_3_u01_r10_network.node[26].core_layer 	interests[26] 	12011
scalar tree_4_3_u01_r10_network.node[26].core_layer 	data[26] 	9452
scalar tree_4_3_u01_r10_network.node[26].content_store 	p_hit[26] 	0.21305469985846
scalar tree_4_3_u01_r10_network.node[26].content_store 	hits[26] 	2559
scalar tree_4_3_u01_r10_network.node[26].content_store 	misses[26] 	9452
scalar tree_4_3_u01_r10_network.node[26].content_store 	decision_yes[26] 	921
scalar tree_4_3_u01_r10_network.node[26].content_store 	decision_no[26] 	8531
scalar tree_4_3_u01_r10_network.node[26].content_store 	decision_ratio[26] 	0.097439695302581
scalar tree_4_3_u01_r10_network.node[27].core_layer 	interests[27] 	11833
scalar tree_4_3_u01_r10_network.node[27].core_layer 	data[27] 	9342
scalar tree_4_3_u01_r10_network.node[27].content_store 	p_hit[27] 	0.2105129721964
scalar tree_4_3_u01_r10_network.node[27].content_store 	hits[27] 	2491
scalar tree_4_3_u01_r10_network.node[27].content_store 	misses[27] 	9342
scalar tree_4_3_u01_r10_network.node[27].content_store 	decision_yes[27] 	873
scalar tree_4_3_u01_r10_network.node[27].content_store 	decision_no[27] 	8469
scalar tree_4_3_u01_r10_network.node[27].content_store 	decision_ratio[27] 	0.09344894026975
scalar tree_4_3_u01_r10_network.node[28].core_layer 	interests[28] 	11849
scalar tree_4_3_u01_r10_network.node[28].core_layer 	data[28] 	9258
scalar tree_4_3_u01_r10_network.node[28].content_store 	p_hit[28] 	0.21866824204574
scalar tree_4_3_u01_r10_network.node[28].content_store 	hits[28] 	2591
scalar tree_4_3_u01_r10_network.node[28].content_store 	misses[28] 	9258
scalar tree_4_3_u01_r10_network.node[28].content_store 	decision_yes[28] 	942
scalar tree_4_3_u01_r10_network.node[28].content_store 	decision_no[28] 	8316
scalar tree_4_3_u01_r10_network.node[28].content_store 	decision_ratio[28] 	0.10174983797796
scalar tree_4_3_u01_r10_network.node[29].core_layer 	interests[29] 	12008
scalar tree_4_3_u01_r10_network.node[29].core_layer 	data[29] 	9487
scalar tree_4_3_u01_r10_network.node[29].content_store 	p_hit[29] 	0.20994337108594
scalar tree_4_3_u01_r10_network.node[29].content_store 	hits[29] 	2521
scalar tree_4_3_u01_r10_network.node[29].content_store 	misses[29] 	9487
scalar tree_4_3_u01_r10_network.node[29].content_store 	decision_yes[29] 	899
scalar tree_4_3_u01_r10_network.node[29].content_store 	decision_no[29] 	8588
scalar tree_4_3_u01_r10_network.node[29].content_store 	decision_ratio[29] 	0.094761252239907
scalar tree_4_3_u01_r10_network.node[30].core_layer 	interests[30] 	11930
scalar tree_4_3_u01_r10_network.node[30].core_layer 	data[30] 	9437
scalar tree_4_3_u01_r10_network.node[30].content_store 	p_hit[30] 	0.20896898575021
scalar tree_4_3_u01_r10_network.node[30].content_store 	hits[30] 	2493
scalar tree_4_3_u01_r10_network.node[30].content_store 	misses[30] 	9437
scalar tree_4_3_u01_r10_network.node[30].content_store 	decision_yes[30] 	918
scalar tree_4_3_u01_r10_network.node[30].content_store 	decision_no[30] 	8519
scalar tree_4_3_u01_r10_network.node[30].content_store 	decision_ratio[30] 	0.097276676910035
scalar tree_4_3_u01_r10_network.node[31].core_layer 	interests[31] 	12011
scalar tree_4_3_u01_r10_network.node[31].core_layer 	data[31] 	9616
scalar tree_4_3_u01_r10_network.node[31].content_store 	p_hit[31] 	0.1994005494963
scalar tree_4_3_u01_r10_network.node[31].content_store 	hits[31] 	2395
scalar tree_4_3_u01_r10_network.node[31].content_store 	misses[31] 	9616
scalar tree_4_3_u01_r10_network.node[31].content_store 	decision_yes[31] 	961
scalar tree_4_3_u01_r10_network.node[31].content_store 	decision_no[31] 	8655
scalar tree_4_3_u01_r10_network.node[31].content_store 	decision_ratio[31] 	0.099937603993344
scalar tree_4_3_u01_r10_network.node[32].core_layer 	interests[32] 	12054
scalar tree_4_3_u01_r10_network.node[32].core_layer 	data[32] 	9573
scalar tree_4_3_u01_r10_network.node[32].content_store 	p_hit[32] 	0.20574083291853
scalar tree_4_3_u01_r10_network.node[32].content_store 	hits[32] 	2480
scalar tree_4_3_u01_r10_network.node[32].content_store 	misses[32] 	9574
scalar tree_4_3_u01_r10_network.node[32].content_store 	decision_yes[32] 	939
scalar tree_4_3_u01_r10_network.node[32].content_store 	decision_no[32] 	8634
scalar tree_4_3_u01_r10_network.node[32].content_store 	decision_ratio[32] 	0.098088373550611
scalar tree_4_3_u01_r10_network.node[33].core_layer 	interests[33] 	11905
scalar tree_4_3_u01_r10_network.node[33].core_layer 	data[33] 	9425
scalar tree_4_3_u01_r10_network.node[33].content_store 	p_hit[33] 	0.20831583368333
scalar tree_4_3_u01_r10_network.node[33].content_store 	hits[33] 	2480
scalar tree_4_3_u01_r10_network.node[33].content_store 	misses[33] 	9425
scalar tree_4_3_u01_r10_network.node[33].content_store 	decision_yes[33] 	932
scalar tree_4_3_u01_r10_network.node[33].content_store 	decision_no[33] 	8493
scalar tree_4_3_u01_r10_network.node[33].content_store 	decision_ratio[33] 	0.098885941644562
scalar tree_4_3_u01_r10_network.node[34].core_layer 	interests[34] 	11812
scalar tree_4_3_u01_r10_network.node[34].core_layer 	data[34] 	9367
scalar tree_4_3_u01_r10_network.node[34].content_store 	p_hit[34] 	0.20690822891974
scalar tree_4_3_u01_r10_network.node[34].content_store 	hits[34] 	2444
scalar tree_4_3_u01_r10_network.node[34].content_store 	misses[34] 	9368
scalar tree_4_3_u01_r10_network.node[34].content_store 	decision_yes[34] 	978
scalar tree_4_3_u01_r10_network.node[34].content_store 	decision_no[34] 	8389
scalar tree_4_3_u01_r10_network.node[34].content_store 	decision_ratio[34] 	0.10440909576172
scalar tree_4_3_u01_r10_network.node[35].core_layer 	interests[35] 	12065
scalar tree_4_3_u01_r10_network.node[35].core_layer 	data[35] 	9564
scalar tree_4_3_u01_r10_network.node[35].content_store 	p_hit[35] 	0.20729382511397
scalar tree_4_3_u01_r10_network.node[35].content_store 	hits[35] 	2501
scalar tree_4_3_u01_r10_network.node[35].content_store 	misses[35] 	9564
scalar tree_4_3_u01_r10_network.node[35].content_store 	decision_yes[35] 	927
scalar tree_4_3_u01_r10_network.node[35].content_store 	decision_no[35] 	8637
scalar tree_4_3_u01_r10_network.node[35].content_store 	decision_ratio[35] 	0.096925972396487
scalar tree_4_3_u01_r10_network.node[36].core_layer 	interests[36] 	11897
scalar tree_4_3_u01_r10_network.node[36].core_layer 	data[36] 	9394
scalar tree_4_3_u01_r10_network.node[36].content_store 	p_hit[36] 	0.21030511893755
scalar tree_4_3_u01_r10_network.node[36].content_store 	hits[36] 	2502
scalar tree_4_3_u01_r10_network.node[36].content_store 	misses[36] 	9395
scalar tree_4_3_u01_r10_network.node[36].content_store 	decision_yes[36] 	910
scalar tree_4_3_u01_r10_network.node[36].content_store 	decision_no[36] 	8484
scalar tree_4_3_u01_r10_network.node[36].content_store 	decision_ratio[36] 	0.096870342771982
scalar tree_4_3_u01_r10_network.node[37].core_layer 	interests[37] 	12083
scalar tree_4_3_u01_r10_network.node[37].core_layer 	data[37] 	9620
scalar tree_4_3_u01_r10_network.node[37].content_store 	p_hit[37] 	0.20375734503021
scalar tree_4_3_u01_r10_network.node[37].content_store 	hits[37] 	2462
scalar tree_4_3_u01_r10_network.node[37].content_store 	misses[37] 	9621
scalar tree_4_3_u01_r10_network.node[37].content_store 	decision_yes[37] 	990
scalar tree_4_3_u01_r10_network.node[37].content_store 	decision_no[37] 	8630
scalar tree_4_3_u01_r10_network.node[37].content_store 	decision_ratio[37] 	0.1029106029106
scalar tree_4_3_u01_r10_network.node[38].core_layer 	interests[38] 	11947
scalar tree_4_3_u01_r10_network.node[38].core_layer 	data[38] 	9517
scalar tree_4_3_u01_r10_network.node[38].content_store 	p_hit[38] 	0.20339834268017
scalar tree_4_3_u01_r10_network.node[38].content_store 	hits[38] 	2430
scalar tree_4_3_u01_r10_network.node[38].content_store 	misses[38] 	9517
scalar tree_4_3_u01_r10_network.node[38].content_store 	decision_yes[38] 	931
scalar tree_4_3_u01_r10_network.node[38].content_store 	decision_no[38] 	8586
scalar tree_4_3_u01_r10_network.node[38].content_store 	decision_ratio[38] 	0.097824944835557
scalar tree_4_3_u01_r10_network.node[39].core_layer 	interests[39] 	11834
scalar tree_4_3_u01_r10_network.node[39].core_layer 	data[39] 	9484
scalar tree_4_3_u01_r10_network.node[39].content_store 	p_hit[39] 	0.19866486395133
scalar tree_4_3_u01_r10_network.node[39].content_store 	hits[39] 	2351
scalar tree_4_3_u01_r10_network.node[39].content_store 	misses[39] 	9483
scalar tree_4_3_u01_r10_network.node[39].content_store 	decision_yes[39] 	891
scalar tree_4_3_u01_r10_network.node[39].content_store 	decision_no[39] 	8593
scalar tree_4_3_u01_r10_network.node[39].content_store 	decision_ratio[39] 	0.093947701391818
scalar tree_4_3_u01_r10_network.client[13] 	hdistance[13] 	3.035935667616
scalar tree_4_3_u01_r10_network.client[13] 	downloads[13] 	11938
scalar tree_4_3_u01_r10_network.client[13] 	avg_time[13] 	0.004608957248
scalar tree_4_3_u01_r10_network.client[14] 	hdistance[14] 	3.0458419528341
scalar tree_4_3_u01_r10_network.client[14] 	downloads[14] 	12085
scalar tree_4_3_u01_r10_network.client[14] 	avg_time[14] 	0.004619887436
scalar tree_4_3_u01_r10_network.client[15] 	hdistance[15] 	3.0160277594184
scalar tree_4_3_u01_r10_network.client[15] 	downloads[15] 	12104
scalar tree_4_3_u01_r10_network.client[15] 	avg_time[15] 	0.004577657266
scalar tree_4_3_u01_r10_network.client[16] 	hdistance[16] 	3.0116259618602
scalar tree_4_3_u01_r10_network.client[16] 	downloads[16] 	11956
scalar tree_4_3_u01_r10_network.client[16] 	avg_time[16] 	0.004570087328
scalar tree_4_3_u01_r10_network.client[17] 	hdistance[17] 	3.0681021532299
scalar tree_4_3_u01_r10_network.client[17] 	downloads[17] 	11982
scalar tree_4_3_u01_r10_network.client[17] 	avg_time[17] 	0.004650472714
scalar tree_4_3_u01_r10_network.client[18] 	hdistance[18] 	3.0257232084155
scalar tree_4_3_u01_r10_network.client[18] 	downloads[18] 	12168
scalar tree_4_3_u01_r10_network.client[18] 	avg_time[18] 	0.004592862784
scalar tree_4_3_u01_r10_network.client[19] 	hdistance[19] 	3.0511232243145
scalar tree_4_3_u01_r10_network.client[19] 	downloads[19] 	12108
scalar tree_4_3_u01_r10_network.client[19] 	avg_time[19] 	0.00463065438
scalar tree_4_3_u01_r10_network.client[20] 	hdistance[20] 	3.038624470471
scalar tree_4_3_u01_r10_network.client[20] 	downloads[20] 	12039
scalar tree_4_3_u01_r10_network.client[20] 	avg_time[20] 	0.004609848294
scalar tree_4_3_u01_r10_network.client[21] 	hdistance[21] 	3.0303004797576
scalar tree_4_3_u01_r10_network.client[21] 	downloads[21] 	11881
scalar tree_4_3_u01_r10_network.client[21] 	avg_time[21] 	0.004594385425
scalar tree_4_3_u01_r10_network.client[22] 	hdistance[22] 	3.0686990845721
scalar tree_4_3_u01_r10_network.client[22] 	downloads[22] 	11907
scalar tree_4_3_u01_r10_network.client[22] 	avg_time[22] 	0.004656355277
scalar tree_4_3_u01_r10_network.client[23] 	hdistance[23] 	3.0395674406908
scalar tree_4_3_u01_r10_network.client[23] 	downloads[23] 	11929
scalar tree_4_3_u01_r10_network.client[23] 	avg_time[23] 	0.004610442145
scalar tree_4_3_u01_r10_network.client[24] 	hdistance[24] 	3.0204809286899
scalar tree_4_3_u01_r10_network.client[24] 	downloads[24] 	12060
scalar tree_4_3_u01_r10_network.client[24] 	avg_time[24] 	0.004583282716
scalar tree_4_3_u01_r10_network.client[25] 	hdistance[25] 	3.0457100347165
scalar tree_4_3_u01_r10_network.client[25] 	downloads[25] 	12098
scalar tree_4_3_u01_r10_network.client[25] 	avg_time[25] 	0.00462175265
scalar tree_4_3_u01_r10_network.client[26] 	hdistance[26] 	3.0323037215885
scalar tree_4_3_u01_r10_network.client[26] 	downloads[26] 	12011
scalar tree_4_3_u01_r10_network.client[26] 	avg_time[26] 	0.004594043091
scalar tree_4_3_u01_r10_network.client[27] 	hdistance[27] 	3.0230710724246
scalar tree_4_3_u01_r10_network.client[27] 	downloads[27] 	11833
scalar tree_4_3_u01_r10_network.client[27] 	avg_time[27] 	0.004588689665
scalar tree_4_3_u01_r10_network.client[28] 	hdistance[28] 	3.0106338087602
scalar tree_4_3_u01_r10_network.client[28] 	downloads[28] 	11849
scalar tree_4_3_u01_r10_network.client[28] 	avg_time[28] 	0.004563420106
scalar tree_4_3_u01_r10_network.client[29] 	hdistance[29] 	3.0268987341772
scalar tree_4_3_u01_r10_network.client[29] 	downloads[29] 	12008
scalar tree_4_3_u01_r10_network.client[29] 	avg_time[29] 	0.004590073997
scalar tree_4_3_u01_r10_network.client[30] 	hdistance[30] 	3.0440905280805
scalar tree_4_3_u01_r10_network.client[30] 	downloads[30] 	11930
scalar tree_4_3_u01_r10_network.client[30] 	avg_time[30] 	0.004614815629
scalar tree_4_3_u01_r10_network.client[31] 	hdistance[31] 	3.0719340604446
scalar tree_4_3_u01_r10_network.client[31] 	downloads[31] 	12011
scalar tree_4_3_u01_r10_network.client[31] 	avg_time[31] 	0.004660558128
scalar tree_4_3_u01_r10_network.client[32] 	hdistance[32] 	3.0539284825355
scalar tree_4_3_u01_r10_network.client[32] 	downloads[32] 	12053
scalar tree_4_3_u01_r10_network.client[32] 	avg_time[32] 	0.004632445312
scalar tree_4_3_u01_r10_network.client[33] 	hdistance[33] 	3.0381352372953
scalar tree_4_3_u01_r10_network.client[33] 	downloads[33] 	11905
scalar tree_4_3_u01_r10_network.client[33] 	avg_time[33] 	0.004608984838
scalar tree_4_3_u01_r10_network.client[34] 	hdistance[34] 	3.0432647531962
scalar tree_4_3_u01_r10_network.client[34] 	downloads[34] 	11811
scalar tree_4_3_u01_r10_network.client[34] 	avg_time[34] 	0.004614199473
scalar tree_4_3_u01_r10_network.client[35] 	hdistance[35] 	3.0401160381268
scalar tree_4_3_u01_r10_network.client[35] 	downloads[35] 	12065
scalar tree_4_3_u01_r10_network.client[35] 	avg_time[35] 	0.004611052871
scalar tree_4_3_u01_r10_network.client[36] 	hdistance[36] 	3.0406018829859
scalar tree_4_3_u01_r10_network.client[36] 	downloads[36] 	11896
scalar tree_4_3_u01_r10_network.client[36] 	avg_time[36] 	0.004610118081
scalar tree_4_3_u01_r10_network.client[37] 	hdistance[37] 	3.0600066214203
scalar tree_4_3_u01_r10_network.client[37] 	downloads[37] 	12082
scalar tree_4_3_u01_r10_network.client[37] 	avg_time[37] 	0.004640784918
scalar tree_4_3_u01_r10_network.client[38] 	hdistance[38] 	3.0534862308529
scalar tree_4_3_u01_r10_network.client[38] 	downloads[38] 	11947
scalar tree_4_3_u01_r10_network.client[38] 	avg_time[38] 	0.004629443751
scalar tree_4_3_u01_r10_network.client[39] 	hdistance[39] 	3.0485002112378
scalar tree_4_3_u01_r10_network.client[39] 	downloads[39] 	11835
scalar tree_4_3_u01_r10_network.client[39] 	avg_time[39] 	0.004631175758
