version 2
run General-340-20160901-05:39:27-8710
attr a 0.9
attr cd ffc0.25
attr configname General
attr cr lru
attr datetime 20160901-05:39:27
attr experiment General
attr fsize 1
attr inifile hw5115/scenario_Y/omnetp.ini
attr iterationvars "$name=tree_4_3, $un=05, $rep=14, $cd=ffc0.25, $cr=lru, $fsize=1, $a=0.9, $sl=nrr, $ttl=1000, $variance=0.05"
attr iterationvars2 "$name=tree_4_3, $un=05, $rep=14, $cd=ffc0.25, $cr=lru, $fsize=1, $a=0.9, $sl=nrr, $ttl=1000, $variance=0.05, $repetition=0"
attr measurement "$name=tree_4_3, $un=05, $rep=14, $cd=ffc0.25, $cr=lru, $fsize=1, $a=0.9, $sl=nrr, $ttl=1000, $variance=0.05"
attr name tree_4_3
attr network networks.${name}_u${un}_r${rep}_network
attr processid 8710
attr rep 14
attr repetition 0
attr replication #0
attr resultdir results
attr runnumber 340
attr seedset 14
attr sl nrr
attr ttl 1000
attr un 05
attr variance 0.05

scalar . 	a 	0.9
scalar . 	fsize 	1
scalar . 	rep 	14
scalar . 	ttl 	1000
scalar . 	un 	05
scalar . 	variance 	0.05
scalar tree_4_3_u05_r14_network.content_distribution 	repo-0 	0
scalar tree_4_3_u05_r14_network.content_distribution 	client-0 	13
scalar tree_4_3_u05_r14_network.content_distribution 	client-1 	14
scalar tree_4_3_u05_r14_network.content_distribution 	client-2 	15
scalar tree_4_3_u05_r14_network.content_distribution 	client-3 	16
scalar tree_4_3_u05_r14_network.content_distribution 	client-4 	17
scalar tree_4_3_u05_r14_network.content_distribution 	client-5 	18
scalar tree_4_3_u05_r14_network.content_distribution 	client-6 	19
scalar tree_4_3_u05_r14_network.content_distribution 	client-7 	20
scalar tree_4_3_u05_r14_network.content_distribution 	client-8 	21
scalar tree_4_3_u05_r14_network.content_distribution 	client-9 	22
scalar tree_4_3_u05_r14_network.content_distribution 	client-10 	23
scalar tree_4_3_u05_r14_network.content_distribution 	client-11 	24
scalar tree_4_3_u05_r14_network.content_distribution 	client-12 	25
scalar tree_4_3_u05_r14_network.content_distribution 	client-13 	26
scalar tree_4_3_u05_r14_network.content_distribution 	client-14 	27
scalar tree_4_3_u05_r14_network.content_distribution 	client-15 	28
scalar tree_4_3_u05_r14_network.content_distribution 	client-16 	29
scalar tree_4_3_u05_r14_network.content_distribution 	client-17 	30
scalar tree_4_3_u05_r14_network.content_distribution 	client-18 	31
scalar tree_4_3_u05_r14_network.content_distribution 	client-19 	32
scalar tree_4_3_u05_r14_network.content_distribution 	client-20 	33
scalar tree_4_3_u05_r14_network.content_distribution 	client-21 	34
scalar tree_4_3_u05_r14_network.content_distribution 	client-22 	35
scalar tree_4_3_u05_r14_network.content_distribution 	client-23 	36
scalar tree_4_3_u05_r14_network.content_distribution 	client-24 	37
scalar tree_4_3_u05_r14_network.content_distribution 	client-25 	38
scalar tree_4_3_u05_r14_network.content_distribution 	client-26 	39
scalar tree_4_3_u05_r14_network.content_distribution 	repo-0_card 	100000
scalar tree_4_3_u05_r14_network.content_distribution 	repo-0_price 	0
scalar tree_4_3_u05_r14_network.statistics 	stabilization_time 	2685.7
scalar tree_4_3_u05_r14_network.statistics 	p_hit 	0.23288420903803
scalar tree_4_3_u05_r14_network.statistics 	interests 	24648.025
scalar tree_4_3_u05_r14_network.statistics 	data 	16541.475
scalar tree_4_3_u05_r14_network.statistics 	hdistance 	2.6155522084344
scalar tree_4_3_u05_r14_network.statistics 	avg_time 	0.004081123434
scalar tree_4_3_u05_r14_network.statistics 	downloads 	324249
scalar tree_4_3_u05_r14_network.statistics 	total_cost 	0
scalar tree_4_3_u05_r14_network.statistics 	total_replicas 	100000
scalar tree_4_3_u05_r14_network.statistics 	inner_hit 	0.42500979185749
scalar tree_4_3_u05_r14_network.node[0].core_layer 	interests[0] 	189540
scalar tree_4_3_u05_r14_network.node[0].core_layer 	repo_load[0] 	186440
scalar tree_4_3_u05_r14_network.node[0].core_layer 	data[0] 	0
scalar tree_4_3_u05_r14_network.node[0].core_layer 	repo_int[0] 	186440
scalar tree_4_3_u05_r14_network.node[0].content_store 	p_hit[0] 	0.016355386725757
scalar tree_4_3_u05_r14_network.node[0].content_store 	hits[0] 	3100
scalar tree_4_3_u05_r14_network.node[0].content_store 	misses[0] 	186440
scalar tree_4_3_u05_r14_network.node[0].content_store 	decision_yes[0] 	232
scalar tree_4_3_u05_r14_network.node[0].content_store 	decision_no[0] 	186208
scalar tree_4_3_u05_r14_network.node[0].content_store 	decision_ratio[0] 	0.0012443681613388
scalar tree_4_3_u05_r14_network.node[1].core_layer 	interests[1] 	104658
scalar tree_4_3_u05_r14_network.node[1].core_layer 	data[1] 	101840
scalar tree_4_3_u05_r14_network.node[1].content_store 	p_hit[1] 	0.026906686540924
scalar tree_4_3_u05_r14_network.node[1].content_store 	hits[1] 	2816
scalar tree_4_3_u05_r14_network.node[1].content_store 	misses[1] 	101842
scalar tree_4_3_u05_r14_network.node[1].content_store 	decision_yes[1] 	133
scalar tree_4_3_u05_r14_network.node[1].content_store 	decision_no[1] 	101707
scalar tree_4_3_u05_r14_network.node[1].content_store 	decision_ratio[1] 	0.0013059701492537
scalar tree_4_3_u05_r14_network.node[2].core_layer 	interests[2] 	33946
scalar tree_4_3_u05_r14_network.node[2].core_layer 	data[2] 	31059
scalar tree_4_3_u05_r14_network.node[2].content_store 	p_hit[2] 	0.08504683909739
scalar tree_4_3_u05_r14_network.node[2].content_store 	hits[2] 	2887
scalar tree_4_3_u05_r14_network.node[2].content_store 	misses[2] 	31059
scalar tree_4_3_u05_r14_network.node[2].content_store 	decision_yes[2] 	51
scalar tree_4_3_u05_r14_network.node[2].content_store 	decision_no[2] 	31008
scalar tree_4_3_u05_r14_network.node[2].content_store 	decision_ratio[2] 	0.0016420361247947
scalar tree_4_3_u05_r14_network.node[3].core_layer 	interests[3] 	69866
scalar tree_4_3_u05_r14_network.node[3].core_layer 	data[3] 	67909
scalar tree_4_3_u05_r14_network.node[3].content_store 	p_hit[3] 	0.027996450347809
scalar tree_4_3_u05_r14_network.node[3].content_store 	hits[3] 	1956
scalar tree_4_3_u05_r14_network.node[3].content_store 	misses[3] 	67910
scalar tree_4_3_u05_r14_network.node[3].content_store 	decision_yes[3] 	110
scalar tree_4_3_u05_r14_network.node[3].content_store 	decision_no[3] 	67799
scalar tree_4_3_u05_r14_network.node[3].content_store 	decision_ratio[3] 	0.0016198147520947
scalar tree_4_3_u05_r14_network.node[4].core_layer 	interests[4] 	43162
scalar tree_4_3_u05_r14_network.node[4].core_layer 	data[4] 	40077
scalar tree_4_3_u05_r14_network.node[4].content_store 	p_hit[4] 	0.071451739956443
scalar tree_4_3_u05_r14_network.node[4].content_store 	hits[4] 	3084
scalar tree_4_3_u05_r14_network.node[4].content_store 	misses[4] 	40078
scalar tree_4_3_u05_r14_network.node[4].content_store 	decision_yes[4] 	73
scalar tree_4_3_u05_r14_network.node[4].content_store 	decision_no[4] 	40004
scalar tree_4_3_u05_r14_network.node[4].content_store 	decision_ratio[4] 	0.0018214936247723
scalar tree_4_3_u05_r14_network.node[5].core_layer 	interests[5] 	21035
scalar tree_4_3_u05_r14_network.node[5].core_layer 	data[5] 	17871
scalar tree_4_3_u05_r14_network.node[5].content_store 	p_hit[5] 	0.1504159733777
scalar tree_4_3_u05_r14_network.node[5].content_store 	hits[5] 	3164
scalar tree_4_3_u05_r14_network.node[5].content_store 	misses[5] 	17871
scalar tree_4_3_u05_r14_network.node[5].content_store 	decision_yes[5] 	68
scalar tree_4_3_u05_r14_network.node[5].content_store 	decision_no[5] 	17803
scalar tree_4_3_u05_r14_network.node[5].content_store 	decision_ratio[5] 	0.0038050472833082
scalar tree_4_3_u05_r14_network.node[6].core_layer 	interests[6] 	18772
scalar tree_4_3_u05_r14_network.node[6].core_layer 	data[6] 	16829
scalar tree_4_3_u05_r14_network.node[6].content_store 	p_hit[6] 	0.10345194971234
scalar tree_4_3_u05_r14_network.node[6].content_store 	hits[6] 	1942
scalar tree_4_3_u05_r14_network.node[6].content_store 	misses[6] 	16830
scalar tree_4_3_u05_r14_network.node[6].content_store 	decision_yes[6] 	38
scalar tree_4_3_u05_r14_network.node[6].content_store 	decision_no[6] 	16791
scalar tree_4_3_u05_r14_network.node[6].content_store 	decision_ratio[6] 	0.002258007011706
scalar tree_4_3_u05_r14_network.node[7].core_layer 	interests[7] 	44783
scalar tree_4_3_u05_r14_network.node[7].core_layer 	data[7] 	41162
scalar tree_4_3_u05_r14_network.node[7].content_store 	p_hit[7] 	0.080834245137664
scalar tree_4_3_u05_r14_network.node[7].content_store 	hits[7] 	3620
scalar tree_4_3_u05_r14_network.node[7].content_store 	misses[7] 	41163
scalar tree_4_3_u05_r14_network.node[7].content_store 	decision_yes[7] 	83
scalar tree_4_3_u05_r14_network.node[7].content_store 	decision_no[7] 	41079
scalar tree_4_3_u05_r14_network.node[7].content_store 	decision_ratio[7] 	0.0020164229143385
scalar tree_4_3_u05_r14_network.node[8].core_layer 	interests[8] 	27905
scalar tree_4_3_u05_r14_network.node[8].core_layer 	data[8] 	25017
scalar tree_4_3_u05_r14_network.node[8].content_store 	p_hit[8] 	0.10349399749149
scalar tree_4_3_u05_r14_network.node[8].content_store 	hits[8] 	2888
scalar tree_4_3_u05_r14_network.node[8].content_store 	misses[8] 	25017
scalar tree_4_3_u05_r14_network.node[8].content_store 	decision_yes[8] 	74
scalar tree_4_3_u05_r14_network.node[8].content_store 	decision_no[8] 	24943
scalar tree_4_3_u05_r14_network.node[8].content_store 	decision_ratio[8] 	0.0029579885677739
scalar tree_4_3_u05_r14_network.node[9].core_layer 	interests[9] 	10384
scalar tree_4_3_u05_r14_network.node[9].core_layer 	data[9] 	8593
scalar tree_4_3_u05_r14_network.node[9].content_store 	p_hit[9] 	0.17247688751926
scalar tree_4_3_u05_r14_network.node[9].content_store 	hits[9] 	1791
scalar tree_4_3_u05_r14_network.node[9].content_store 	misses[9] 	8593
scalar tree_4_3_u05_r14_network.node[9].content_store 	decision_yes[9] 	33
scalar tree_4_3_u05_r14_network.node[9].content_store 	decision_no[9] 	8560
scalar tree_4_3_u05_r14_network.node[9].content_store 	decision_ratio[9] 	0.0038403351565228
scalar tree_4_3_u05_r14_network.node[10].core_layer 	interests[10] 	35136
scalar tree_4_3_u05_r14_network.node[10].core_layer 	data[10] 	32710
scalar tree_4_3_u05_r14_network.node[10].content_store 	p_hit[10] 	0.069074453551913
scalar tree_4_3_u05_r14_network.node[10].content_store 	hits[10] 	2427
scalar tree_4_3_u05_r14_network.node[10].content_store 	misses[10] 	32709
scalar tree_4_3_u05_r14_network.node[10].content_store 	decision_yes[10] 	71
scalar tree_4_3_u05_r14_network.node[10].content_store 	decision_no[10] 	32639
scalar tree_4_3_u05_r14_network.node[10].content_store 	decision_ratio[10] 	0.0021705900336289
scalar tree_4_3_u05_r14_network.node[11].core_layer 	interests[11] 	18971
scalar tree_4_3_u05_r14_network.node[11].core_layer 	data[11] 	16440
scalar tree_4_3_u05_r14_network.node[11].content_store 	p_hit[11] 	0.13336144641822
scalar tree_4_3_u05_r14_network.node[11].content_store 	hits[11] 	2530
scalar tree_4_3_u05_r14_network.node[11].content_store 	misses[11] 	16441
scalar tree_4_3_u05_r14_network.node[11].content_store 	decision_yes[11] 	41
scalar tree_4_3_u05_r14_network.node[11].content_store 	decision_no[11] 	16399
scalar tree_4_3_u05_r14_network.node[11].content_store 	decision_ratio[11] 	0.0024939172749392
scalar tree_4_3_u05_r14_network.node[12].core_layer 	interests[12] 	27899
scalar tree_4_3_u05_r14_network.node[12].core_layer 	data[12] 	25377
scalar tree_4_3_u05_r14_network.node[12].content_store 	p_hit[12] 	0.090361661708305
scalar tree_4_3_u05_r14_network.node[12].content_store 	hits[12] 	2521
scalar tree_4_3_u05_r14_network.node[12].content_store 	misses[12] 	25378
scalar tree_4_3_u05_r14_network.node[12].content_store 	decision_yes[12] 	87
scalar tree_4_3_u05_r14_network.node[12].content_store 	decision_no[12] 	25290
scalar tree_4_3_u05_r14_network.node[12].content_store 	decision_ratio[12] 	0.003428301217638
scalar tree_4_3_u05_r14_network.node[13].core_layer 	interests[13] 	12558
scalar tree_4_3_u05_r14_network.node[13].core_layer 	data[13] 	8814
scalar tree_4_3_u05_r14_network.node[13].content_store 	p_hit[13] 	0.29813664596273
scalar tree_4_3_u05_r14_network.node[13].content_store 	hits[13] 	3744
scalar tree_4_3_u05_r14_network.node[13].content_store 	misses[13] 	8814
scalar tree_4_3_u05_r14_network.node[13].content_store 	decision_yes[13] 	25
scalar tree_4_3_u05_r14_network.node[13].content_store 	decision_no[13] 	8789
scalar tree_4_3_u05_r14_network.node[13].content_store 	decision_ratio[13] 	0.0028363966417064
scalar tree_4_3_u05_r14_network.node[14].core_layer 	interests[14] 	12845
scalar tree_4_3_u05_r14_network.node[14].core_layer 	data[14] 	8647
scalar tree_4_3_u05_r14_network.node[14].content_store 	p_hit[14] 	0.32681977423122
scalar tree_4_3_u05_r14_network.node[14].content_store 	hits[14] 	4198
scalar tree_4_3_u05_r14_network.node[14].content_store 	misses[14] 	8647
scalar tree_4_3_u05_r14_network.node[14].content_store 	decision_yes[14] 	26
scalar tree_4_3_u05_r14_network.node[14].content_store 	decision_no[14] 	8621
scalar tree_4_3_u05_r14_network.node[14].content_store 	decision_ratio[14] 	0.0030068231756679
scalar tree_4_3_u05_r14_network.node[15].core_layer 	interests[15] 	12604
scalar tree_4_3_u05_r14_network.node[15].core_layer 	data[15] 	8809
scalar tree_4_3_u05_r14_network.node[15].content_store 	p_hit[15] 	0.30109489051095
scalar tree_4_3_u05_r14_network.node[15].content_store 	hits[15] 	3795
scalar tree_4_3_u05_r14_network.node[15].content_store 	misses[15] 	8809
scalar tree_4_3_u05_r14_network.node[15].content_store 	decision_yes[15] 	26
scalar tree_4_3_u05_r14_network.node[15].content_store 	decision_no[15] 	8783
scalar tree_4_3_u05_r14_network.node[15].content_store 	decision_ratio[15] 	0.0029515268475423
scalar tree_4_3_u05_r14_network.node[16].core_layer 	interests[16] 	12887
scalar tree_4_3_u05_r14_network.node[16].core_layer 	data[16] 	8837
scalar tree_4_3_u05_r14_network.node[16].content_store 	p_hit[16] 	0.31419259719097
scalar tree_4_3_u05_r14_network.node[16].content_store 	hits[16] 	4049
scalar tree_4_3_u05_r14_network.node[16].content_store 	misses[16] 	8838
scalar tree_4_3_u05_r14_network.node[16].content_store 	decision_yes[16] 	22
scalar tree_4_3_u05_r14_network.node[16].content_store 	decision_no[16] 	8815
scalar tree_4_3_u05_r14_network.node[16].content_store 	decision_ratio[16] 	0.0024895326468258
scalar tree_4_3_u05_r14_network.node[17].core_layer 	interests[17] 	12356
scalar tree_4_3_u05_r14_network.node[17].core_layer 	data[17] 	8730
scalar tree_4_3_u05_r14_network.node[17].content_store 	p_hit[17] 	0.29346066688249
scalar tree_4_3_u05_r14_network.node[17].content_store 	hits[17] 	3626
scalar tree_4_3_u05_r14_network.node[17].content_store 	misses[17] 	8730
scalar tree_4_3_u05_r14_network.node[17].content_store 	decision_yes[17] 	28
scalar tree_4_3_u05_r14_network.node[17].content_store 	decision_no[17] 	8702
scalar tree_4_3_u05_r14_network.node[17].content_store 	decision_ratio[17] 	0.0032073310423826
scalar tree_4_3_u05_r14_network.node[18].core_layer 	interests[18] 	12428
scalar tree_4_3_u05_r14_network.node[18].core_layer 	data[18] 	8676
scalar tree_4_3_u05_r14_network.node[18].content_store 	p_hit[18] 	0.3018989378822
scalar tree_4_3_u05_r14_network.node[18].content_store 	hits[18] 	3752
scalar tree_4_3_u05_r14_network.node[18].content_store 	misses[18] 	8676
scalar tree_4_3_u05_r14_network.node[18].content_store 	decision_yes[18] 	23
scalar tree_4_3_u05_r14_network.node[18].content_store 	decision_no[18] 	8653
scalar tree_4_3_u05_r14_network.node[18].content_store 	decision_ratio[18] 	0.0026509912402029
scalar tree_4_3_u05_r14_network.node[19].core_layer 	interests[19] 	12831
scalar tree_4_3_u05_r14_network.node[19].core_layer 	data[19] 	8834
scalar tree_4_3_u05_r14_network.node[19].content_store 	p_hit[19] 	0.31151118385161
scalar tree_4_3_u05_r14_network.node[19].content_store 	hits[19] 	3997
scalar tree_4_3_u05_r14_network.node[19].content_store 	misses[19] 	8834
scalar tree_4_3_u05_r14_network.node[19].content_store 	decision_yes[19] 	27
scalar tree_4_3_u05_r14_network.node[19].content_store 	decision_no[19] 	8807
scalar tree_4_3_u05_r14_network.node[19].content_store 	decision_ratio[19] 	0.0030563731039167
scalar tree_4_3_u05_r14_network.node[20].core_layer 	interests[20] 	12303
scalar tree_4_3_u05_r14_network.node[20].core_layer 	data[20] 	8646
scalar tree_4_3_u05_r14_network.node[20].content_store 	p_hit[20] 	0.29724457449403
scalar tree_4_3_u05_r14_network.node[20].content_store 	hits[20] 	3657
scalar tree_4_3_u05_r14_network.node[20].content_store 	misses[20] 	8646
scalar tree_4_3_u05_r14_network.node[20].content_store 	decision_yes[20] 	33
scalar tree_4_3_u05_r14_network.node[20].content_store 	decision_no[20] 	8613
scalar tree_4_3_u05_r14_network.node[20].content_store 	decision_ratio[20] 	0.0038167938931298
scalar tree_4_3_u05_r14_network.node[21].core_layer 	interests[21] 	12407
scalar tree_4_3_u05_r14_network.node[21].core_layer 	data[21] 	8715
scalar tree_4_3_u05_r14_network.node[21].content_store 	p_hit[21] 	0.29749335052793
scalar tree_4_3_u05_r14_network.node[21].content_store 	hits[21] 	3691
scalar tree_4_3_u05_r14_network.node[21].content_store 	misses[21] 	8716
scalar tree_4_3_u05_r14_network.node[21].content_store 	decision_yes[21] 	27
scalar tree_4_3_u05_r14_network.node[21].content_store 	decision_no[21] 	8688
scalar tree_4_3_u05_r14_network.node[21].content_store 	decision_ratio[21] 	0.0030981067125645
scalar tree_4_3_u05_r14_network.node[22].core_layer 	interests[22] 	12286
scalar tree_4_3_u05_r14_network.node[22].core_layer 	data[22] 	8616
scalar tree_4_3_u05_r14_network.node[22].content_store 	p_hit[22] 	0.29863258993977
scalar tree_4_3_u05_r14_network.node[22].content_store 	hits[22] 	3669
scalar tree_4_3_u05_r14_network.node[22].content_store 	misses[22] 	8617
scalar tree_4_3_u05_r14_network.node[22].content_store 	decision_yes[22] 	18
scalar tree_4_3_u05_r14_network.node[22].content_store 	decision_no[22] 	8598
scalar tree_4_3_u05_r14_network.node[22].content_store 	decision_ratio[22] 	0.0020891364902507
scalar tree_4_3_u05_r14_network.node[23].core_layer 	interests[23] 	13002
scalar tree_4_3_u05_r14_network.node[23].core_layer 	data[23] 	8864
scalar tree_4_3_u05_r14_network.node[23].content_store 	p_hit[23] 	0.31825872942624
scalar tree_4_3_u05_r14_network.node[23].content_store 	hits[23] 	4138
scalar tree_4_3_u05_r14_network.node[23].content_store 	misses[23] 	8864
scalar tree_4_3_u05_r14_network.node[23].content_store 	decision_yes[23] 	20
scalar tree_4_3_u05_r14_network.node[23].content_store 	decision_no[23] 	8844
scalar tree_4_3_u05_r14_network.node[23].content_store 	decision_ratio[23] 	0.0022563176895307
scalar tree_4_3_u05_r14_network.node[24].core_layer 	interests[24] 	12584
scalar tree_4_3_u05_r14_network.node[24].core_layer 	data[24] 	8812
scalar tree_4_3_u05_r14_network.node[24].content_store 	p_hit[24] 	0.29966624284806
scalar tree_4_3_u05_r14_network.node[24].content_store 	hits[24] 	3771
scalar tree_4_3_u05_r14_network.node[24].content_store 	misses[24] 	8813
scalar tree_4_3_u05_r14_network.node[24].content_store 	decision_yes[24] 	23
scalar tree_4_3_u05_r14_network.node[24].content_store 	decision_no[24] 	8789
scalar tree_4_3_u05_r14_network.node[24].content_store 	decision_ratio[24] 	0.0026100771674989
scalar tree_4_3_u05_r14_network.node[25].core_layer 	interests[25] 	13029
scalar tree_4_3_u05_r14_network.node[25].core_layer 	data[25] 	8827
scalar tree_4_3_u05_r14_network.node[25].content_store 	p_hit[25] 	0.32251132089953
scalar tree_4_3_u05_r14_network.node[25].content_store 	hits[25] 	4202
scalar tree_4_3_u05_r14_network.node[25].content_store 	misses[25] 	8827
scalar tree_4_3_u05_r14_network.node[25].content_store 	decision_yes[25] 	38
scalar tree_4_3_u05_r14_network.node[25].content_store 	decision_no[25] 	8789
scalar tree_4_3_u05_r14_network.node[25].content_store 	decision_ratio[25] 	0.0043049733771383
scalar tree_4_3_u05_r14_network.node[26].core_layer 	interests[26] 	12412
scalar tree_4_3_u05_r14_network.node[26].core_layer 	data[26] 	8771
scalar tree_4_3_u05_r14_network.node[26].content_store 	p_hit[26] 	0.29334514985498
scalar tree_4_3_u05_r14_network.node[26].content_store 	hits[26] 	3641
scalar tree_4_3_u05_r14_network.node[26].content_store 	misses[26] 	8771
scalar tree_4_3_u05_r14_network.node[26].content_store 	decision_yes[26] 	25
scalar tree_4_3_u05_r14_network.node[26].content_store 	decision_no[26] 	8746
scalar tree_4_3_u05_r14_network.node[26].content_store 	decision_ratio[26] 	0.002850302132026
scalar tree_4_3_u05_r14_network.node[27].core_layer 	interests[27] 	12452
scalar tree_4_3_u05_r14_network.node[27].core_layer 	data[27] 	8831
scalar tree_4_3_u05_r14_network.node[27].content_store 	p_hit[27] 	0.29079665917122
scalar tree_4_3_u05_r14_network.node[27].content_store 	hits[27] 	3621
scalar tree_4_3_u05_r14_network.node[27].content_store 	misses[27] 	8831
scalar tree_4_3_u05_r14_network.node[27].content_store 	decision_yes[27] 	23
scalar tree_4_3_u05_r14_network.node[27].content_store 	decision_no[27] 	8808
scalar tree_4_3_u05_r14_network.node[27].content_store 	decision_ratio[27] 	0.0026044615558827
scalar tree_4_3_u05_r14_network.node[28].core_layer 	interests[28] 	13026
scalar tree_4_3_u05_r14_network.node[28].core_layer 	data[28] 	8835
scalar tree_4_3_u05_r14_network.node[28].content_store 	p_hit[28] 	0.32166436358053
scalar tree_4_3_u05_r14_network.node[28].content_store 	hits[28] 	4190
scalar tree_4_3_u05_r14_network.node[28].content_store 	misses[28] 	8836
scalar tree_4_3_u05_r14_network.node[28].content_store 	decision_yes[28] 	29
scalar tree_4_3_u05_r14_network.node[28].content_store 	decision_no[28] 	8806
scalar tree_4_3_u05_r14_network.node[28].content_store 	decision_ratio[28] 	0.0032823995472552
scalar tree_4_3_u05_r14_network.node[29].core_layer 	interests[29] 	12659
scalar tree_4_3_u05_r14_network.node[29].core_layer 	data[29] 	8711
scalar tree_4_3_u05_r14_network.node[29].content_store 	p_hit[29] 	0.31195197092977
scalar tree_4_3_u05_r14_network.node[29].content_store 	hits[29] 	3949
scalar tree_4_3_u05_r14_network.node[29].content_store 	misses[29] 	8710
scalar tree_4_3_u05_r14_network.node[29].content_store 	decision_yes[29] 	27
scalar tree_4_3_u05_r14_network.node[29].content_store 	decision_no[29] 	8684
scalar tree_4_3_u05_r14_network.node[29].content_store 	decision_ratio[29] 	0.0030995293307313
scalar tree_4_3_u05_r14_network.node[30].core_layer 	interests[30] 	12096
scalar tree_4_3_u05_r14_network.node[30].core_layer 	data[30] 	8641
scalar tree_4_3_u05_r14_network.node[30].content_store 	p_hit[30] 	0.28563161375661
scalar tree_4_3_u05_r14_network.node[30].content_store 	hits[30] 	3455
scalar tree_4_3_u05_r14_network.node[30].content_store 	misses[30] 	8641
scalar tree_4_3_u05_r14_network.node[30].content_store 	decision_yes[30] 	29
scalar tree_4_3_u05_r14_network.node[30].content_store 	decision_no[30] 	8612
scalar tree_4_3_u05_r14_network.node[30].content_store 	decision_ratio[30] 	0.0033560930447865
scalar tree_4_3_u05_r14_network.node[31].core_layer 	interests[31] 	12600
scalar tree_4_3_u05_r14_network.node[31].core_layer 	data[31] 	8873
scalar tree_4_3_u05_r14_network.node[31].content_store 	p_hit[31] 	0.29587301587302
scalar tree_4_3_u05_r14_network.node[31].content_store 	hits[31] 	3728
scalar tree_4_3_u05_r14_network.node[31].content_store 	misses[31] 	8872
scalar tree_4_3_u05_r14_network.node[31].content_store 	decision_yes[31] 	28
scalar tree_4_3_u05_r14_network.node[31].content_store 	decision_no[31] 	8845
scalar tree_4_3_u05_r14_network.node[31].content_store 	decision_ratio[31] 	0.0031556407077651
scalar tree_4_3_u05_r14_network.node[32].core_layer 	interests[32] 	12627
scalar tree_4_3_u05_r14_network.node[32].core_layer 	data[32] 	8808
scalar tree_4_3_u05_r14_network.node[32].content_store 	p_hit[32] 	0.30244713708719
scalar tree_4_3_u05_r14_network.node[32].content_store 	hits[32] 	3819
scalar tree_4_3_u05_r14_network.node[32].content_store 	misses[32] 	8808
scalar tree_4_3_u05_r14_network.node[32].content_store 	decision_yes[32] 	35
scalar tree_4_3_u05_r14_network.node[32].content_store 	decision_no[32] 	8773
scalar tree_4_3_u05_r14_network.node[32].content_store 	decision_ratio[32] 	0.0039736603088102
scalar tree_4_3_u05_r14_network.node[33].core_layer 	interests[33] 	12421
scalar tree_4_3_u05_r14_network.node[33].core_layer 	data[33] 	8759
scalar tree_4_3_u05_r14_network.node[33].content_store 	p_hit[33] 	0.29474277433379
scalar tree_4_3_u05_r14_network.node[33].content_store 	hits[33] 	3661
scalar tree_4_3_u05_r14_network.node[33].content_store 	misses[33] 	8760
scalar tree_4_3_u05_r14_network.node[33].content_store 	decision_yes[33] 	28
scalar tree_4_3_u05_r14_network.node[33].content_store 	decision_no[33] 	8731
scalar tree_4_3_u05_r14_network.node[33].content_store 	decision_ratio[33] 	0.0031967119534193
scalar tree_4_3_u05_r14_network.node[34].core_layer 	interests[34] 	12740
scalar tree_4_3_u05_r14_network.node[34].core_layer 	data[34] 	8786
scalar tree_4_3_u05_r14_network.node[34].content_store 	p_hit[34] 	0.31036106750392
scalar tree_4_3_u05_r14_network.node[34].content_store 	hits[34] 	3954
scalar tree_4_3_u05_r14_network.node[34].content_store 	misses[34] 	8786
scalar tree_4_3_u05_r14_network.node[34].content_store 	decision_yes[34] 	24
scalar tree_4_3_u05_r14_network.node[34].content_store 	decision_no[34] 	8762
scalar tree_4_3_u05_r14_network.node[34].content_store 	decision_ratio[34] 	0.0027316184839517
scalar tree_4_3_u05_r14_network.node[35].core_layer 	interests[35] 	12274
scalar tree_4_3_u05_r14_network.node[35].core_layer 	data[35] 	8728
scalar tree_4_3_u05_r14_network.node[35].content_store 	p_hit[35] 	0.28890337298354
scalar tree_4_3_u05_r14_network.node[35].content_store 	hits[35] 	3546
scalar tree_4_3_u05_r14_network.node[35].content_store 	misses[35] 	8728
scalar tree_4_3_u05_r14_network.node[35].content_store 	decision_yes[35] 	32
scalar tree_4_3_u05_r14_network.node[35].content_store 	decision_no[35] 	8696
scalar tree_4_3_u05_r14_network.node[35].content_store 	decision_ratio[35] 	0.003666361136572
scalar tree_4_3_u05_r14_network.node[36].core_layer 	interests[36] 	12807
scalar tree_4_3_u05_r14_network.node[36].core_layer 	data[36] 	8760
scalar tree_4_3_u05_r14_network.node[36].content_store 	p_hit[36] 	0.31592098071367
scalar tree_4_3_u05_r14_network.node[36].content_store 	hits[36] 	4046
scalar tree_4_3_u05_r14_network.node[36].content_store 	misses[36] 	8761
scalar tree_4_3_u05_r14_network.node[36].content_store 	decision_yes[36] 	34
scalar tree_4_3_u05_r14_network.node[36].content_store 	decision_no[36] 	8726
scalar tree_4_3_u05_r14_network.node[36].content_store 	decision_ratio[36] 	0.0038812785388128
scalar tree_4_3_u05_r14_network.node[37].core_layer 	interests[37] 	12617
scalar tree_4_3_u05_r14_network.node[37].core_layer 	data[37] 	8869
scalar tree_4_3_u05_r14_network.node[37].content_store 	p_hit[37] 	0.2969802647222
scalar tree_4_3_u05_r14_network.node[37].content_store 	hits[37] 	3747
scalar tree_4_3_u05_r14_network.node[37].content_store 	misses[37] 	8870
scalar tree_4_3_u05_r14_network.node[37].content_store 	decision_yes[37] 	26
scalar tree_4_3_u05_r14_network.node[37].content_store 	decision_no[37] 	8843
scalar tree_4_3_u05_r14_network.node[37].content_store 	decision_ratio[37] 	0.0029315593640771
scalar tree_4_3_u05_r14_network.node[38].core_layer 	interests[38] 	12454
scalar tree_4_3_u05_r14_network.node[38].core_layer 	data[38] 	8708
scalar tree_4_3_u05_r14_network.node[38].content_store 	p_hit[38] 	0.30086719126385
scalar tree_4_3_u05_r14_network.node[38].content_store 	hits[38] 	3747
scalar tree_4_3_u05_r14_network.node[38].content_store 	misses[38] 	8707
scalar tree_4_3_u05_r14_network.node[38].content_store 	decision_yes[38] 	26
scalar tree_4_3_u05_r14_network.node[38].content_store 	decision_no[38] 	8682
scalar tree_4_3_u05_r14_network.node[38].content_store 	decision_ratio[38] 	0.0029857602204869
scalar tree_4_3_u05_r14_network.node[39].core_layer 	interests[39] 	12559
scalar tree_4_3_u05_r14_network.node[39].core_layer 	data[39] 	8868
scalar tree_4_3_u05_r14_network.node[39].content_store 	p_hit[39] 	0.29373357751413
scalar tree_4_3_u05_r14_network.node[39].content_store 	hits[39] 	3689
scalar tree_4_3_u05_r14_network.node[39].content_store 	misses[39] 	8870
scalar tree_4_3_u05_r14_network.node[39].content_store 	decision_yes[39] 	23
scalar tree_4_3_u05_r14_network.node[39].content_store 	decision_no[39] 	8845
scalar tree_4_3_u05_r14_network.node[39].content_store 	decision_ratio[39] 	0.0025935949481281
scalar tree_4_3_u05_r14_network.client[13] 	hdistance[13] 	2.6222589987588
scalar tree_4_3_u05_r14_network.client[13] 	downloads[13] 	12085
scalar tree_4_3_u05_r14_network.client[13] 	avg_time[13] 	0.004104493458
scalar tree_4_3_u05_r14_network.client[14] 	hdistance[14] 	2.5369370888851
scalar tree_4_3_u05_r14_network.client[14] 	downloads[14] 	11858
scalar tree_4_3_u05_r14_network.client[14] 	avg_time[14] 	0.003967553608
scalar tree_4_3_u05_r14_network.client[15] 	hdistance[15] 	2.6236107680909
scalar tree_4_3_u05_r14_network.client[15] 	downloads[15] 	12147
scalar tree_4_3_u05_r14_network.client[15] 	avg_time[15] 	0.004101091913
scalar tree_4_3_u05_r14_network.client[16] 	hdistance[16] 	2.5727432443738
scalar tree_4_3_u05_r14_network.client[16] 	downloads[16] 	11953
scalar tree_4_3_u05_r14_network.client[16] 	avg_time[16] 	0.00403185627
scalar tree_4_3_u05_r14_network.client[17] 	hdistance[17] 	2.6271797451375
scalar tree_4_3_u05_r14_network.client[17] 	downloads[17] 	11928
scalar tree_4_3_u05_r14_network.client[17] 	avg_time[17] 	0.004129104978
scalar tree_4_3_u05_r14_network.client[18] 	hdistance[18] 	2.608158838742
scalar tree_4_3_u05_r14_network.client[18] 	downloads[18] 	11987
scalar tree_4_3_u05_r14_network.client[18] 	avg_time[18] 	0.004096101103
scalar tree_4_3_u05_r14_network.client[19] 	hdistance[19] 	2.6342938754936
scalar tree_4_3_u05_r14_network.client[19] 	downloads[19] 	11903
scalar tree_4_3_u05_r14_network.client[19] 	avg_time[19] 	0.004104508479
scalar tree_4_3_u05_r14_network.client[20] 	hdistance[20] 	2.6339600470035
scalar tree_4_3_u05_r14_network.client[20] 	downloads[20] 	11914
scalar tree_4_3_u05_r14_network.client[20] 	avg_time[20] 	0.004130263912
scalar tree_4_3_u05_r14_network.client[21] 	hdistance[21] 	2.6356134994637
scalar tree_4_3_u05_r14_network.client[21] 	downloads[21] 	12119
scalar tree_4_3_u05_r14_network.client[21] 	avg_time[21] 	0.004123604529
scalar tree_4_3_u05_r14_network.client[22] 	hdistance[22] 	2.6185138004246
scalar tree_4_3_u05_r14_network.client[22] 	downloads[22] 	11775
scalar tree_4_3_u05_r14_network.client[22] 	avg_time[22] 	0.004111936676
scalar tree_4_3_u05_r14_network.client[23] 	hdistance[23] 	2.5761572921852
scalar tree_4_3_u05_r14_network.client[23] 	downloads[23] 	12054
scalar tree_4_3_u05_r14_network.client[23] 	avg_time[23] 	0.004019907428
scalar tree_4_3_u05_r14_network.client[24] 	hdistance[24] 	2.620752679239
scalar tree_4_3_u05_r14_network.client[24] 	downloads[24] 	12037
scalar tree_4_3_u05_r14_network.client[24] 	avg_time[24] 	0.004113646563
scalar tree_4_3_u05_r14_network.client[25] 	hdistance[25] 	2.5566616890659
scalar tree_4_3_u05_r14_network.client[25] 	downloads[25] 	12054
scalar tree_4_3_u05_r14_network.client[25] 	avg_time[25] 	0.003995849
scalar tree_4_3_u05_r14_network.client[26] 	hdistance[26] 	2.6386617720674
scalar tree_4_3_u05_r14_network.client[26] 	downloads[26] 	11986
scalar tree_4_3_u05_r14_network.client[26] 	avg_time[26] 	0.004113796432
scalar tree_4_3_u05_r14_network.client[27] 	hdistance[27] 	2.630787037037
scalar tree_4_3_u05_r14_network.client[27] 	downloads[27] 	12096
scalar tree_4_3_u05_r14_network.client[27] 	avg_time[27] 	0.004107470519
scalar tree_4_3_u05_r14_network.client[28] 	hdistance[28] 	2.5552976289173
scalar tree_4_3_u05_r14_network.client[28] 	downloads[28] 	12062
scalar tree_4_3_u05_r14_network.client[28] 	avg_time[28] 	0.003999997708
scalar tree_4_3_u05_r14_network.client[29] 	hdistance[29] 	2.5745445428715
scalar tree_4_3_u05_r14_network.client[29] 	downloads[29] 	11966
scalar tree_4_3_u05_r14_network.client[29] 	avg_time[29] 	0.004005178341
scalar tree_4_3_u05_r14_network.client[30] 	hdistance[30] 	2.6523969722456
scalar tree_4_3_u05_r14_network.client[30] 	downloads[30] 	11890
scalar tree_4_3_u05_r14_network.client[30] 	avg_time[30] 	0.004150880123
scalar tree_4_3_u05_r14_network.client[31] 	hdistance[31] 	2.6544002634395
scalar tree_4_3_u05_r14_network.client[31] 	downloads[31] 	12147
scalar tree_4_3_u05_r14_network.client[31] 	avg_time[31] 	0.004132046018
scalar tree_4_3_u05_r14_network.client[32] 	hdistance[32] 	2.6159034138218
scalar tree_4_3_u05_r14_network.client[32] 	downloads[32] 	12010
scalar tree_4_3_u05_r14_network.client[32] 	avg_time[32] 	0.004043960368
scalar tree_4_3_u05_r14_network.client[33] 	hdistance[33] 	2.6564115391029
scalar tree_4_3_u05_r14_network.client[33] 	downloads[33] 	11994
scalar tree_4_3_u05_r14_network.client[33] 	avg_time[33] 	0.004128894766
scalar tree_4_3_u05_r14_network.client[34] 	hdistance[34] 	2.609162848813
scalar tree_4_3_u05_r14_network.client[34] 	downloads[34] 	12005
scalar tree_4_3_u05_r14_network.client[34] 	avg_time[34] 	0.004029151508
scalar tree_4_3_u05_r14_network.client[35] 	hdistance[35] 	2.6612781640003
scalar tree_4_3_u05_r14_network.client[35] 	downloads[35] 	11939
scalar tree_4_3_u05_r14_network.client[35] 	avg_time[35] 	0.00413115571
scalar tree_4_3_u05_r14_network.client[36] 	hdistance[36] 	2.5716064757161
scalar tree_4_3_u05_r14_network.client[36] 	downloads[36] 	12045
scalar tree_4_3_u05_r14_network.client[36] 	avg_time[36] 	0.003983724658
scalar tree_4_3_u05_r14_network.client[37] 	hdistance[37] 	2.6479920674269
scalar tree_4_3_u05_r14_network.client[37] 	downloads[37] 	12102
scalar tree_4_3_u05_r14_network.client[37] 	avg_time[37] 	0.004120638183
scalar tree_4_3_u05_r14_network.client[38] 	hdistance[38] 	2.6319277607489
scalar tree_4_3_u05_r14_network.client[38] 	downloads[38] 	12071
scalar tree_4_3_u05_r14_network.client[38] 	avg_time[38] 	0.004085656845
scalar tree_4_3_u05_r14_network.client[39] 	hdistance[39] 	2.6526975746576
scalar tree_4_3_u05_r14_network.client[39] 	downloads[39] 	12122
scalar tree_4_3_u05_r14_network.client[39] 	avg_time[39] 	0.004127863625
