version 2
run General-40-20160824-01:40:49-9702
attr D ffc
attr F spr
attr R lru
attr a 0.9
attr configname General
attr datetime 20160824-01:40:49
attr experiment General
attr inifile hw5115/scenario_C/omnetp.ini
attr iterationvars "$net=dtelecom, $rep=5, $a=0.9, $F=spr, $D=ffc, $R=lru, $window=60, $variance=0.05, $mytime=600"
attr iterationvars2 "$net=dtelecom, $rep=5, $a=0.9, $F=spr, $D=ffc, $R=lru, $window=60, $variance=0.05, $mytime=600, $repetition=0"
attr measurement "$net=dtelecom, $rep=5, $a=0.9, $F=spr, $D=ffc, $R=lru, $window=60, $variance=0.05, $mytime=600"
attr mytime 600
attr net dtelecom
attr network networks.${net=dtelecom}_network
attr processid 9702
attr rep 5
attr repetition 0
attr replication #0
attr resultdir results
attr runnumber 40
attr seedset 5
attr variance 0.05
attr window 60

scalar . 	a 	0.9
scalar . 	mytime 	600
scalar . 	rep 	5
scalar . 	variance 	0.05
scalar . 	window 	60
scalar dtelecom_network.content_distribution 	repo-0 	41
scalar dtelecom_network.content_distribution 	repo-1 	65
scalar dtelecom_network.content_distribution 	repo-2 	31
scalar dtelecom_network.content_distribution 	repo-3 	4
scalar dtelecom_network.content_distribution 	repo-4 	16
scalar dtelecom_network.content_distribution 	repo-5 	30
scalar dtelecom_network.content_distribution 	repo-6 	58
scalar dtelecom_network.content_distribution 	repo-7 	18
scalar dtelecom_network.content_distribution 	repo-8 	32
scalar dtelecom_network.content_distribution 	repo-9 	34
scalar dtelecom_network.content_distribution 	repo-10 	0
scalar dtelecom_network.content_distribution 	repo-11 	28
scalar dtelecom_network.content_distribution 	repo-12 	59
scalar dtelecom_network.content_distribution 	repo-13 	8
scalar dtelecom_network.content_distribution 	repo-14 	37
scalar dtelecom_network.content_distribution 	repo-15 	17
scalar dtelecom_network.content_distribution 	client-0 	46
scalar dtelecom_network.content_distribution 	client-1 	30
scalar dtelecom_network.content_distribution 	client-2 	8
scalar dtelecom_network.content_distribution 	client-3 	49
scalar dtelecom_network.content_distribution 	client-4 	66
scalar dtelecom_network.content_distribution 	client-5 	58
scalar dtelecom_network.content_distribution 	client-6 	32
scalar dtelecom_network.content_distribution 	client-7 	40
scalar dtelecom_network.content_distribution 	client-8 	42
scalar dtelecom_network.content_distribution 	client-9 	45
scalar dtelecom_network.content_distribution 	client-10 	33
scalar dtelecom_network.content_distribution 	client-11 	28
scalar dtelecom_network.content_distribution 	client-12 	3
scalar dtelecom_network.content_distribution 	client-13 	57
scalar dtelecom_network.content_distribution 	client-14 	50
scalar dtelecom_network.content_distribution 	client-15 	17
scalar dtelecom_network.content_distribution 	client-16 	59
scalar dtelecom_network.content_distribution 	client-17 	48
scalar dtelecom_network.content_distribution 	client-18 	23
scalar dtelecom_network.content_distribution 	client-19 	22
scalar dtelecom_network.content_distribution 	client-20 	67
scalar dtelecom_network.content_distribution 	client-21 	62
scalar dtelecom_network.content_distribution 	client-22 	56
scalar dtelecom_network.content_distribution 	client-23 	55
scalar dtelecom_network.content_distribution 	client-24 	53
scalar dtelecom_network.content_distribution 	client-25 	36
scalar dtelecom_network.content_distribution 	client-26 	51
scalar dtelecom_network.content_distribution 	client-27 	37
scalar dtelecom_network.content_distribution 	client-28 	54
scalar dtelecom_network.content_distribution 	client-29 	4
scalar dtelecom_network.content_distribution 	client-30 	31
scalar dtelecom_network.content_distribution 	client-31 	9
scalar dtelecom_network.content_distribution 	repo-0_card 	6289
scalar dtelecom_network.content_distribution 	repo-0_price 	0
scalar dtelecom_network.content_distribution 	repo-1_card 	6243
scalar dtelecom_network.content_distribution 	repo-1_price 	0
scalar dtelecom_network.content_distribution 	repo-2_card 	6284
scalar dtelecom_network.content_distribution 	repo-2_price 	0
scalar dtelecom_network.content_distribution 	repo-3_card 	6071
scalar dtelecom_network.content_distribution 	repo-3_price 	0
scalar dtelecom_network.content_distribution 	repo-4_card 	6173
scalar dtelecom_network.content_distribution 	repo-4_price 	0
scalar dtelecom_network.content_distribution 	repo-5_card 	6278
scalar dtelecom_network.content_distribution 	repo-5_price 	0
scalar dtelecom_network.content_distribution 	repo-6_card 	6354
scalar dtelecom_network.content_distribution 	repo-6_price 	0
scalar dtelecom_network.content_distribution 	repo-7_card 	6254
scalar dtelecom_network.content_distribution 	repo-7_price 	0
scalar dtelecom_network.content_distribution 	repo-8_card 	6276
scalar dtelecom_network.content_distribution 	repo-8_price 	0
scalar dtelecom_network.content_distribution 	repo-9_card 	6208
scalar dtelecom_network.content_distribution 	repo-9_price 	0
scalar dtelecom_network.content_distribution 	repo-10_card 	6278
scalar dtelecom_network.content_distribution 	repo-10_price 	0
scalar dtelecom_network.content_distribution 	repo-11_card 	6229
scalar dtelecom_network.content_distribution 	repo-11_price 	0
scalar dtelecom_network.content_distribution 	repo-12_card 	6192
scalar dtelecom_network.content_distribution 	repo-12_price 	0
scalar dtelecom_network.content_distribution 	repo-13_card 	6316
scalar dtelecom_network.content_distribution 	repo-13_price 	0
scalar dtelecom_network.content_distribution 	repo-14_card 	6239
scalar dtelecom_network.content_distribution 	repo-14_price 	0
scalar dtelecom_network.content_distribution 	repo-15_card 	6316
scalar dtelecom_network.content_distribution 	repo-15_price 	0
scalar dtelecom_network.statistics 	stabilization_time 	4678.7
scalar dtelecom_network.statistics 	p_hit 	0.25085674116251
scalar dtelecom_network.statistics 	interests 	13121.294117647
scalar dtelecom_network.statistics 	data 	7474.4264705882
scalar dtelecom_network.statistics 	hdistance 	1.8532948540898
scalar dtelecom_network.statistics 	avg_time 	0.021179454394
scalar dtelecom_network.statistics 	downloads 	383973
scalar dtelecom_network.statistics 	total_cost 	0
scalar dtelecom_network.statistics 	total_replicas 	100000
scalar dtelecom_network.statistics 	inner_hit 	0.47050443650986
scalar dtelecom_network.node[0].core_layer 	interests[0] 	16725
scalar dtelecom_network.node[0].core_layer 	repo_load[0] 	12524
scalar dtelecom_network.node[0].core_layer 	data[0] 	0
scalar dtelecom_network.node[0].core_layer 	repo_int[0] 	203312
scalar dtelecom_network.node[0].content_store 	p_hit[0] 	0.25118086696562
scalar dtelecom_network.node[0].content_store 	hits[0] 	4201
scalar dtelecom_network.node[0].content_store 	misses[0] 	12524
scalar dtelecom_network.node[0].content_store 	decision_yes[0] 	689
scalar dtelecom_network.node[0].content_store 	decision_no[0] 	11835
scalar dtelecom_network.node[0].content_store 	decision_ratio[0] 	0.055014372404982
scalar dtelecom_network.node[1].core_layer 	interests[1] 	188693
scalar dtelecom_network.node[1].core_layer 	data[1] 	175971
scalar dtelecom_network.node[1].content_store 	p_hit[1] 	0.067294494231371
scalar dtelecom_network.node[1].content_store 	hits[1] 	12698
scalar dtelecom_network.node[1].content_store 	misses[1] 	175995
scalar dtelecom_network.node[1].content_store 	decision_yes[1] 	2247
scalar dtelecom_network.node[1].content_store 	decision_no[1] 	173724
scalar dtelecom_network.node[1].content_store 	decision_ratio[1] 	0.012769149462127
scalar dtelecom_network.node[2].core_layer 	interests[2] 	9030
scalar dtelecom_network.node[2].core_layer 	data[2] 	7012
scalar dtelecom_network.node[2].content_store 	p_hit[2] 	0.2233665559247
scalar dtelecom_network.node[2].content_store 	hits[2] 	2017
scalar dtelecom_network.node[2].content_store 	misses[2] 	7013
scalar dtelecom_network.node[2].content_store 	decision_yes[2] 	176
scalar dtelecom_network.node[2].content_store 	decision_no[2] 	6836
scalar dtelecom_network.node[2].content_store 	decision_ratio[2] 	0.025099828864803
scalar dtelecom_network.node[3].core_layer 	interests[3] 	12024
scalar dtelecom_network.node[3].core_layer 	data[3] 	8617
scalar dtelecom_network.node[3].content_store 	p_hit[3] 	0.28351630073187
scalar dtelecom_network.node[3].content_store 	hits[3] 	3409
scalar dtelecom_network.node[3].content_store 	misses[3] 	8615
scalar dtelecom_network.node[3].content_store 	decision_yes[3] 	144
scalar dtelecom_network.node[3].content_store 	decision_no[3] 	8473
scalar dtelecom_network.node[3].content_store 	decision_ratio[3] 	0.016711152373216
scalar dtelecom_network.node[4].core_layer 	interests[4] 	61867
scalar dtelecom_network.node[4].core_layer 	repo_load[4] 	13799
scalar dtelecom_network.node[4].core_layer 	data[4] 	37219
scalar dtelecom_network.node[4].content_store 	p_hit[4] 	0.17523073690336
scalar dtelecom_network.node[4].content_store 	hits[4] 	10841
scalar dtelecom_network.node[4].content_store 	misses[4] 	51026
scalar dtelecom_network.node[4].content_store 	decision_yes[4] 	796
scalar dtelecom_network.node[4].content_store 	decision_no[4] 	50222
scalar dtelecom_network.node[4].content_store 	decision_ratio[4] 	0.01560233643028
scalar dtelecom_network.node[5].core_layer 	interests[5] 	0
scalar dtelecom_network.node[5].core_layer 	data[5] 	0
scalar dtelecom_network.node[5].content_store 	p_hit[5] 	-nan
scalar dtelecom_network.node[5].content_store 	hits[5] 	0
scalar dtelecom_network.node[5].content_store 	misses[5] 	0
scalar dtelecom_network.node[5].content_store 	decision_yes[5] 	0
scalar dtelecom_network.node[5].content_store 	decision_no[5] 	0
scalar dtelecom_network.node[5].content_store 	decision_ratio[5] 	0
scalar dtelecom_network.node[6].core_layer 	interests[6] 	0
scalar dtelecom_network.node[6].core_layer 	data[6] 	0
scalar dtelecom_network.node[6].content_store 	p_hit[6] 	-nan
scalar dtelecom_network.node[6].content_store 	hits[6] 	0
scalar dtelecom_network.node[6].content_store 	misses[6] 	0
scalar dtelecom_network.node[6].content_store 	decision_yes[6] 	0
scalar dtelecom_network.node[6].content_store 	decision_no[6] 	0
scalar dtelecom_network.node[6].content_store 	decision_ratio[6] 	0
scalar dtelecom_network.node[7].core_layer 	interests[7] 	0
scalar dtelecom_network.node[7].core_layer 	data[7] 	0
scalar dtelecom_network.node[7].content_store 	p_hit[7] 	-nan
scalar dtelecom_network.node[7].content_store 	hits[7] 	0
scalar dtelecom_network.node[7].content_store 	misses[7] 	0
scalar dtelecom_network.node[7].content_store 	decision_yes[7] 	0
scalar dtelecom_network.node[7].content_store 	decision_no[7] 	0
scalar dtelecom_network.node[7].content_store 	decision_ratio[7] 	0
scalar dtelecom_network.node[8].core_layer 	interests[8] 	27371
scalar dtelecom_network.node[8].core_layer 	repo_load[8] 	12408
scalar dtelecom_network.node[8].core_layer 	data[8] 	9193
scalar dtelecom_network.node[8].content_store 	p_hit[8] 	0.21084359358445
scalar dtelecom_network.node[8].content_store 	hits[8] 	5771
scalar dtelecom_network.node[8].content_store 	misses[8] 	21600
scalar dtelecom_network.node[8].content_store 	decision_yes[8] 	539
scalar dtelecom_network.node[8].content_store 	decision_no[8] 	21062
scalar dtelecom_network.node[8].content_store 	decision_ratio[8] 	0.024952548493125
scalar dtelecom_network.node[9].core_layer 	interests[9] 	12470
scalar dtelecom_network.node[9].core_layer 	data[9] 	9169
scalar dtelecom_network.node[9].content_store 	p_hit[9] 	0.26487570168404
scalar dtelecom_network.node[9].content_store 	hits[9] 	3303
scalar dtelecom_network.node[9].content_store 	misses[9] 	9167
scalar dtelecom_network.node[9].content_store 	decision_yes[9] 	151
scalar dtelecom_network.node[9].content_store 	decision_no[9] 	9018
scalar dtelecom_network.node[9].content_store 	decision_ratio[9] 	0.016468535281928
scalar dtelecom_network.node[10].core_layer 	interests[10] 	0
scalar dtelecom_network.node[10].core_layer 	data[10] 	0
scalar dtelecom_network.node[10].content_store 	p_hit[10] 	-nan
scalar dtelecom_network.node[10].content_store 	hits[10] 	0
scalar dtelecom_network.node[10].content_store 	misses[10] 	0
scalar dtelecom_network.node[10].content_store 	decision_yes[10] 	0
scalar dtelecom_network.node[10].content_store 	decision_no[10] 	0
scalar dtelecom_network.node[10].content_store 	decision_ratio[10] 	0
scalar dtelecom_network.node[11].core_layer 	interests[11] 	0
scalar dtelecom_network.node[11].core_layer 	data[11] 	0
scalar dtelecom_network.node[11].content_store 	p_hit[11] 	-nan
scalar dtelecom_network.node[11].content_store 	hits[11] 	0
scalar dtelecom_network.node[11].content_store 	misses[11] 	0
scalar dtelecom_network.node[11].content_store 	decision_yes[11] 	0
scalar dtelecom_network.node[11].content_store 	decision_no[11] 	0
scalar dtelecom_network.node[11].content_store 	decision_ratio[11] 	0
scalar dtelecom_network.node[12].core_layer 	interests[12] 	0
scalar dtelecom_network.node[12].core_layer 	data[12] 	0
scalar dtelecom_network.node[12].content_store 	p_hit[12] 	-nan
scalar dtelecom_network.node[12].content_store 	hits[12] 	0
scalar dtelecom_network.node[12].content_store 	misses[12] 	0
scalar dtelecom_network.node[12].content_store 	decision_yes[12] 	0
scalar dtelecom_network.node[12].content_store 	decision_no[12] 	0
scalar dtelecom_network.node[12].content_store 	decision_ratio[12] 	0
scalar dtelecom_network.node[13].core_layer 	interests[13] 	0
scalar dtelecom_network.node[13].core_layer 	data[13] 	0
scalar dtelecom_network.node[13].content_store 	p_hit[13] 	-nan
scalar dtelecom_network.node[13].content_store 	hits[13] 	0
scalar dtelecom_network.node[13].content_store 	misses[13] 	0
scalar dtelecom_network.node[13].content_store 	decision_yes[13] 	0
scalar dtelecom_network.node[13].content_store 	decision_no[13] 	0
scalar dtelecom_network.node[13].content_store 	decision_ratio[13] 	0
scalar dtelecom_network.node[14].core_layer 	interests[14] 	0
scalar dtelecom_network.node[14].core_layer 	data[14] 	0
scalar dtelecom_network.node[14].content_store 	p_hit[14] 	-nan
scalar dtelecom_network.node[14].content_store 	hits[14] 	0
scalar dtelecom_network.node[14].content_store 	misses[14] 	0
scalar dtelecom_network.node[14].content_store 	decision_yes[14] 	0
scalar dtelecom_network.node[14].content_store 	decision_no[14] 	0
scalar dtelecom_network.node[14].content_store 	decision_ratio[14] 	0
scalar dtelecom_network.node[15].core_layer 	interests[15] 	0
scalar dtelecom_network.node[15].core_layer 	data[15] 	0
scalar dtelecom_network.node[15].content_store 	p_hit[15] 	-nan
scalar dtelecom_network.node[15].content_store 	hits[15] 	0
scalar dtelecom_network.node[15].content_store 	misses[15] 	0
scalar dtelecom_network.node[15].content_store 	decision_yes[15] 	0
scalar dtelecom_network.node[15].content_store 	decision_no[15] 	0
scalar dtelecom_network.node[15].content_store 	decision_ratio[15] 	0
scalar dtelecom_network.node[16].core_layer 	interests[16] 	16166
scalar dtelecom_network.node[16].core_layer 	repo_load[16] 	12004
scalar dtelecom_network.node[16].core_layer 	data[16] 	0
scalar dtelecom_network.node[16].content_store 	p_hit[16] 	0.25745391562539
scalar dtelecom_network.node[16].content_store 	hits[16] 	4162
scalar dtelecom_network.node[16].content_store 	misses[16] 	12004
scalar dtelecom_network.node[16].content_store 	decision_yes[16] 	625
scalar dtelecom_network.node[16].content_store 	decision_no[16] 	11379
scalar dtelecom_network.node[16].content_store 	decision_ratio[16] 	0.052065978007331
scalar dtelecom_network.node[17].core_layer 	interests[17] 	29447
scalar dtelecom_network.node[17].core_layer 	repo_load[17] 	12998
scalar dtelecom_network.node[17].core_layer 	data[17] 	9761
scalar dtelecom_network.node[17].content_store 	p_hit[17] 	0.22705199171393
scalar dtelecom_network.node[17].content_store 	hits[17] 	6686
scalar dtelecom_network.node[17].content_store 	misses[17] 	22761
scalar dtelecom_network.node[17].content_store 	decision_yes[17] 	536
scalar dtelecom_network.node[17].content_store 	decision_no[17] 	22223
scalar dtelecom_network.node[17].content_store 	decision_ratio[17] 	0.023551122632805
scalar dtelecom_network.node[18].core_layer 	interests[18] 	15663
scalar dtelecom_network.node[18].core_layer 	repo_load[18] 	11447
scalar dtelecom_network.node[18].core_layer 	data[18] 	0
scalar dtelecom_network.node[18].content_store 	p_hit[18] 	0.26916938006768
scalar dtelecom_network.node[18].content_store 	hits[18] 	4216
scalar dtelecom_network.node[18].content_store 	misses[18] 	11447
scalar dtelecom_network.node[18].content_store 	decision_yes[18] 	495
scalar dtelecom_network.node[18].content_store 	decision_no[18] 	10952
scalar dtelecom_network.node[18].content_store 	decision_ratio[18] 	0.043242771031711
scalar dtelecom_network.node[19].core_layer 	interests[19] 	0
scalar dtelecom_network.node[19].core_layer 	data[19] 	0
scalar dtelecom_network.node[19].content_store 	p_hit[19] 	-nan
scalar dtelecom_network.node[19].content_store 	hits[19] 	0
scalar dtelecom_network.node[19].content_store 	misses[19] 	0
scalar dtelecom_network.node[19].content_store 	decision_yes[19] 	0
scalar dtelecom_network.node[19].content_store 	decision_no[19] 	0
scalar dtelecom_network.node[19].content_store 	decision_ratio[19] 	0
scalar dtelecom_network.node[20].core_layer 	interests[20] 	0
scalar dtelecom_network.node[20].core_layer 	data[20] 	0
scalar dtelecom_network.node[20].content_store 	p_hit[20] 	-nan
scalar dtelecom_network.node[20].content_store 	hits[20] 	0
scalar dtelecom_network.node[20].content_store 	misses[20] 	0
scalar dtelecom_network.node[20].content_store 	decision_yes[20] 	0
scalar dtelecom_network.node[20].content_store 	decision_no[20] 	0
scalar dtelecom_network.node[20].content_store 	decision_ratio[20] 	0
scalar dtelecom_network.node[21].core_layer 	interests[21] 	0
scalar dtelecom_network.node[21].core_layer 	data[21] 	0
scalar dtelecom_network.node[21].content_store 	p_hit[21] 	-nan
scalar dtelecom_network.node[21].content_store 	hits[21] 	0
scalar dtelecom_network.node[21].content_store 	misses[21] 	0
scalar dtelecom_network.node[21].content_store 	decision_yes[21] 	0
scalar dtelecom_network.node[21].content_store 	decision_no[21] 	0
scalar dtelecom_network.node[21].content_store 	decision_ratio[21] 	0
scalar dtelecom_network.node[22].core_layer 	interests[22] 	12087
scalar dtelecom_network.node[22].core_layer 	data[22] 	8730
scalar dtelecom_network.node[22].content_store 	p_hit[22] 	0.2777364110201
scalar dtelecom_network.node[22].content_store 	hits[22] 	3357
scalar dtelecom_network.node[22].content_store 	misses[22] 	8730
scalar dtelecom_network.node[22].content_store 	decision_yes[22] 	126
scalar dtelecom_network.node[22].content_store 	decision_no[22] 	8604
scalar dtelecom_network.node[22].content_store 	decision_ratio[22] 	0.014432989690722
scalar dtelecom_network.node[23].core_layer 	interests[23] 	23998
scalar dtelecom_network.node[23].core_layer 	data[23] 	20123
scalar dtelecom_network.node[23].content_store 	p_hit[23] 	0.16130510875906
scalar dtelecom_network.node[23].content_store 	hits[23] 	3871
scalar dtelecom_network.node[23].content_store 	misses[23] 	20127
scalar dtelecom_network.node[23].content_store 	decision_yes[23] 	269
scalar dtelecom_network.node[23].content_store 	decision_no[23] 	19854
scalar dtelecom_network.node[23].content_store 	decision_ratio[23] 	0.013367788103166
scalar dtelecom_network.node[24].core_layer 	interests[24] 	0
scalar dtelecom_network.node[24].core_layer 	data[24] 	0
scalar dtelecom_network.node[24].content_store 	p_hit[24] 	-nan
scalar dtelecom_network.node[24].content_store 	hits[24] 	0
scalar dtelecom_network.node[24].content_store 	misses[24] 	0
scalar dtelecom_network.node[24].content_store 	decision_yes[24] 	0
scalar dtelecom_network.node[24].content_store 	decision_no[24] 	0
scalar dtelecom_network.node[24].content_store 	decision_ratio[24] 	0
scalar dtelecom_network.node[25].core_layer 	interests[25] 	0
scalar dtelecom_network.node[25].core_layer 	data[25] 	0
scalar dtelecom_network.node[25].content_store 	p_hit[25] 	-nan
scalar dtelecom_network.node[25].content_store 	hits[25] 	0
scalar dtelecom_network.node[25].content_store 	misses[25] 	0
scalar dtelecom_network.node[25].content_store 	decision_yes[25] 	0
scalar dtelecom_network.node[25].content_store 	decision_no[25] 	0
scalar dtelecom_network.node[25].content_store 	decision_ratio[25] 	0
scalar dtelecom_network.node[26].core_layer 	interests[26] 	641
scalar dtelecom_network.node[26].core_layer 	data[26] 	351
scalar dtelecom_network.node[26].content_store 	p_hit[26] 	0.45241809672387
scalar dtelecom_network.node[26].content_store 	hits[26] 	290
scalar dtelecom_network.node[26].content_store 	misses[26] 	351
scalar dtelecom_network.node[26].content_store 	decision_yes[26] 	15
scalar dtelecom_network.node[26].content_store 	decision_no[26] 	336
scalar dtelecom_network.node[26].content_store 	decision_ratio[26] 	0.042735042735043
scalar dtelecom_network.node[27].core_layer 	interests[27] 	0
scalar dtelecom_network.node[27].core_layer 	data[27] 	0
scalar dtelecom_network.node[27].content_store 	p_hit[27] 	-nan
scalar dtelecom_network.node[27].content_store 	hits[27] 	0
scalar dtelecom_network.node[27].content_store 	misses[27] 	0
scalar dtelecom_network.node[27].content_store 	decision_yes[27] 	0
scalar dtelecom_network.node[27].content_store 	decision_no[27] 	0
scalar dtelecom_network.node[27].content_store 	decision_ratio[27] 	0
scalar dtelecom_network.node[28].core_layer 	interests[28] 	29928
scalar dtelecom_network.node[28].core_layer 	repo_load[28] 	13248
scalar dtelecom_network.node[28].core_layer 	data[28] 	9141
scalar dtelecom_network.node[28].content_store 	p_hit[28] 	0.25190457097033
scalar dtelecom_network.node[28].content_store 	hits[28] 	7539
scalar dtelecom_network.node[28].content_store 	misses[28] 	22389
scalar dtelecom_network.node[28].content_store 	decision_yes[28] 	698
scalar dtelecom_network.node[28].content_store 	decision_no[28] 	21691
scalar dtelecom_network.node[28].content_store 	decision_ratio[28] 	0.031176023940328
scalar dtelecom_network.node[29].core_layer 	interests[29] 	0
scalar dtelecom_network.node[29].core_layer 	data[29] 	0
scalar dtelecom_network.node[29].content_store 	p_hit[29] 	-nan
scalar dtelecom_network.node[29].content_store 	hits[29] 	0
scalar dtelecom_network.node[29].content_store 	misses[29] 	0
scalar dtelecom_network.node[29].content_store 	decision_yes[29] 	0
scalar dtelecom_network.node[29].content_store 	decision_no[29] 	0
scalar dtelecom_network.node[29].content_store 	decision_ratio[29] 	0
scalar dtelecom_network.node[30].core_layer 	interests[30] 	29325
scalar dtelecom_network.node[30].core_layer 	repo_load[30] 	13653
scalar dtelecom_network.node[30].core_layer 	data[30] 	9289
scalar dtelecom_network.node[30].content_store 	p_hit[30] 	0.21763000852515
scalar dtelecom_network.node[30].content_store 	hits[30] 	6382
scalar dtelecom_network.node[30].content_store 	misses[30] 	22943
scalar dtelecom_network.node[30].content_store 	decision_yes[30] 	692
scalar dtelecom_network.node[30].content_store 	decision_no[30] 	22250
scalar dtelecom_network.node[30].content_store 	decision_ratio[30] 	0.030163019789033
scalar dtelecom_network.node[31].core_layer 	interests[31] 	28928
scalar dtelecom_network.node[31].core_layer 	repo_load[31] 	12897
scalar dtelecom_network.node[31].core_layer 	data[31] 	9200
scalar dtelecom_network.node[31].content_store 	p_hit[31] 	0.23610342920354
scalar dtelecom_network.node[31].content_store 	hits[31] 	6830
scalar dtelecom_network.node[31].content_store 	misses[31] 	22098
scalar dtelecom_network.node[31].content_store 	decision_yes[31] 	646
scalar dtelecom_network.node[31].content_store 	decision_no[31] 	21451
scalar dtelecom_network.node[31].content_store 	decision_ratio[31] 	0.029234737747206
scalar dtelecom_network.node[32].core_layer 	interests[32] 	28478
scalar dtelecom_network.node[32].core_layer 	repo_load[32] 	12626
scalar dtelecom_network.node[32].core_layer 	data[32] 	9245
scalar dtelecom_network.node[32].content_store 	p_hit[32] 	0.23196853711637
scalar dtelecom_network.node[32].content_store 	hits[32] 	6606
scalar dtelecom_network.node[32].content_store 	misses[32] 	21872
scalar dtelecom_network.node[32].content_store 	decision_yes[32] 	557
scalar dtelecom_network.node[32].content_store 	decision_no[32] 	21314
scalar dtelecom_network.node[32].content_store 	decision_ratio[32] 	0.025467514059714
scalar dtelecom_network.node[33].core_layer 	interests[33] 	12038
scalar dtelecom_network.node[33].core_layer 	data[33] 	8653
scalar dtelecom_network.node[33].content_store 	p_hit[33] 	0.28135902973916
scalar dtelecom_network.node[33].content_store 	hits[33] 	3387
scalar dtelecom_network.node[33].content_store 	misses[33] 	8651
scalar dtelecom_network.node[33].content_store 	decision_yes[33] 	130
scalar dtelecom_network.node[33].content_store 	decision_no[33] 	8523
scalar dtelecom_network.node[33].content_store 	decision_ratio[33] 	0.015023691205362
scalar dtelecom_network.node[34].core_layer 	interests[34] 	17425
scalar dtelecom_network.node[34].core_layer 	repo_load[34] 	12785
scalar dtelecom_network.node[34].core_layer 	data[34] 	0
scalar dtelecom_network.node[34].content_store 	p_hit[34] 	0.26628407460545
scalar dtelecom_network.node[34].content_store 	hits[34] 	4640
scalar dtelecom_network.node[34].content_store 	misses[34] 	12785
scalar dtelecom_network.node[34].content_store 	decision_yes[34] 	728
scalar dtelecom_network.node[34].content_store 	decision_no[34] 	12057
scalar dtelecom_network.node[34].content_store 	decision_ratio[34] 	0.056941728588189
scalar dtelecom_network.node[35].core_layer 	interests[35] 	0
scalar dtelecom_network.node[35].core_layer 	data[35] 	0
scalar dtelecom_network.node[35].content_store 	p_hit[35] 	-nan
scalar dtelecom_network.node[35].content_store 	hits[35] 	0
scalar dtelecom_network.node[35].content_store 	misses[35] 	0
scalar dtelecom_network.node[35].content_store 	decision_yes[35] 	0
scalar dtelecom_network.node[35].content_store 	decision_no[35] 	0
scalar dtelecom_network.node[35].content_store 	decision_ratio[35] 	0
scalar dtelecom_network.node[36].core_layer 	interests[36] 	12007
scalar dtelecom_network.node[36].core_layer 	data[36] 	8666
scalar dtelecom_network.node[36].content_store 	p_hit[36] 	0.27817106687765
scalar dtelecom_network.node[36].content_store 	hits[36] 	3340
scalar dtelecom_network.node[36].content_store 	misses[36] 	8667
scalar dtelecom_network.node[36].content_store 	decision_yes[36] 	142
scalar dtelecom_network.node[36].content_store 	decision_no[36] 	8524
scalar dtelecom_network.node[36].content_store 	decision_ratio[36] 	0.016385875836603
scalar dtelecom_network.node[37].core_layer 	interests[37] 	27959
scalar dtelecom_network.node[37].core_layer 	repo_load[37] 	12690
scalar dtelecom_network.node[37].core_layer 	data[37] 	9140
scalar dtelecom_network.node[37].content_store 	p_hit[37] 	0.21917808219178
scalar dtelecom_network.node[37].content_store 	hits[37] 	6128
scalar dtelecom_network.node[37].content_store 	misses[37] 	21831
scalar dtelecom_network.node[37].content_store 	decision_yes[37] 	549
scalar dtelecom_network.node[37].content_store 	decision_no[37] 	21281
scalar dtelecom_network.node[37].content_store 	decision_ratio[37] 	0.025148877691251
scalar dtelecom_network.node[38].core_layer 	interests[38] 	0
scalar dtelecom_network.node[38].core_layer 	data[38] 	0
scalar dtelecom_network.node[38].content_store 	p_hit[38] 	-nan
scalar dtelecom_network.node[38].content_store 	hits[38] 	0
scalar dtelecom_network.node[38].content_store 	misses[38] 	0
scalar dtelecom_network.node[38].content_store 	decision_yes[38] 	0
scalar dtelecom_network.node[38].content_store 	decision_no[38] 	0
scalar dtelecom_network.node[38].content_store 	decision_ratio[38] 	0
scalar dtelecom_network.node[39].core_layer 	interests[39] 	0
scalar dtelecom_network.node[39].core_layer 	data[39] 	0
scalar dtelecom_network.node[39].content_store 	p_hit[39] 	-nan
scalar dtelecom_network.node[39].content_store 	hits[39] 	0
scalar dtelecom_network.node[39].content_store 	misses[39] 	0
scalar dtelecom_network.node[39].content_store 	decision_yes[39] 	0
scalar dtelecom_network.node[39].content_store 	decision_no[39] 	0
scalar dtelecom_network.node[39].content_store 	decision_ratio[39] 	0
scalar dtelecom_network.node[40].core_layer 	interests[40] 	13329
scalar dtelecom_network.node[40].core_layer 	data[40] 	9993
scalar dtelecom_network.node[40].content_store 	p_hit[40] 	0.25028134143597
scalar dtelecom_network.node[40].content_store 	hits[40] 	3336
scalar dtelecom_network.node[40].content_store 	misses[40] 	9993
scalar dtelecom_network.node[40].content_store 	decision_yes[40] 	169
scalar dtelecom_network.node[40].content_store 	decision_no[40] 	9824
scalar dtelecom_network.node[40].content_store 	decision_ratio[40] 	0.016911838286801
scalar dtelecom_network.node[41].core_layer 	interests[41] 	17078
scalar dtelecom_network.node[41].core_layer 	repo_load[41] 	12707
scalar dtelecom_network.node[41].core_layer 	data[41] 	0
scalar dtelecom_network.node[41].content_store 	p_hit[41] 	0.2559433188898
scalar dtelecom_network.node[41].content_store 	hits[41] 	4371
scalar dtelecom_network.node[41].content_store 	misses[41] 	12707
scalar dtelecom_network.node[41].content_store 	decision_yes[41] 	624
scalar dtelecom_network.node[41].content_store 	decision_no[41] 	12083
scalar dtelecom_network.node[41].content_store 	decision_ratio[41] 	0.049106791532226
scalar dtelecom_network.node[42].core_layer 	interests[42] 	12025
scalar dtelecom_network.node[42].core_layer 	data[42] 	8680
scalar dtelecom_network.node[42].content_store 	p_hit[42] 	0.27825363825364
scalar dtelecom_network.node[42].content_store 	hits[42] 	3346
scalar dtelecom_network.node[42].content_store 	misses[42] 	8679
scalar dtelecom_network.node[42].content_store 	decision_yes[42] 	140
scalar dtelecom_network.node[42].content_store 	decision_no[42] 	8540
scalar dtelecom_network.node[42].content_store 	decision_ratio[42] 	0.016129032258065
scalar dtelecom_network.node[43].core_layer 	interests[43] 	0
scalar dtelecom_network.node[43].core_layer 	data[43] 	0
scalar dtelecom_network.node[43].content_store 	p_hit[43] 	-nan
scalar dtelecom_network.node[43].content_store 	hits[43] 	0
scalar dtelecom_network.node[43].content_store 	misses[43] 	0
scalar dtelecom_network.node[43].content_store 	decision_yes[43] 	0
scalar dtelecom_network.node[43].content_store 	decision_no[43] 	0
scalar dtelecom_network.node[43].content_store 	decision_ratio[43] 	0
scalar dtelecom_network.node[44].core_layer 	interests[44] 	0
scalar dtelecom_network.node[44].core_layer 	data[44] 	0
scalar dtelecom_network.node[44].content_store 	p_hit[44] 	-nan
scalar dtelecom_network.node[44].content_store 	hits[44] 	0
scalar dtelecom_network.node[44].content_store 	misses[44] 	0
scalar dtelecom_network.node[44].content_store 	decision_yes[44] 	0
scalar dtelecom_network.node[44].content_store 	decision_no[44] 	0
scalar dtelecom_network.node[44].content_store 	decision_ratio[44] 	0
scalar dtelecom_network.node[45].core_layer 	interests[45] 	12023
scalar dtelecom_network.node[45].core_layer 	data[45] 	8771
scalar dtelecom_network.node[45].content_store 	p_hit[45] 	0.27056475089412
scalar dtelecom_network.node[45].content_store 	hits[45] 	3253
scalar dtelecom_network.node[45].content_store 	misses[45] 	8770
scalar dtelecom_network.node[45].content_store 	decision_yes[45] 	146
scalar dtelecom_network.node[45].content_store 	decision_no[45] 	8625
scalar dtelecom_network.node[45].content_store 	decision_ratio[45] 	0.016645764451032
scalar dtelecom_network.node[46].core_layer 	interests[46] 	11902
scalar dtelecom_network.node[46].core_layer 	data[46] 	8628
scalar dtelecom_network.node[46].content_store 	p_hit[46] 	0.27516383801042
scalar dtelecom_network.node[46].content_store 	hits[46] 	3275
scalar dtelecom_network.node[46].content_store 	misses[46] 	8627
scalar dtelecom_network.node[46].content_store 	decision_yes[46] 	143
scalar dtelecom_network.node[46].content_store 	decision_no[46] 	8485
scalar dtelecom_network.node[46].content_store 	decision_ratio[46] 	0.01657394529439
scalar dtelecom_network.node[47].core_layer 	interests[47] 	0
scalar dtelecom_network.node[47].core_layer 	data[47] 	0
scalar dtelecom_network.node[47].content_store 	p_hit[47] 	-nan
scalar dtelecom_network.node[47].content_store 	hits[47] 	0
scalar dtelecom_network.node[47].content_store 	misses[47] 	0
scalar dtelecom_network.node[47].content_store 	decision_yes[47] 	0
scalar dtelecom_network.node[47].content_store 	decision_no[47] 	0
scalar dtelecom_network.node[47].content_store 	decision_ratio[47] 	0
scalar dtelecom_network.node[48].core_layer 	interests[48] 	12064
scalar dtelecom_network.node[48].core_layer 	data[48] 	8769
scalar dtelecom_network.node[48].content_store 	p_hit[48] 	0.27304376657825
scalar dtelecom_network.node[48].content_store 	hits[48] 	3294
scalar dtelecom_network.node[48].content_store 	misses[48] 	8770
scalar dtelecom_network.node[48].content_store 	decision_yes[48] 	130
scalar dtelecom_network.node[48].content_store 	decision_no[48] 	8639
scalar dtelecom_network.node[48].content_store 	decision_ratio[48] 	0.014824951533812
scalar dtelecom_network.node[49].core_layer 	interests[49] 	12072
scalar dtelecom_network.node[49].core_layer 	data[49] 	8838
scalar dtelecom_network.node[49].content_store 	p_hit[49] 	0.26789264413519
scalar dtelecom_network.node[49].content_store 	hits[49] 	3234
scalar dtelecom_network.node[49].content_store 	misses[49] 	8838
scalar dtelecom_network.node[49].content_store 	decision_yes[49] 	127
scalar dtelecom_network.node[49].content_store 	decision_no[49] 	8711
scalar dtelecom_network.node[49].content_store 	decision_ratio[49] 	0.014369766915592
scalar dtelecom_network.node[50].core_layer 	interests[50] 	11935
scalar dtelecom_network.node[50].core_layer 	data[50] 	8706
scalar dtelecom_network.node[50].content_store 	p_hit[50] 	0.27054880603268
scalar dtelecom_network.node[50].content_store 	hits[50] 	3229
scalar dtelecom_network.node[50].content_store 	misses[50] 	8706
scalar dtelecom_network.node[50].content_store 	decision_yes[50] 	137
scalar dtelecom_network.node[50].content_store 	decision_no[50] 	8569
scalar dtelecom_network.node[50].content_store 	decision_ratio[50] 	0.015736273834137
scalar dtelecom_network.node[51].core_layer 	interests[51] 	11953
scalar dtelecom_network.node[51].core_layer 	data[51] 	8677
scalar dtelecom_network.node[51].content_store 	p_hit[51] 	0.27407345436292
scalar dtelecom_network.node[51].content_store 	hits[51] 	3276
scalar dtelecom_network.node[51].content_store 	misses[51] 	8677
scalar dtelecom_network.node[51].content_store 	decision_yes[51] 	129
scalar dtelecom_network.node[51].content_store 	decision_no[51] 	8548
scalar dtelecom_network.node[51].content_store 	decision_ratio[51] 	0.01486688947793
scalar dtelecom_network.node[52].core_layer 	interests[52] 	0
scalar dtelecom_network.node[52].core_layer 	data[52] 	0
scalar dtelecom_network.node[52].content_store 	p_hit[52] 	-nan
scalar dtelecom_network.node[52].content_store 	hits[52] 	0
scalar dtelecom_network.node[52].content_store 	misses[52] 	0
scalar dtelecom_network.node[52].content_store 	decision_yes[52] 	0
scalar dtelecom_network.node[52].content_store 	decision_no[52] 	0
scalar dtelecom_network.node[52].content_store 	decision_ratio[52] 	0
scalar dtelecom_network.node[53].core_layer 	interests[53] 	11981
scalar dtelecom_network.node[53].core_layer 	data[53] 	8790
scalar dtelecom_network.node[53].content_store 	p_hit[53] 	0.26625490359736
scalar dtelecom_network.node[53].content_store 	hits[53] 	3190
scalar dtelecom_network.node[53].content_store 	misses[53] 	8791
scalar dtelecom_network.node[53].content_store 	decision_yes[53] 	141
scalar dtelecom_network.node[53].content_store 	decision_no[53] 	8649
scalar dtelecom_network.node[53].content_store 	decision_ratio[53] 	0.016040955631399
scalar dtelecom_network.node[54].core_layer 	interests[54] 	11990
scalar dtelecom_network.node[54].core_layer 	data[54] 	8668
scalar dtelecom_network.node[54].content_store 	p_hit[54] 	0.27706422018349
scalar dtelecom_network.node[54].content_store 	hits[54] 	3322
scalar dtelecom_network.node[54].content_store 	misses[54] 	8668
scalar dtelecom_network.node[54].content_store 	decision_yes[54] 	108
scalar dtelecom_network.node[54].content_store 	decision_no[54] 	8560
scalar dtelecom_network.node[54].content_store 	decision_ratio[54] 	0.012459621596677
scalar dtelecom_network.node[55].core_layer 	interests[55] 	11905
scalar dtelecom_network.node[55].core_layer 	data[55] 	8706
scalar dtelecom_network.node[55].content_store 	p_hit[55] 	0.26871062578748
scalar dtelecom_network.node[55].content_store 	hits[55] 	3199
scalar dtelecom_network.node[55].content_store 	misses[55] 	8706
scalar dtelecom_network.node[55].content_store 	decision_yes[55] 	136
scalar dtelecom_network.node[55].content_store 	decision_no[55] 	8570
scalar dtelecom_network.node[55].content_store 	decision_ratio[55] 	0.015621410521479
scalar dtelecom_network.node[56].core_layer 	interests[56] 	12023
scalar dtelecom_network.node[56].core_layer 	data[56] 	8772
scalar dtelecom_network.node[56].content_store 	p_hit[56] 	0.2703984030608
scalar dtelecom_network.node[56].content_store 	hits[56] 	3251
scalar dtelecom_network.node[56].content_store 	misses[56] 	8772
scalar dtelecom_network.node[56].content_store 	decision_yes[56] 	110
scalar dtelecom_network.node[56].content_store 	decision_no[56] 	8662
scalar dtelecom_network.node[56].content_store 	decision_ratio[56] 	0.012539899680803
scalar dtelecom_network.node[57].core_layer 	interests[57] 	11972
scalar dtelecom_network.node[57].core_layer 	data[57] 	8674
scalar dtelecom_network.node[57].content_store 	p_hit[57] 	0.27547611092549
scalar dtelecom_network.node[57].content_store 	hits[57] 	3298
scalar dtelecom_network.node[57].content_store 	misses[57] 	8674
scalar dtelecom_network.node[57].content_store 	decision_yes[57] 	136
scalar dtelecom_network.node[57].content_store 	decision_no[57] 	8538
scalar dtelecom_network.node[57].content_store 	decision_ratio[57] 	0.015679040811621
scalar dtelecom_network.node[58].core_layer 	interests[58] 	29243
scalar dtelecom_network.node[58].core_layer 	repo_load[58] 	13223
scalar dtelecom_network.node[58].core_layer 	data[58] 	9028
scalar dtelecom_network.node[58].content_store 	p_hit[58] 	0.23903156310912
scalar dtelecom_network.node[58].content_store 	hits[58] 	6990
scalar dtelecom_network.node[58].content_store 	misses[58] 	22253
scalar dtelecom_network.node[58].content_store 	decision_yes[58] 	624
scalar dtelecom_network.node[58].content_store 	decision_no[58] 	21627
scalar dtelecom_network.node[58].content_store 	decision_ratio[58] 	0.028043683429958
scalar dtelecom_network.node[59].core_layer 	interests[59] 	26648
scalar dtelecom_network.node[59].core_layer 	repo_load[59] 	12455
scalar dtelecom_network.node[59].core_layer 	data[59] 	9091
scalar dtelecom_network.node[59].content_store 	p_hit[59] 	0.19134644250976
scalar dtelecom_network.node[59].content_store 	hits[59] 	5099
scalar dtelecom_network.node[59].content_store 	misses[59] 	21549
scalar dtelecom_network.node[59].content_store 	decision_yes[59] 	523
scalar dtelecom_network.node[59].content_store 	decision_no[59] 	21023
scalar dtelecom_network.node[59].content_store 	decision_ratio[59] 	0.024273647080665
scalar dtelecom_network.node[60].core_layer 	interests[60] 	0
scalar dtelecom_network.node[60].core_layer 	data[60] 	0
scalar dtelecom_network.node[60].content_store 	p_hit[60] 	-nan
scalar dtelecom_network.node[60].content_store 	hits[60] 	0
scalar dtelecom_network.node[60].content_store 	misses[60] 	0
scalar dtelecom_network.node[60].content_store 	decision_yes[60] 	0
scalar dtelecom_network.node[60].content_store 	decision_no[60] 	0
scalar dtelecom_network.node[60].content_store 	decision_ratio[60] 	0
scalar dtelecom_network.node[61].core_layer 	interests[61] 	0
scalar dtelecom_network.node[61].core_layer 	data[61] 	0
scalar dtelecom_network.node[61].content_store 	p_hit[61] 	-nan
scalar dtelecom_network.node[61].content_store 	hits[61] 	0
scalar dtelecom_network.node[61].content_store 	misses[61] 	0
scalar dtelecom_network.node[61].content_store 	decision_yes[61] 	0
scalar dtelecom_network.node[61].content_store 	decision_no[61] 	0
scalar dtelecom_network.node[61].content_store 	decision_ratio[61] 	0
scalar dtelecom_network.node[62].core_layer 	interests[62] 	11962
scalar dtelecom_network.node[62].core_layer 	data[62] 	8663
scalar dtelecom_network.node[62].content_store 	p_hit[62] 	0.27562280555091
scalar dtelecom_network.node[62].content_store 	hits[62] 	3297
scalar dtelecom_network.node[62].content_store 	misses[62] 	8665
scalar dtelecom_network.node[62].content_store 	decision_yes[62] 	132
scalar dtelecom_network.node[62].content_store 	decision_no[62] 	8531
scalar dtelecom_network.node[62].content_store 	decision_ratio[62] 	0.015237215745123
scalar dtelecom_network.node[63].core_layer 	interests[63] 	0
scalar dtelecom_network.node[63].core_layer 	data[63] 	0
scalar dtelecom_network.node[63].content_store 	p_hit[63] 	-nan
scalar dtelecom_network.node[63].content_store 	hits[63] 	0
scalar dtelecom_network.node[63].content_store 	misses[63] 	0
scalar dtelecom_network.node[63].content_store 	decision_yes[63] 	0
scalar dtelecom_network.node[63].content_store 	decision_no[63] 	0
scalar dtelecom_network.node[63].content_store 	decision_ratio[63] 	0
scalar dtelecom_network.node[64].core_layer 	interests[64] 	0
scalar dtelecom_network.node[64].core_layer 	data[64] 	0
scalar dtelecom_network.node[64].content_store 	p_hit[64] 	-nan
scalar dtelecom_network.node[64].content_store 	hits[64] 	0
scalar dtelecom_network.node[64].content_store 	misses[64] 	0
scalar dtelecom_network.node[64].content_store 	decision_yes[64] 	0
scalar dtelecom_network.node[64].content_store 	decision_no[64] 	0
scalar dtelecom_network.node[64].content_store 	decision_ratio[64] 	0
scalar dtelecom_network.node[65].core_layer 	interests[65] 	14080
scalar dtelecom_network.node[65].core_layer 	repo_load[65] 	11848
scalar dtelecom_network.node[65].core_layer 	data[65] 	0
scalar dtelecom_network.node[65].content_store 	p_hit[65] 	0.15852272727273
scalar dtelecom_network.node[65].content_store 	hits[65] 	2232
scalar dtelecom_network.node[65].content_store 	misses[65] 	11848
scalar dtelecom_network.node[65].content_store 	decision_yes[65] 	534
scalar dtelecom_network.node[65].content_store 	decision_no[65] 	11314
scalar dtelecom_network.node[65].content_store 	decision_ratio[65] 	0.045070898041864
scalar dtelecom_network.node[66].core_layer 	interests[66] 	11830
scalar dtelecom_network.node[66].core_layer 	data[66] 	8570
scalar dtelecom_network.node[66].content_store 	p_hit[66] 	0.27523245984784
scalar dtelecom_network.node[66].content_store 	hits[66] 	3256
scalar dtelecom_network.node[66].content_store 	misses[66] 	8574
scalar dtelecom_network.node[66].content_store 	decision_yes[66] 	124
scalar dtelecom_network.node[66].content_store 	decision_no[66] 	8446
scalar dtelecom_network.node[66].content_store 	decision_ratio[66] 	0.014469078179697
scalar dtelecom_network.node[67].core_layer 	interests[67] 	11963
scalar dtelecom_network.node[67].core_layer 	data[67] 	8757
scalar dtelecom_network.node[67].content_store 	p_hit[67] 	0.26765861406002
scalar dtelecom_network.node[67].content_store 	hits[67] 	3202
scalar dtelecom_network.node[67].content_store 	misses[67] 	8761
scalar dtelecom_network.node[67].content_store 	decision_yes[67] 	116
scalar dtelecom_network.node[67].content_store 	decision_no[67] 	8641
scalar dtelecom_network.node[67].content_store 	decision_ratio[67] 	0.013246545620646
scalar dtelecom_network.client[3] 	hdistance[3] 	1.3446698819225
scalar dtelecom_network.client[3] 	downloads[3] 	12026
scalar dtelecom_network.client[3] 	avg_time[3] 	0.010491680416
scalar dtelecom_network.client[4] 	hdistance[4] 	1.3570527378249
scalar dtelecom_network.client[4] 	downloads[4] 	11889
scalar dtelecom_network.client[4] 	avg_time[4] 	0.047910689979
scalar dtelecom_network.client[8] 	hdistance[8] 	1.9225276093997
scalar dtelecom_network.client[8] 	downloads[8] 	12043
scalar dtelecom_network.client[8] 	avg_time[8] 	0.015050910797
scalar dtelecom_network.client[9] 	hdistance[9] 	1.7997328658486
scalar dtelecom_network.client[9] 	downloads[9] 	11979
scalar dtelecom_network.client[9] 	avg_time[9] 	0.014088069632
scalar dtelecom_network.client[17] 	hdistance[17] 	1.8565231898565
scalar dtelecom_network.client[17] 	downloads[17] 	11988
scalar dtelecom_network.client[17] 	avg_time[17] 	0.013031942998
scalar dtelecom_network.client[22] 	hdistance[22] 	1.9142880781004
scalar dtelecom_network.client[22] 	downloads[22] 	12087
scalar dtelecom_network.client[22] 	avg_time[22] 	0.012837635315
scalar dtelecom_network.client[23] 	hdistance[23] 	1.7665784686621
scalar dtelecom_network.client[23] 	downloads[23] 	12094
scalar dtelecom_network.client[23] 	avg_time[23] 	0.012666378635
scalar dtelecom_network.client[28] 	hdistance[28] 	1.8885628039577
scalar dtelecom_network.client[28] 	downloads[28] 	11926
scalar dtelecom_network.client[28] 	avg_time[28] 	0.015394678261
scalar dtelecom_network.client[30] 	hdistance[30] 	1.9694232681472
scalar dtelecom_network.client[30] 	downloads[30] 	12068
scalar dtelecom_network.client[30] 	avg_time[30] 	0.014332666941
scalar dtelecom_network.client[31] 	hdistance[31] 	1.8746879680479
scalar dtelecom_network.client[31] 	downloads[31] 	12018
scalar dtelecom_network.client[31] 	avg_time[31] 	0.01581578767
scalar dtelecom_network.client[32] 	hdistance[32] 	1.9199635821884
scalar dtelecom_network.client[32] 	downloads[32] 	12082
scalar dtelecom_network.client[32] 	avg_time[32] 	0.012037940259
scalar dtelecom_network.client[33] 	hdistance[33] 	1.8293189368771
scalar dtelecom_network.client[33] 	downloads[33] 	12040
scalar dtelecom_network.client[33] 	avg_time[33] 	0.013253205475
scalar dtelecom_network.client[36] 	hdistance[36] 	1.9094619356988
scalar dtelecom_network.client[36] 	downloads[36] 	12006
scalar dtelecom_network.client[36] 	avg_time[36] 	0.013462381051
scalar dtelecom_network.client[37] 	hdistance[37] 	1.8739383846794
scalar dtelecom_network.client[37] 	downloads[37] 	12010
scalar dtelecom_network.client[37] 	avg_time[37] 	0.013923418951
scalar dtelecom_network.client[40] 	hdistance[40] 	1.8305710534952
scalar dtelecom_network.client[40] 	downloads[40] 	12188
scalar dtelecom_network.client[40] 	avg_time[40] 	0.014721547695
scalar dtelecom_network.client[42] 	hdistance[42] 	1.8323632130384
scalar dtelecom_network.client[42] 	downloads[42] 	12026
scalar dtelecom_network.client[42] 	avg_time[42] 	0.014244955513
scalar dtelecom_network.client[45] 	hdistance[45] 	1.7633898868929
scalar dtelecom_network.client[45] 	downloads[45] 	12024
scalar dtelecom_network.client[45] 	avg_time[45] 	0.012325878554
scalar dtelecom_network.client[46] 	hdistance[46] 	1.8852390153743
scalar dtelecom_network.client[46] 	downloads[46] 	11903
scalar dtelecom_network.client[46] 	avg_time[46] 	0.01498717852
scalar dtelecom_network.client[48] 	hdistance[48] 	1.92207576888
scalar dtelecom_network.client[48] 	downloads[48] 	12063
scalar dtelecom_network.client[48] 	avg_time[48] 	0.013438966081
scalar dtelecom_network.client[49] 	hdistance[49] 	1.9045725646123
scalar dtelecom_network.client[49] 	downloads[49] 	12072
scalar dtelecom_network.client[49] 	avg_time[49] 	0.012216128982
scalar dtelecom_network.client[50] 	hdistance[50] 	1.8809384164223
scalar dtelecom_network.client[50] 	downloads[50] 	11935
scalar dtelecom_network.client[50] 	avg_time[50] 	0.011748190149
scalar dtelecom_network.client[51] 	hdistance[51] 	1.8361080900192
scalar dtelecom_network.client[51] 	downloads[51] 	11953
scalar dtelecom_network.client[51] 	avg_time[51] 	0.012985169807
scalar dtelecom_network.client[53] 	hdistance[53] 	1.9041736227045
scalar dtelecom_network.client[53] 	downloads[53] 	11980
scalar dtelecom_network.client[53] 	avg_time[53] 	0.012034471306
scalar dtelecom_network.client[54] 	hdistance[54] 	1.832693911593
scalar dtelecom_network.client[54] 	downloads[54] 	11990
scalar dtelecom_network.client[54] 	avg_time[54] 	0.013095017684
scalar dtelecom_network.client[55] 	hdistance[55] 	1.852414951701
scalar dtelecom_network.client[55] 	downloads[55] 	11905
scalar dtelecom_network.client[55] 	avg_time[55] 	0.017297279793
scalar dtelecom_network.client[56] 	hdistance[56] 	1.9080096481743
scalar dtelecom_network.client[56] 	downloads[56] 	12023
scalar dtelecom_network.client[56] 	avg_time[56] 	0.011980762786
scalar dtelecom_network.client[57] 	hdistance[57] 	1.8776311393251
scalar dtelecom_network.client[57] 	downloads[57] 	11972
scalar dtelecom_network.client[57] 	avg_time[57] 	0.011337965162
scalar dtelecom_network.client[58] 	hdistance[58] 	1.8799696765499
scalar dtelecom_network.client[58] 	downloads[58] 	11872
scalar dtelecom_network.client[58] 	avg_time[58] 	0.015405582194
scalar dtelecom_network.client[59] 	hdistance[59] 	1.8050721034311
scalar dtelecom_network.client[59] 	downloads[59] 	12066
scalar dtelecom_network.client[59] 	avg_time[59] 	0.056213647288
scalar dtelecom_network.client[62] 	hdistance[62] 	2.2429765886288
scalar dtelecom_network.client[62] 	downloads[62] 	11960
scalar dtelecom_network.client[62] 	avg_time[62] 	0.052595997653
scalar dtelecom_network.client[66] 	hdistance[66] 	1.949856248943
scalar dtelecom_network.client[66] 	downloads[66] 	11826
scalar dtelecom_network.client[66] 	avg_time[66] 	0.085414544078
scalar dtelecom_network.client[67] 	hdistance[67] 	1.9706497198762
scalar dtelecom_network.client[67] 	downloads[67] 	11959
scalar dtelecom_network.client[67] 	avg_time[67] 	0.071401870988
