version 2
run General-6-20160830-17:49:44-19036
attr a 0.9
attr branch 3
attr cd ffc0.01
attr configname General
attr cr lru
attr datetime 20160830-17:49:44
attr experiment General
attr fsize 1
attr inifile hw5115/scenario_E/omnetp.ini
attr iterationvars "$name=tree, $levels=5, $branch=3, $un=00, $rep=1, $cd=ffc0.01, $cr=lru, $fsize=1, $a=0.9, $sl=spr, $ttl=1000, $variance=0.05"
attr iterationvars2 "$name=tree, $levels=5, $branch=3, $un=00, $rep=1, $cd=ffc0.01, $cr=lru, $fsize=1, $a=0.9, $sl=spr, $ttl=1000, $variance=0.05, $repetition=0"
attr levels 5
attr measurement "$name=tree, $levels=5, $branch=3, $un=00, $rep=1, $cd=ffc0.01, $cr=lru, $fsize=1, $a=0.9, $sl=spr, $ttl=1000, $variance=0.05"
attr name tree
attr network networks.${name}_${levels}_${branch}_u${un}_r${rep}_network
attr processid 19036
attr rep 1
attr repetition 0
attr replication #0
attr resultdir results
attr runnumber 6
attr seedset 1
attr sl spr
attr ttl 1000
attr un 00
attr variance 0.05

scalar . 	a 	0.9
scalar . 	branch 	3
scalar . 	fsize 	1
scalar . 	levels 	5
scalar . 	rep 	1
scalar . 	ttl 	1000
scalar . 	un 	00
scalar . 	variance 	0.05
scalar tree_5_3_u00_r1_network.content_distribution 	repo-0 	0
scalar tree_5_3_u00_r1_network.content_distribution 	client-0 	120
scalar tree_5_3_u00_r1_network.content_distribution 	client-1 	119
scalar tree_5_3_u00_r1_network.content_distribution 	client-2 	118
scalar tree_5_3_u00_r1_network.content_distribution 	client-3 	117
scalar tree_5_3_u00_r1_network.content_distribution 	client-4 	116
scalar tree_5_3_u00_r1_network.content_distribution 	client-5 	115
scalar tree_5_3_u00_r1_network.content_distribution 	client-6 	114
scalar tree_5_3_u00_r1_network.content_distribution 	client-7 	113
scalar tree_5_3_u00_r1_network.content_distribution 	client-8 	112
scalar tree_5_3_u00_r1_network.content_distribution 	client-9 	111
scalar tree_5_3_u00_r1_network.content_distribution 	client-10 	110
scalar tree_5_3_u00_r1_network.content_distribution 	client-11 	109
scalar tree_5_3_u00_r1_network.content_distribution 	client-12 	108
scalar tree_5_3_u00_r1_network.content_distribution 	client-13 	107
scalar tree_5_3_u00_r1_network.content_distribution 	client-14 	106
scalar tree_5_3_u00_r1_network.content_distribution 	client-15 	105
scalar tree_5_3_u00_r1_network.content_distribution 	client-16 	104
scalar tree_5_3_u00_r1_network.content_distribution 	client-17 	103
scalar tree_5_3_u00_r1_network.content_distribution 	client-18 	102
scalar tree_5_3_u00_r1_network.content_distribution 	client-19 	101
scalar tree_5_3_u00_r1_network.content_distribution 	client-20 	100
scalar tree_5_3_u00_r1_network.content_distribution 	client-21 	99
scalar tree_5_3_u00_r1_network.content_distribution 	client-22 	98
scalar tree_5_3_u00_r1_network.content_distribution 	client-23 	97
scalar tree_5_3_u00_r1_network.content_distribution 	client-24 	96
scalar tree_5_3_u00_r1_network.content_distribution 	client-25 	95
scalar tree_5_3_u00_r1_network.content_distribution 	client-26 	94
scalar tree_5_3_u00_r1_network.content_distribution 	client-27 	93
scalar tree_5_3_u00_r1_network.content_distribution 	client-28 	92
scalar tree_5_3_u00_r1_network.content_distribution 	client-29 	91
scalar tree_5_3_u00_r1_network.content_distribution 	client-30 	90
scalar tree_5_3_u00_r1_network.content_distribution 	client-31 	89
scalar tree_5_3_u00_r1_network.content_distribution 	client-32 	88
scalar tree_5_3_u00_r1_network.content_distribution 	client-33 	87
scalar tree_5_3_u00_r1_network.content_distribution 	client-34 	86
scalar tree_5_3_u00_r1_network.content_distribution 	client-35 	85
scalar tree_5_3_u00_r1_network.content_distribution 	client-36 	84
scalar tree_5_3_u00_r1_network.content_distribution 	client-37 	83
scalar tree_5_3_u00_r1_network.content_distribution 	client-38 	82
scalar tree_5_3_u00_r1_network.content_distribution 	client-39 	81
scalar tree_5_3_u00_r1_network.content_distribution 	client-40 	80
scalar tree_5_3_u00_r1_network.content_distribution 	client-41 	79
scalar tree_5_3_u00_r1_network.content_distribution 	client-42 	78
scalar tree_5_3_u00_r1_network.content_distribution 	client-43 	77
scalar tree_5_3_u00_r1_network.content_distribution 	client-44 	76
scalar tree_5_3_u00_r1_network.content_distribution 	client-45 	75
scalar tree_5_3_u00_r1_network.content_distribution 	client-46 	74
scalar tree_5_3_u00_r1_network.content_distribution 	client-47 	73
scalar tree_5_3_u00_r1_network.content_distribution 	client-48 	72
scalar tree_5_3_u00_r1_network.content_distribution 	client-49 	71
scalar tree_5_3_u00_r1_network.content_distribution 	client-50 	70
scalar tree_5_3_u00_r1_network.content_distribution 	client-51 	69
scalar tree_5_3_u00_r1_network.content_distribution 	client-52 	68
scalar tree_5_3_u00_r1_network.content_distribution 	client-53 	67
scalar tree_5_3_u00_r1_network.content_distribution 	client-54 	66
scalar tree_5_3_u00_r1_network.content_distribution 	client-55 	65
scalar tree_5_3_u00_r1_network.content_distribution 	client-56 	64
scalar tree_5_3_u00_r1_network.content_distribution 	client-57 	63
scalar tree_5_3_u00_r1_network.content_distribution 	client-58 	62
scalar tree_5_3_u00_r1_network.content_distribution 	client-59 	61
scalar tree_5_3_u00_r1_network.content_distribution 	client-60 	60
scalar tree_5_3_u00_r1_network.content_distribution 	client-61 	59
scalar tree_5_3_u00_r1_network.content_distribution 	client-62 	58
scalar tree_5_3_u00_r1_network.content_distribution 	client-63 	57
scalar tree_5_3_u00_r1_network.content_distribution 	client-64 	56
scalar tree_5_3_u00_r1_network.content_distribution 	client-65 	55
scalar tree_5_3_u00_r1_network.content_distribution 	client-66 	54
scalar tree_5_3_u00_r1_network.content_distribution 	client-67 	53
scalar tree_5_3_u00_r1_network.content_distribution 	client-68 	52
scalar tree_5_3_u00_r1_network.content_distribution 	client-69 	51
scalar tree_5_3_u00_r1_network.content_distribution 	client-70 	50
scalar tree_5_3_u00_r1_network.content_distribution 	client-71 	49
scalar tree_5_3_u00_r1_network.content_distribution 	client-72 	48
scalar tree_5_3_u00_r1_network.content_distribution 	client-73 	47
scalar tree_5_3_u00_r1_network.content_distribution 	client-74 	46
scalar tree_5_3_u00_r1_network.content_distribution 	client-75 	45
scalar tree_5_3_u00_r1_network.content_distribution 	client-76 	44
scalar tree_5_3_u00_r1_network.content_distribution 	client-77 	43
scalar tree_5_3_u00_r1_network.content_distribution 	client-78 	42
scalar tree_5_3_u00_r1_network.content_distribution 	client-79 	41
scalar tree_5_3_u00_r1_network.content_distribution 	client-80 	40
scalar tree_5_3_u00_r1_network.content_distribution 	repo-0_card 	100000
scalar tree_5_3_u00_r1_network.content_distribution 	repo-0_price 	0
scalar tree_5_3_u00_r1_network.statistics 	stabilization_time 	3290.7
scalar tree_5_3_u00_r1_network.statistics 	p_hit 	0.1465081265564
scalar tree_5_3_u00_r1_network.statistics 	interests 	31835.669421488
scalar tree_5_3_u00_r1_network.statistics 	data 	23800.768595041
scalar tree_5_3_u00_r1_network.statistics 	hdistance 	3.6133746160576
scalar tree_5_3_u00_r1_network.statistics 	avg_time 	0.005924611377
scalar tree_5_3_u00_r1_network.statistics 	downloads 	972192
scalar tree_5_3_u00_r1_network.statistics 	total_cost 	0
scalar tree_5_3_u00_r1_network.statistics 	total_replicas 	100000
scalar tree_5_3_u00_r1_network.statistics 	inner_hit 	0.34910490931832
scalar tree_5_3_u00_r1_network.node[0].core_layer 	interests[0] 	656944
scalar tree_5_3_u00_r1_network.node[0].core_layer 	repo_load[0] 	632795
scalar tree_5_3_u00_r1_network.node[0].core_layer 	data[0] 	0
scalar tree_5_3_u00_r1_network.node[0].core_layer 	repo_int[0] 	632795
scalar tree_5_3_u00_r1_network.node[0].content_store 	p_hit[0] 	0.036759602036094
scalar tree_5_3_u00_r1_network.node[0].content_store 	hits[0] 	24149
scalar tree_5_3_u00_r1_network.node[0].content_store 	misses[0] 	632795
scalar tree_5_3_u00_r1_network.node[0].content_store 	decision_yes[0] 	41
scalar tree_5_3_u00_r1_network.node[0].content_store 	decision_no[0] 	632754
scalar tree_5_3_u00_r1_network.node[0].content_store 	decision_ratio[0] 	6.4791915233211e-05
scalar tree_5_3_u00_r1_network.node[1].core_layer 	interests[1] 	230934
scalar tree_5_3_u00_r1_network.node[1].core_layer 	data[1] 	218369
scalar tree_5_3_u00_r1_network.node[1].content_store 	p_hit[1] 	0.054370512787203
scalar tree_5_3_u00_r1_network.node[1].content_store 	hits[1] 	12556
scalar tree_5_3_u00_r1_network.node[1].content_store 	misses[1] 	218378
scalar tree_5_3_u00_r1_network.node[1].content_store 	decision_yes[1] 	23
scalar tree_5_3_u00_r1_network.node[1].content_store 	decision_no[1] 	218346
scalar tree_5_3_u00_r1_network.node[1].content_store 	decision_ratio[1] 	0.00010532630547376
scalar tree_5_3_u00_r1_network.node[2].core_layer 	interests[2] 	232070
scalar tree_5_3_u00_r1_network.node[2].core_layer 	data[2] 	219671
scalar tree_5_3_u00_r1_network.node[2].content_store 	p_hit[2] 	0.053384754599905
scalar tree_5_3_u00_r1_network.node[2].content_store 	hits[2] 	12389
scalar tree_5_3_u00_r1_network.node[2].content_store 	misses[2] 	219681
scalar tree_5_3_u00_r1_network.node[2].content_store 	decision_yes[2] 	19
scalar tree_5_3_u00_r1_network.node[2].content_store 	decision_no[2] 	219652
scalar tree_5_3_u00_r1_network.node[2].content_store 	decision_ratio[2] 	8.6492982687747e-05
scalar tree_5_3_u00_r1_network.node[3].core_layer 	interests[3] 	231404
scalar tree_5_3_u00_r1_network.node[3].core_layer 	data[3] 	218904
scalar tree_5_3_u00_r1_network.node[3].content_store 	p_hit[3] 	0.053974866467304
scalar tree_5_3_u00_r1_network.node[3].content_store 	hits[3] 	12490
scalar tree_5_3_u00_r1_network.node[3].content_store 	misses[3] 	218914
scalar tree_5_3_u00_r1_network.node[3].content_store 	decision_yes[3] 	21
scalar tree_5_3_u00_r1_network.node[3].content_store 	decision_no[3] 	218883
scalar tree_5_3_u00_r1_network.node[3].content_store 	decision_ratio[3] 	9.5932463545664e-05
scalar tree_5_3_u00_r1_network.node[4].core_layer 	interests[4] 	82644
scalar tree_5_3_u00_r1_network.node[4].core_layer 	data[4] 	76293
scalar tree_5_3_u00_r1_network.node[4].content_store 	p_hit[4] 	0.076775083490635
scalar tree_5_3_u00_r1_network.node[4].content_store 	hits[4] 	6345
scalar tree_5_3_u00_r1_network.node[4].content_store 	misses[4] 	76299
scalar tree_5_3_u00_r1_network.node[4].content_store 	decision_yes[4] 	8
scalar tree_5_3_u00_r1_network.node[4].content_store 	decision_no[4] 	76285
scalar tree_5_3_u00_r1_network.node[4].content_store 	decision_ratio[4] 	0.00010485889924371
scalar tree_5_3_u00_r1_network.node[5].core_layer 	interests[5] 	81871
scalar tree_5_3_u00_r1_network.node[5].core_layer 	data[5] 	77031
scalar tree_5_3_u00_r1_network.node[5].content_store 	p_hit[5] 	0.059056320308778
scalar tree_5_3_u00_r1_network.node[5].content_store 	hits[5] 	4835
scalar tree_5_3_u00_r1_network.node[5].content_store 	misses[5] 	77036
scalar tree_5_3_u00_r1_network.node[5].content_store 	decision_yes[5] 	14
scalar tree_5_3_u00_r1_network.node[5].content_store 	decision_no[5] 	77017
scalar tree_5_3_u00_r1_network.node[5].content_store 	decision_ratio[5] 	0.00018174501174852
scalar tree_5_3_u00_r1_network.node[6].core_layer 	interests[6] 	82014
scalar tree_5_3_u00_r1_network.node[6].core_layer 	data[6] 	77609
scalar tree_5_3_u00_r1_network.node[6].content_store 	p_hit[6] 	0.053649376935645
scalar tree_5_3_u00_r1_network.node[6].content_store 	hits[6] 	4400
scalar tree_5_3_u00_r1_network.node[6].content_store 	misses[6] 	77614
scalar tree_5_3_u00_r1_network.node[6].content_store 	decision_yes[6] 	17
scalar tree_5_3_u00_r1_network.node[6].content_store 	decision_no[6] 	77592
scalar tree_5_3_u00_r1_network.node[6].content_store 	decision_ratio[6] 	0.00021904676004072
scalar tree_5_3_u00_r1_network.node[7].core_layer 	interests[7] 	82165
scalar tree_5_3_u00_r1_network.node[7].core_layer 	data[7] 	77308
scalar tree_5_3_u00_r1_network.node[7].content_store 	p_hit[7] 	0.059064078378872
scalar tree_5_3_u00_r1_network.node[7].content_store 	hits[7] 	4853
scalar tree_5_3_u00_r1_network.node[7].content_store 	misses[7] 	77312
scalar tree_5_3_u00_r1_network.node[7].content_store 	decision_yes[7] 	11
scalar tree_5_3_u00_r1_network.node[7].content_store 	decision_no[7] 	77297
scalar tree_5_3_u00_r1_network.node[7].content_store 	decision_ratio[7] 	0.00014228799089357
scalar tree_5_3_u00_r1_network.node[8].core_layer 	interests[8] 	82361
scalar tree_5_3_u00_r1_network.node[8].core_layer 	data[8] 	77209
scalar tree_5_3_u00_r1_network.node[8].content_store 	p_hit[8] 	0.062468886973203
scalar tree_5_3_u00_r1_network.node[8].content_store 	hits[8] 	5145
scalar tree_5_3_u00_r1_network.node[8].content_store 	misses[8] 	77216
scalar tree_5_3_u00_r1_network.node[8].content_store 	decision_yes[8] 	7
scalar tree_5_3_u00_r1_network.node[8].content_store 	decision_no[8] 	77202
scalar tree_5_3_u00_r1_network.node[8].content_store 	decision_ratio[8] 	9.0663005608154e-05
scalar tree_5_3_u00_r1_network.node[9].core_layer 	interests[9] 	81760
scalar tree_5_3_u00_r1_network.node[9].core_layer 	data[9] 	77552
scalar tree_5_3_u00_r1_network.node[9].content_store 	p_hit[9] 	0.051455479452055
scalar tree_5_3_u00_r1_network.node[9].content_store 	hits[9] 	4207
scalar tree_5_3_u00_r1_network.node[9].content_store 	misses[9] 	77553
scalar tree_5_3_u00_r1_network.node[9].content_store 	decision_yes[9] 	11
scalar tree_5_3_u00_r1_network.node[9].content_store 	decision_no[9] 	77541
scalar tree_5_3_u00_r1_network.node[9].content_store 	decision_ratio[9] 	0.00014184031359604
scalar tree_5_3_u00_r1_network.node[10].core_layer 	interests[10] 	82725
scalar tree_5_3_u00_r1_network.node[10].core_layer 	data[10] 	77489
scalar tree_5_3_u00_r1_network.node[10].content_store 	p_hit[10] 	0.06329404653974
scalar tree_5_3_u00_r1_network.node[10].content_store 	hits[10] 	5236
scalar tree_5_3_u00_r1_network.node[10].content_store 	misses[10] 	77489
scalar tree_5_3_u00_r1_network.node[10].content_store 	decision_yes[10] 	15
scalar tree_5_3_u00_r1_network.node[10].content_store 	decision_no[10] 	77474
scalar tree_5_3_u00_r1_network.node[10].content_store 	decision_ratio[10] 	0.00019357586238047
scalar tree_5_3_u00_r1_network.node[11].core_layer 	interests[11] 	82759
scalar tree_5_3_u00_r1_network.node[11].core_layer 	data[11] 	76974
scalar tree_5_3_u00_r1_network.node[11].content_store 	p_hit[11] 	0.069853429838447
scalar tree_5_3_u00_r1_network.node[11].content_store 	hits[11] 	5781
scalar tree_5_3_u00_r1_network.node[11].content_store 	misses[11] 	76978
scalar tree_5_3_u00_r1_network.node[11].content_store 	decision_yes[11] 	13
scalar tree_5_3_u00_r1_network.node[11].content_store 	decision_no[11] 	76961
scalar tree_5_3_u00_r1_network.node[11].content_store 	decision_ratio[11] 	0.00016888819601424
scalar tree_5_3_u00_r1_network.node[12].core_layer 	interests[12] 	82182
scalar tree_5_3_u00_r1_network.node[12].core_layer 	data[12] 	76939
scalar tree_5_3_u00_r1_network.node[12].content_store 	p_hit[12] 	0.063700080309557
scalar tree_5_3_u00_r1_network.node[12].content_store 	hits[12] 	5235
scalar tree_5_3_u00_r1_network.node[12].content_store 	misses[12] 	76947
scalar tree_5_3_u00_r1_network.node[12].content_store 	decision_yes[12] 	8
scalar tree_5_3_u00_r1_network.node[12].content_store 	decision_no[12] 	76931
scalar tree_5_3_u00_r1_network.node[12].content_store 	decision_ratio[12] 	0.00010397847645537
scalar tree_5_3_u00_r1_network.node[13].core_layer 	interests[13] 	29428
scalar tree_5_3_u00_r1_network.node[13].core_layer 	data[13] 	27705
scalar tree_5_3_u00_r1_network.node[13].content_store 	p_hit[13] 	0.058515699333968
scalar tree_5_3_u00_r1_network.node[13].content_store 	hits[13] 	1722
scalar tree_5_3_u00_r1_network.node[13].content_store 	misses[13] 	27706
scalar tree_5_3_u00_r1_network.node[13].content_store 	decision_yes[13] 	11
scalar tree_5_3_u00_r1_network.node[13].content_store 	decision_no[13] 	27694
scalar tree_5_3_u00_r1_network.node[13].content_store 	decision_ratio[13] 	0.00039704024544306
scalar tree_5_3_u00_r1_network.node[14].core_layer 	interests[14] 	28809
scalar tree_5_3_u00_r1_network.node[14].core_layer 	data[14] 	27532
scalar tree_5_3_u00_r1_network.node[14].content_store 	p_hit[14] 	0.044222291644972
scalar tree_5_3_u00_r1_network.node[14].content_store 	hits[14] 	1274
scalar tree_5_3_u00_r1_network.node[14].content_store 	misses[14] 	27535
scalar tree_5_3_u00_r1_network.node[14].content_store 	decision_yes[14] 	7
scalar tree_5_3_u00_r1_network.node[14].content_store 	decision_no[14] 	27525
scalar tree_5_3_u00_r1_network.node[14].content_store 	decision_ratio[14] 	0.00025424960046491
scalar tree_5_3_u00_r1_network.node[15].core_layer 	interests[15] 	29089
scalar tree_5_3_u00_r1_network.node[15].core_layer 	data[15] 	27406
scalar tree_5_3_u00_r1_network.node[15].content_store 	p_hit[15] 	0.05782254460449
scalar tree_5_3_u00_r1_network.node[15].content_store 	hits[15] 	1682
scalar tree_5_3_u00_r1_network.node[15].content_store 	misses[15] 	27407
scalar tree_5_3_u00_r1_network.node[15].content_store 	decision_yes[15] 	12
scalar tree_5_3_u00_r1_network.node[15].content_store 	decision_no[15] 	27394
scalar tree_5_3_u00_r1_network.node[15].content_store 	decision_ratio[15] 	0.0004378603225571
scalar tree_5_3_u00_r1_network.node[16].core_layer 	interests[16] 	29063
scalar tree_5_3_u00_r1_network.node[16].core_layer 	data[16] 	26975
scalar tree_5_3_u00_r1_network.node[16].content_store 	p_hit[16] 	0.071843925265802
scalar tree_5_3_u00_r1_network.node[16].content_store 	hits[16] 	2088
scalar tree_5_3_u00_r1_network.node[16].content_store 	misses[16] 	26975
scalar tree_5_3_u00_r1_network.node[16].content_store 	decision_yes[16] 	10
scalar tree_5_3_u00_r1_network.node[16].content_store 	decision_no[16] 	26965
scalar tree_5_3_u00_r1_network.node[16].content_store 	decision_ratio[16] 	0.00037071362372567
scalar tree_5_3_u00_r1_network.node[17].core_layer 	interests[17] 	29187
scalar tree_5_3_u00_r1_network.node[17].core_layer 	data[17] 	27507
scalar tree_5_3_u00_r1_network.node[17].content_store 	p_hit[17] 	0.057594134374893
scalar tree_5_3_u00_r1_network.node[17].content_store 	hits[17] 	1681
scalar tree_5_3_u00_r1_network.node[17].content_store 	misses[17] 	27506
scalar tree_5_3_u00_r1_network.node[17].content_store 	decision_yes[17] 	7
scalar tree_5_3_u00_r1_network.node[17].content_store 	decision_no[17] 	27500
scalar tree_5_3_u00_r1_network.node[17].content_store 	decision_ratio[17] 	0.00025448067764569
scalar tree_5_3_u00_r1_network.node[18].core_layer 	interests[18] 	29076
scalar tree_5_3_u00_r1_network.node[18].core_layer 	data[18] 	27391
scalar tree_5_3_u00_r1_network.node[18].content_store 	p_hit[18] 	0.057882789929839
scalar tree_5_3_u00_r1_network.node[18].content_store 	hits[18] 	1683
scalar tree_5_3_u00_r1_network.node[18].content_store 	misses[18] 	27393
scalar tree_5_3_u00_r1_network.node[18].content_store 	decision_yes[18] 	5
scalar tree_5_3_u00_r1_network.node[18].content_store 	decision_no[18] 	27386
scalar tree_5_3_u00_r1_network.node[18].content_store 	decision_ratio[18] 	0.00018254171078091
scalar tree_5_3_u00_r1_network.node[19].core_layer 	interests[19] 	29049
scalar tree_5_3_u00_r1_network.node[19].core_layer 	data[19] 	27157
scalar tree_5_3_u00_r1_network.node[19].content_store 	p_hit[19] 	0.065028056043237
scalar tree_5_3_u00_r1_network.node[19].content_store 	hits[19] 	1889
scalar tree_5_3_u00_r1_network.node[19].content_store 	misses[19] 	27160
scalar tree_5_3_u00_r1_network.node[19].content_store 	decision_yes[19] 	4
scalar tree_5_3_u00_r1_network.node[19].content_store 	decision_no[19] 	27153
scalar tree_5_3_u00_r1_network.node[19].content_store 	decision_ratio[19] 	0.00014729167433811
scalar tree_5_3_u00_r1_network.node[20].core_layer 	interests[20] 	29377
scalar tree_5_3_u00_r1_network.node[20].core_layer 	data[20] 	27344
scalar tree_5_3_u00_r1_network.node[20].content_store 	p_hit[20] 	0.06916975865473
scalar tree_5_3_u00_r1_network.node[20].content_store 	hits[20] 	2032
scalar tree_5_3_u00_r1_network.node[20].content_store 	misses[20] 	27345
scalar tree_5_3_u00_r1_network.node[20].content_store 	decision_yes[20] 	4
scalar tree_5_3_u00_r1_network.node[20].content_store 	decision_no[20] 	27340
scalar tree_5_3_u00_r1_network.node[20].content_store 	decision_ratio[20] 	0.00014628437682855
scalar tree_5_3_u00_r1_network.node[21].core_layer 	interests[21] 	29256
scalar tree_5_3_u00_r1_network.node[21].core_layer 	data[21] 	27513
scalar tree_5_3_u00_r1_network.node[21].content_store 	p_hit[21] 	0.059543341536779
scalar tree_5_3_u00_r1_network.node[21].content_store 	hits[21] 	1742
scalar tree_5_3_u00_r1_network.node[21].content_store 	misses[21] 	27514
scalar tree_5_3_u00_r1_network.node[21].content_store 	decision_yes[21] 	7
scalar tree_5_3_u00_r1_network.node[21].content_store 	decision_no[21] 	27506
scalar tree_5_3_u00_r1_network.node[21].content_store 	decision_ratio[21] 	0.00025442518082361
scalar tree_5_3_u00_r1_network.node[22].core_layer 	interests[22] 	29301
scalar tree_5_3_u00_r1_network.node[22].core_layer 	data[22] 	27522
scalar tree_5_3_u00_r1_network.node[22].content_store 	p_hit[22] 	0.060612265792976
scalar tree_5_3_u00_r1_network.node[22].content_store 	hits[22] 	1776
scalar tree_5_3_u00_r1_network.node[22].content_store 	misses[22] 	27525
scalar tree_5_3_u00_r1_network.node[22].content_store 	decision_yes[22] 	4
scalar tree_5_3_u00_r1_network.node[22].content_store 	decision_no[22] 	27518
scalar tree_5_3_u00_r1_network.node[22].content_store 	decision_ratio[22] 	0.00014533827483468
scalar tree_5_3_u00_r1_network.node[23].core_layer 	interests[23] 	29381
scalar tree_5_3_u00_r1_network.node[23].core_layer 	data[23] 	27174
scalar tree_5_3_u00_r1_network.node[23].content_store 	p_hit[23] 	0.075014465130527
scalar tree_5_3_u00_r1_network.node[23].content_store 	hits[23] 	2204
scalar tree_5_3_u00_r1_network.node[23].content_store 	misses[23] 	27177
scalar tree_5_3_u00_r1_network.node[23].content_store 	decision_yes[23] 	7
scalar tree_5_3_u00_r1_network.node[23].content_store 	decision_no[23] 	27167
scalar tree_5_3_u00_r1_network.node[23].content_store 	decision_ratio[23] 	0.00025759917568264
scalar tree_5_3_u00_r1_network.node[24].core_layer 	interests[24] 	29305
scalar tree_5_3_u00_r1_network.node[24].core_layer 	data[24] 	27469
scalar tree_5_3_u00_r1_network.node[24].content_store 	p_hit[24] 	0.062651424671558
scalar tree_5_3_u00_r1_network.node[24].content_store 	hits[24] 	1836
scalar tree_5_3_u00_r1_network.node[24].content_store 	misses[24] 	27469
scalar tree_5_3_u00_r1_network.node[24].content_store 	decision_yes[24] 	9
scalar tree_5_3_u00_r1_network.node[24].content_store 	decision_no[24] 	27460
scalar tree_5_3_u00_r1_network.node[24].content_store 	decision_ratio[24] 	0.00032764206924169
scalar tree_5_3_u00_r1_network.node[25].core_layer 	interests[25] 	29028
scalar tree_5_3_u00_r1_network.node[25].core_layer 	data[25] 	27630
scalar tree_5_3_u00_r1_network.node[25].content_store 	p_hit[25] 	0.048160396858206
scalar tree_5_3_u00_r1_network.node[25].content_store 	hits[25] 	1398
scalar tree_5_3_u00_r1_network.node[25].content_store 	misses[25] 	27630
scalar tree_5_3_u00_r1_network.node[25].content_store 	decision_yes[25] 	4
scalar tree_5_3_u00_r1_network.node[25].content_store 	decision_no[25] 	27626
scalar tree_5_3_u00_r1_network.node[25].content_store 	decision_ratio[25] 	0.00014477017734347
scalar tree_5_3_u00_r1_network.node[26].core_layer 	interests[26] 	29264
scalar tree_5_3_u00_r1_network.node[26].core_layer 	data[26] 	27423
scalar tree_5_3_u00_r1_network.node[26].content_store 	p_hit[26] 	0.062807545106616
scalar tree_5_3_u00_r1_network.node[26].content_store 	hits[26] 	1838
scalar tree_5_3_u00_r1_network.node[26].content_store 	misses[26] 	27426
scalar tree_5_3_u00_r1_network.node[26].content_store 	decision_yes[26] 	3
scalar tree_5_3_u00_r1_network.node[26].content_store 	decision_no[26] 	27420
scalar tree_5_3_u00_r1_network.node[26].content_store 	decision_ratio[26] 	0.00010939722131058
scalar tree_5_3_u00_r1_network.node[27].core_layer 	interests[27] 	29414
scalar tree_5_3_u00_r1_network.node[27].core_layer 	data[27] 	27306
scalar tree_5_3_u00_r1_network.node[27].content_store 	p_hit[27] 	0.07163255592575
scalar tree_5_3_u00_r1_network.node[27].content_store 	hits[27] 	2107
scalar tree_5_3_u00_r1_network.node[27].content_store 	misses[27] 	27307
scalar tree_5_3_u00_r1_network.node[27].content_store 	decision_yes[27] 	4
scalar tree_5_3_u00_r1_network.node[27].content_store 	decision_no[27] 	27302
scalar tree_5_3_u00_r1_network.node[27].content_store 	decision_ratio[27] 	0.000146487951366
scalar tree_5_3_u00_r1_network.node[28].core_layer 	interests[28] 	28989
scalar tree_5_3_u00_r1_network.node[28].core_layer 	data[28] 	27321
scalar tree_5_3_u00_r1_network.node[28].content_store 	p_hit[28] 	0.057504570699231
scalar tree_5_3_u00_r1_network.node[28].content_store 	hits[28] 	1667
scalar tree_5_3_u00_r1_network.node[28].content_store 	misses[28] 	27322
scalar tree_5_3_u00_r1_network.node[28].content_store 	decision_yes[28] 	2
scalar tree_5_3_u00_r1_network.node[28].content_store 	decision_no[28] 	27319
scalar tree_5_3_u00_r1_network.node[28].content_store 	decision_ratio[28] 	7.3203762673401e-05
scalar tree_5_3_u00_r1_network.node[29].core_layer 	interests[29] 	29249
scalar tree_5_3_u00_r1_network.node[29].core_layer 	data[29] 	27411
scalar tree_5_3_u00_r1_network.node[29].content_store 	p_hit[29] 	0.062805566002256
scalar tree_5_3_u00_r1_network.node[29].content_store 	hits[29] 	1837
scalar tree_5_3_u00_r1_network.node[29].content_store 	misses[29] 	27412
scalar tree_5_3_u00_r1_network.node[29].content_store 	decision_yes[29] 	9
scalar tree_5_3_u00_r1_network.node[29].content_store 	decision_no[29] 	27402
scalar tree_5_3_u00_r1_network.node[29].content_store 	decision_ratio[29] 	0.00032833533982708
scalar tree_5_3_u00_r1_network.node[30].core_layer 	interests[30] 	29297
scalar tree_5_3_u00_r1_network.node[30].core_layer 	data[30] 	27028
scalar tree_5_3_u00_r1_network.node[30].content_store 	p_hit[30] 	0.077379936512271
scalar tree_5_3_u00_r1_network.node[30].content_store 	hits[30] 	2267
scalar tree_5_3_u00_r1_network.node[30].content_store 	misses[30] 	27030
scalar tree_5_3_u00_r1_network.node[30].content_store 	decision_yes[30] 	8
scalar tree_5_3_u00_r1_network.node[30].content_store 	decision_no[30] 	27020
scalar tree_5_3_u00_r1_network.node[30].content_store 	decision_ratio[30] 	0.0002959893443836
scalar tree_5_3_u00_r1_network.node[31].core_layer 	interests[31] 	29386
scalar tree_5_3_u00_r1_network.node[31].core_layer 	data[31] 	27670
scalar tree_5_3_u00_r1_network.node[31].content_store 	p_hit[31] 	0.058463213775267
scalar tree_5_3_u00_r1_network.node[31].content_store 	hits[31] 	1718
scalar tree_5_3_u00_r1_network.node[31].content_store 	misses[31] 	27668
scalar tree_5_3_u00_r1_network.node[31].content_store 	decision_yes[31] 	10
scalar tree_5_3_u00_r1_network.node[31].content_store 	decision_no[31] 	27660
scalar tree_5_3_u00_r1_network.node[31].content_store 	decision_ratio[31] 	0.00036140224069389
scalar tree_5_3_u00_r1_network.node[32].core_layer 	interests[32] 	29292
scalar tree_5_3_u00_r1_network.node[32].core_layer 	data[32] 	27513
scalar tree_5_3_u00_r1_network.node[32].content_store 	p_hit[32] 	0.060733306022122
scalar tree_5_3_u00_r1_network.node[32].content_store 	hits[32] 	1779
scalar tree_5_3_u00_r1_network.node[32].content_store 	misses[32] 	27513
scalar tree_5_3_u00_r1_network.node[32].content_store 	decision_yes[32] 	5
scalar tree_5_3_u00_r1_network.node[32].content_store 	decision_no[32] 	27508
scalar tree_5_3_u00_r1_network.node[32].content_store 	decision_ratio[32] 	0.00018173227201686
scalar tree_5_3_u00_r1_network.node[33].core_layer 	interests[33] 	29070
scalar tree_5_3_u00_r1_network.node[33].core_layer 	data[33] 	27544
scalar tree_5_3_u00_r1_network.node[33].content_store 	p_hit[33] 	0.052459580323357
scalar tree_5_3_u00_r1_network.node[33].content_store 	hits[33] 	1525
scalar tree_5_3_u00_r1_network.node[33].content_store 	misses[33] 	27545
scalar tree_5_3_u00_r1_network.node[33].content_store 	decision_yes[33] 	3
scalar tree_5_3_u00_r1_network.node[33].content_store 	decision_no[33] 	27541
scalar tree_5_3_u00_r1_network.node[33].content_store 	decision_ratio[33] 	0.00010891664246297
scalar tree_5_3_u00_r1_network.node[34].core_layer 	interests[34] 	28875
scalar tree_5_3_u00_r1_network.node[34].core_layer 	data[34] 	27193
scalar tree_5_3_u00_r1_network.node[34].content_store 	p_hit[34] 	0.058181818181818
scalar tree_5_3_u00_r1_network.node[34].content_store 	hits[34] 	1680
scalar tree_5_3_u00_r1_network.node[34].content_store 	misses[34] 	27195
scalar tree_5_3_u00_r1_network.node[34].content_store 	decision_yes[34] 	9
scalar tree_5_3_u00_r1_network.node[34].content_store 	decision_no[34] 	27184
scalar tree_5_3_u00_r1_network.node[34].content_store 	decision_ratio[34] 	0.00033096752840805
scalar tree_5_3_u00_r1_network.node[35].core_layer 	interests[35] 	29340
scalar tree_5_3_u00_r1_network.node[35].core_layer 	data[35] 	27743
scalar tree_5_3_u00_r1_network.node[35].content_store 	p_hit[35] 	0.054430811179277
scalar tree_5_3_u00_r1_network.node[35].content_store 	hits[35] 	1597
scalar tree_5_3_u00_r1_network.node[35].content_store 	misses[35] 	27743
scalar tree_5_3_u00_r1_network.node[35].content_store 	decision_yes[35] 	4
scalar tree_5_3_u00_r1_network.node[35].content_store 	decision_no[35] 	27739
scalar tree_5_3_u00_r1_network.node[35].content_store 	decision_ratio[35] 	0.00014418051400353
scalar tree_5_3_u00_r1_network.node[36].core_layer 	interests[36] 	29388
scalar tree_5_3_u00_r1_network.node[36].core_layer 	data[36] 	27823
scalar tree_5_3_u00_r1_network.node[36].content_store 	p_hit[36] 	0.05321900095277
scalar tree_5_3_u00_r1_network.node[36].content_store 	hits[36] 	1564
scalar tree_5_3_u00_r1_network.node[36].content_store 	misses[36] 	27824
scalar tree_5_3_u00_r1_network.node[36].content_store 	decision_yes[36] 	6
scalar tree_5_3_u00_r1_network.node[36].content_store 	decision_no[36] 	27817
scalar tree_5_3_u00_r1_network.node[36].content_store 	decision_ratio[36] 	0.00021564892355246
scalar tree_5_3_u00_r1_network.node[37].core_layer 	interests[37] 	28936
scalar tree_5_3_u00_r1_network.node[37].core_layer 	data[37] 	27322
scalar tree_5_3_u00_r1_network.node[37].content_store 	p_hit[37] 	0.055640033176666
scalar tree_5_3_u00_r1_network.node[37].content_store 	hits[37] 	1610
scalar tree_5_3_u00_r1_network.node[37].content_store 	misses[37] 	27326
scalar tree_5_3_u00_r1_network.node[37].content_store 	decision_yes[37] 	7
scalar tree_5_3_u00_r1_network.node[37].content_store 	decision_no[37] 	27315
scalar tree_5_3_u00_r1_network.node[37].content_store 	decision_ratio[37] 	0.00025620379181612
scalar tree_5_3_u00_r1_network.node[38].core_layer 	interests[38] 	29180
scalar tree_5_3_u00_r1_network.node[38].core_layer 	data[38] 	27505
scalar tree_5_3_u00_r1_network.node[38].content_store 	p_hit[38] 	0.057402330363263
scalar tree_5_3_u00_r1_network.node[38].content_store 	hits[38] 	1675
scalar tree_5_3_u00_r1_network.node[38].content_store 	misses[38] 	27505
scalar tree_5_3_u00_r1_network.node[38].content_store 	decision_yes[38] 	4
scalar tree_5_3_u00_r1_network.node[38].content_store 	decision_no[38] 	27501
scalar tree_5_3_u00_r1_network.node[38].content_store 	decision_ratio[38] 	0.00014542810398109
scalar tree_5_3_u00_r1_network.node[39].core_layer 	interests[39] 	29037
scalar tree_5_3_u00_r1_network.node[39].core_layer 	data[39] 	27352
scalar tree_5_3_u00_r1_network.node[39].content_store 	p_hit[39] 	0.057994971932362
scalar tree_5_3_u00_r1_network.node[39].content_store 	hits[39] 	1684
scalar tree_5_3_u00_r1_network.node[39].content_store 	misses[39] 	27353
scalar tree_5_3_u00_r1_network.node[39].content_store 	decision_yes[39] 	8
scalar tree_5_3_u00_r1_network.node[39].content_store 	decision_no[39] 	27344
scalar tree_5_3_u00_r1_network.node[39].content_store 	decision_ratio[39] 	0.00029248318221702
scalar tree_5_3_u00_r1_network.node[40].core_layer 	interests[40] 	11984
scalar tree_5_3_u00_r1_network.node[40].core_layer 	data[40] 	9811
scalar tree_5_3_u00_r1_network.node[40].content_store 	p_hit[40] 	0.1814085447263
scalar tree_5_3_u00_r1_network.node[40].content_store 	hits[40] 	2174
scalar tree_5_3_u00_r1_network.node[40].content_store 	misses[40] 	9810
scalar tree_5_3_u00_r1_network.node[40].content_store 	decision_yes[40] 	5
scalar tree_5_3_u00_r1_network.node[40].content_store 	decision_no[40] 	9806
scalar tree_5_3_u00_r1_network.node[40].content_store 	decision_ratio[40] 	0.00050963204566303
scalar tree_5_3_u00_r1_network.node[41].core_layer 	interests[41] 	11961
scalar tree_5_3_u00_r1_network.node[41].core_layer 	data[41] 	9828
scalar tree_5_3_u00_r1_network.node[41].content_store 	p_hit[41] 	0.17832957110609
scalar tree_5_3_u00_r1_network.node[41].content_store 	hits[41] 	2133
scalar tree_5_3_u00_r1_network.node[41].content_store 	misses[41] 	9828
scalar tree_5_3_u00_r1_network.node[41].content_store 	decision_yes[41] 	6
scalar tree_5_3_u00_r1_network.node[41].content_store 	decision_no[41] 	9822
scalar tree_5_3_u00_r1_network.node[41].content_store 	decision_ratio[41] 	0.00061050061050061
scalar tree_5_3_u00_r1_network.node[42].core_layer 	interests[42] 	12017
scalar tree_5_3_u00_r1_network.node[42].core_layer 	data[42] 	9789
scalar tree_5_3_u00_r1_network.node[42].content_store 	p_hit[42] 	0.18540401098444
scalar tree_5_3_u00_r1_network.node[42].content_store 	hits[42] 	2228
scalar tree_5_3_u00_r1_network.node[42].content_store 	misses[42] 	9789
scalar tree_5_3_u00_r1_network.node[42].content_store 	decision_yes[42] 	2
scalar tree_5_3_u00_r1_network.node[42].content_store 	decision_no[42] 	9787
scalar tree_5_3_u00_r1_network.node[42].content_store 	decision_ratio[42] 	0.00020431096128307
scalar tree_5_3_u00_r1_network.node[43].core_layer 	interests[43] 	11852
scalar tree_5_3_u00_r1_network.node[43].core_layer 	data[43] 	9452
scalar tree_5_3_u00_r1_network.node[43].content_store 	p_hit[43] 	0.20249746878164
scalar tree_5_3_u00_r1_network.node[43].content_store 	hits[43] 	2400
scalar tree_5_3_u00_r1_network.node[43].content_store 	misses[43] 	9452
scalar tree_5_3_u00_r1_network.node[43].content_store 	decision_yes[43] 	5
scalar tree_5_3_u00_r1_network.node[43].content_store 	decision_no[43] 	9447
scalar tree_5_3_u00_r1_network.node[43].content_store 	decision_ratio[43] 	0.0005289885738468
scalar tree_5_3_u00_r1_network.node[44].core_layer 	interests[44] 	11893
scalar tree_5_3_u00_r1_network.node[44].core_layer 	data[44] 	9642
scalar tree_5_3_u00_r1_network.node[44].content_store 	p_hit[44] 	0.18918691667367
scalar tree_5_3_u00_r1_network.node[44].content_store 	hits[44] 	2250
scalar tree_5_3_u00_r1_network.node[44].content_store 	misses[44] 	9643
scalar tree_5_3_u00_r1_network.node[44].content_store 	decision_yes[44] 	6
scalar tree_5_3_u00_r1_network.node[44].content_store 	decision_no[44] 	9636
scalar tree_5_3_u00_r1_network.node[44].content_store 	decision_ratio[44] 	0.00062227753578096
scalar tree_5_3_u00_r1_network.node[45].core_layer 	interests[45] 	11989
scalar tree_5_3_u00_r1_network.node[45].core_layer 	data[45] 	9714
scalar tree_5_3_u00_r1_network.node[45].content_store 	p_hit[45] 	0.18967386771207
scalar tree_5_3_u00_r1_network.node[45].content_store 	hits[45] 	2274
scalar tree_5_3_u00_r1_network.node[45].content_store 	misses[45] 	9715
scalar tree_5_3_u00_r1_network.node[45].content_store 	decision_yes[45] 	2
scalar tree_5_3_u00_r1_network.node[45].content_store 	decision_no[45] 	9712
scalar tree_5_3_u00_r1_network.node[45].content_store 	decision_ratio[45] 	0.0002058884084826
scalar tree_5_3_u00_r1_network.node[46].core_layer 	interests[46] 	11984
scalar tree_5_3_u00_r1_network.node[46].core_layer 	data[46] 	9793
scalar tree_5_3_u00_r1_network.node[46].content_store 	p_hit[46] 	0.18274365821095
scalar tree_5_3_u00_r1_network.node[46].content_store 	hits[46] 	2190
scalar tree_5_3_u00_r1_network.node[46].content_store 	misses[46] 	9794
scalar tree_5_3_u00_r1_network.node[46].content_store 	decision_yes[46] 	1
scalar tree_5_3_u00_r1_network.node[46].content_store 	decision_no[46] 	9792
scalar tree_5_3_u00_r1_network.node[46].content_store 	decision_ratio[46] 	0.00010211375472276
scalar tree_5_3_u00_r1_network.node[47].core_layer 	interests[47] 	11889
scalar tree_5_3_u00_r1_network.node[47].core_layer 	data[47] 	9506
scalar tree_5_3_u00_r1_network.node[47].content_store 	p_hit[47] 	0.20035326772647
scalar tree_5_3_u00_r1_network.node[47].content_store 	hits[47] 	2382
scalar tree_5_3_u00_r1_network.node[47].content_store 	misses[47] 	9507
scalar tree_5_3_u00_r1_network.node[47].content_store 	decision_yes[47] 	1
scalar tree_5_3_u00_r1_network.node[47].content_store 	decision_no[47] 	9505
scalar tree_5_3_u00_r1_network.node[47].content_store 	decision_ratio[47] 	0.0001051967178624
scalar tree_5_3_u00_r1_network.node[48].core_layer 	interests[48] 	12012
scalar tree_5_3_u00_r1_network.node[48].core_layer 	data[48] 	9790
scalar tree_5_3_u00_r1_network.node[48].content_store 	p_hit[48] 	0.18481518481518
scalar tree_5_3_u00_r1_network.node[48].content_store 	hits[48] 	2220
scalar tree_5_3_u00_r1_network.node[48].content_store 	misses[48] 	9792
scalar tree_5_3_u00_r1_network.node[48].content_store 	decision_yes[48] 	1
scalar tree_5_3_u00_r1_network.node[48].content_store 	decision_no[48] 	9789
scalar tree_5_3_u00_r1_network.node[48].content_store 	decision_ratio[48] 	0.00010214504596527
scalar tree_5_3_u00_r1_network.node[49].core_layer 	interests[49] 	12042
scalar tree_5_3_u00_r1_network.node[49].core_layer 	data[49] 	9740
scalar tree_5_3_u00_r1_network.node[49].content_store 	p_hit[49] 	0.19116425842883
scalar tree_5_3_u00_r1_network.node[49].content_store 	hits[49] 	2302
scalar tree_5_3_u00_r1_network.node[49].content_store 	misses[49] 	9740
scalar tree_5_3_u00_r1_network.node[49].content_store 	decision_yes[49] 	3
scalar tree_5_3_u00_r1_network.node[49].content_store 	decision_no[49] 	9737
scalar tree_5_3_u00_r1_network.node[49].content_store 	decision_ratio[49] 	0.00030800821355236
scalar tree_5_3_u00_r1_network.node[50].core_layer 	interests[50] 	11953
scalar tree_5_3_u00_r1_network.node[50].core_layer 	data[50] 	9640
scalar tree_5_3_u00_r1_network.node[50].content_store 	p_hit[50] 	0.19350790596503
scalar tree_5_3_u00_r1_network.node[50].content_store 	hits[50] 	2313
scalar tree_5_3_u00_r1_network.node[50].content_store 	misses[50] 	9640
scalar tree_5_3_u00_r1_network.node[50].content_store 	decision_yes[50] 	3
scalar tree_5_3_u00_r1_network.node[50].content_store 	decision_no[50] 	9637
scalar tree_5_3_u00_r1_network.node[50].content_store 	decision_ratio[50] 	0.00031120331950207
scalar tree_5_3_u00_r1_network.node[51].core_layer 	interests[51] 	11849
scalar tree_5_3_u00_r1_network.node[51].core_layer 	data[51] 	9683
scalar tree_5_3_u00_r1_network.node[51].content_store 	p_hit[51] 	0.18271584099924
scalar tree_5_3_u00_r1_network.node[51].content_store 	hits[51] 	2165
scalar tree_5_3_u00_r1_network.node[51].content_store 	misses[51] 	9684
scalar tree_5_3_u00_r1_network.node[51].content_store 	decision_yes[51] 	2
scalar tree_5_3_u00_r1_network.node[51].content_store 	decision_no[51] 	9681
scalar tree_5_3_u00_r1_network.node[51].content_store 	decision_ratio[51] 	0.00020654755757513
scalar tree_5_3_u00_r1_network.node[52].core_layer 	interests[52] 	11972
scalar tree_5_3_u00_r1_network.node[52].core_layer 	data[52] 	9789
scalar tree_5_3_u00_r1_network.node[52].content_store 	p_hit[52] 	0.18242565987304
scalar tree_5_3_u00_r1_network.node[52].content_store 	hits[52] 	2184
scalar tree_5_3_u00_r1_network.node[52].content_store 	misses[52] 	9788
scalar tree_5_3_u00_r1_network.node[52].content_store 	decision_yes[52] 	4
scalar tree_5_3_u00_r1_network.node[52].content_store 	decision_no[52] 	9785
scalar tree_5_3_u00_r1_network.node[52].content_store 	decision_ratio[52] 	0.00040862192256615
scalar tree_5_3_u00_r1_network.node[53].core_layer 	interests[53] 	11911
scalar tree_5_3_u00_r1_network.node[53].core_layer 	data[53] 	9627
scalar tree_5_3_u00_r1_network.node[53].content_store 	p_hit[53] 	0.19175552010746
scalar tree_5_3_u00_r1_network.node[53].content_store 	hits[53] 	2284
scalar tree_5_3_u00_r1_network.node[53].content_store 	misses[53] 	9627
scalar tree_5_3_u00_r1_network.node[53].content_store 	decision_yes[53] 	1
scalar tree_5_3_u00_r1_network.node[53].content_store 	decision_no[53] 	9626
scalar tree_5_3_u00_r1_network.node[53].content_store 	decision_ratio[53] 	0.00010387451958035
scalar tree_5_3_u00_r1_network.node[54].core_layer 	interests[54] 	11920
scalar tree_5_3_u00_r1_network.node[54].core_layer 	data[54] 	9772
scalar tree_5_3_u00_r1_network.node[54].content_store 	p_hit[54] 	0.18011744966443
scalar tree_5_3_u00_r1_network.node[54].content_store 	hits[54] 	2147
scalar tree_5_3_u00_r1_network.node[54].content_store 	misses[54] 	9773
scalar tree_5_3_u00_r1_network.node[54].content_store 	decision_yes[54] 	3
scalar tree_5_3_u00_r1_network.node[54].content_store 	decision_no[54] 	9769
scalar tree_5_3_u00_r1_network.node[54].content_store 	decision_ratio[54] 	0.00030699959066721
scalar tree_5_3_u00_r1_network.node[55].core_layer 	interests[55] 	12090
scalar tree_5_3_u00_r1_network.node[55].core_layer 	data[55] 	9724
scalar tree_5_3_u00_r1_network.node[55].content_store 	p_hit[55] 	0.19569892473118
scalar tree_5_3_u00_r1_network.node[55].content_store 	hits[55] 	2366
scalar tree_5_3_u00_r1_network.node[55].content_store 	misses[55] 	9724
scalar tree_5_3_u00_r1_network.node[55].content_store 	decision_yes[55] 	1
scalar tree_5_3_u00_r1_network.node[55].content_store 	decision_no[55] 	9723
scalar tree_5_3_u00_r1_network.node[55].content_store 	decision_ratio[55] 	0.00010283833813246
scalar tree_5_3_u00_r1_network.node[56].core_layer 	interests[56] 	11860
scalar tree_5_3_u00_r1_network.node[56].core_layer 	data[56] 	9583
scalar tree_5_3_u00_r1_network.node[56].content_store 	p_hit[56] 	0.1920741989882
scalar tree_5_3_u00_r1_network.node[56].content_store 	hits[56] 	2278
scalar tree_5_3_u00_r1_network.node[56].content_store 	misses[56] 	9582
scalar tree_5_3_u00_r1_network.node[56].content_store 	decision_yes[56] 	2
scalar tree_5_3_u00_r1_network.node[56].content_store 	decision_no[56] 	9581
scalar tree_5_3_u00_r1_network.node[56].content_store 	decision_ratio[56] 	0.00020870291140561
scalar tree_5_3_u00_r1_network.node[57].core_layer 	interests[57] 	11978
scalar tree_5_3_u00_r1_network.node[57].core_layer 	data[57] 	9770
scalar tree_5_3_u00_r1_network.node[57].content_store 	p_hit[57] 	0.18433795291368
scalar tree_5_3_u00_r1_network.node[57].content_store 	hits[57] 	2208
scalar tree_5_3_u00_r1_network.node[57].content_store 	misses[57] 	9770
scalar tree_5_3_u00_r1_network.node[57].content_store 	decision_yes[57] 	3
scalar tree_5_3_u00_r1_network.node[57].content_store 	decision_no[57] 	9767
scalar tree_5_3_u00_r1_network.node[57].content_store 	decision_ratio[57] 	0.00030706243602866
scalar tree_5_3_u00_r1_network.node[58].core_layer 	interests[58] 	11997
scalar tree_5_3_u00_r1_network.node[58].core_layer 	data[58] 	9699
scalar tree_5_3_u00_r1_network.node[58].content_store 	p_hit[58] 	0.19154788697174
scalar tree_5_3_u00_r1_network.node[58].content_store 	hits[58] 	2298
scalar tree_5_3_u00_r1_network.node[58].content_store 	misses[58] 	9699
scalar tree_5_3_u00_r1_network.node[58].content_store 	decision_yes[58] 	3
scalar tree_5_3_u00_r1_network.node[58].content_store 	decision_no[58] 	9696
scalar tree_5_3_u00_r1_network.node[58].content_store 	decision_ratio[58] 	0.00030931023816888
scalar tree_5_3_u00_r1_network.node[59].core_layer 	interests[59] 	11982
scalar tree_5_3_u00_r1_network.node[59].core_layer 	data[59] 	9863
scalar tree_5_3_u00_r1_network.node[59].content_store 	p_hit[59] 	0.17676514772158
scalar tree_5_3_u00_r1_network.node[59].content_store 	hits[59] 	2118
scalar tree_5_3_u00_r1_network.node[59].content_store 	misses[59] 	9864
scalar tree_5_3_u00_r1_network.node[59].content_store 	decision_yes[59] 	3
scalar tree_5_3_u00_r1_network.node[59].content_store 	decision_no[59] 	9860
scalar tree_5_3_u00_r1_network.node[59].content_store 	decision_ratio[59] 	0.00030416708912096
scalar tree_5_3_u00_r1_network.node[60].core_layer 	interests[60] 	11860
scalar tree_5_3_u00_r1_network.node[60].core_layer 	data[60] 	9487
scalar tree_5_3_u00_r1_network.node[60].content_store 	p_hit[60] 	0.20008431703204
scalar tree_5_3_u00_r1_network.node[60].content_store 	hits[60] 	2373
scalar tree_5_3_u00_r1_network.node[60].content_store 	misses[60] 	9487
scalar tree_5_3_u00_r1_network.node[60].content_store 	decision_yes[60] 	4
scalar tree_5_3_u00_r1_network.node[60].content_store 	decision_no[60] 	9483
scalar tree_5_3_u00_r1_network.node[60].content_store 	decision_ratio[60] 	0.00042162959839781
scalar tree_5_3_u00_r1_network.node[61].core_layer 	interests[61] 	12025
scalar tree_5_3_u00_r1_network.node[61].core_layer 	data[61] 	9951
scalar tree_5_3_u00_r1_network.node[61].content_store 	p_hit[61] 	0.17247401247401
scalar tree_5_3_u00_r1_network.node[61].content_store 	hits[61] 	2074
scalar tree_5_3_u00_r1_network.node[61].content_store 	misses[61] 	9951
scalar tree_5_3_u00_r1_network.node[61].content_store 	decision_yes[61] 	5
scalar tree_5_3_u00_r1_network.node[61].content_store 	decision_no[61] 	9946
scalar tree_5_3_u00_r1_network.node[61].content_store 	decision_ratio[61] 	0.00050246206411416
scalar tree_5_3_u00_r1_network.node[62].core_layer 	interests[62] 	12081
scalar tree_5_3_u00_r1_network.node[62].core_layer 	data[62] 	9715
scalar tree_5_3_u00_r1_network.node[62].content_store 	p_hit[62] 	0.19584471484149
scalar tree_5_3_u00_r1_network.node[62].content_store 	hits[62] 	2366
scalar tree_5_3_u00_r1_network.node[62].content_store 	misses[62] 	9715
scalar tree_5_3_u00_r1_network.node[62].content_store 	decision_yes[62] 	1
scalar tree_5_3_u00_r1_network.node[62].content_store 	decision_no[62] 	9714
scalar tree_5_3_u00_r1_network.node[62].content_store 	decision_ratio[62] 	0.00010293360782295
scalar tree_5_3_u00_r1_network.node[63].core_layer 	interests[63] 	12013
scalar tree_5_3_u00_r1_network.node[63].core_layer 	data[63] 	9710
scalar tree_5_3_u00_r1_network.node[63].content_store 	p_hit[63] 	0.19162573878299
scalar tree_5_3_u00_r1_network.node[63].content_store 	hits[63] 	2302
scalar tree_5_3_u00_r1_network.node[63].content_store 	misses[63] 	9711
scalar tree_5_3_u00_r1_network.node[63].content_store 	decision_yes[63] 	3
scalar tree_5_3_u00_r1_network.node[63].content_store 	decision_no[63] 	9707
scalar tree_5_3_u00_r1_network.node[63].content_store 	decision_ratio[63] 	0.00030895983522142
scalar tree_5_3_u00_r1_network.node[64].core_layer 	interests[64] 	11918
scalar tree_5_3_u00_r1_network.node[64].core_layer 	data[64] 	9647
scalar tree_5_3_u00_r1_network.node[64].content_store 	p_hit[64] 	0.19063601275382
scalar tree_5_3_u00_r1_network.node[64].content_store 	hits[64] 	2272
scalar tree_5_3_u00_r1_network.node[64].content_store 	misses[64] 	9646
scalar tree_5_3_u00_r1_network.node[64].content_store 	decision_yes[64] 	2
scalar tree_5_3_u00_r1_network.node[64].content_store 	decision_no[64] 	9645
scalar tree_5_3_u00_r1_network.node[64].content_store 	decision_ratio[64] 	0.00020731833730693
scalar tree_5_3_u00_r1_network.node[65].core_layer 	interests[65] 	12068
scalar tree_5_3_u00_r1_network.node[65].core_layer 	data[65] 	10025
scalar tree_5_3_u00_r1_network.node[65].content_store 	p_hit[65] 	0.16920782234007
scalar tree_5_3_u00_r1_network.node[65].content_store 	hits[65] 	2042
scalar tree_5_3_u00_r1_network.node[65].content_store 	misses[65] 	10026
scalar tree_5_3_u00_r1_network.node[65].content_store 	decision_yes[65] 	4
scalar tree_5_3_u00_r1_network.node[65].content_store 	decision_no[65] 	10021
scalar tree_5_3_u00_r1_network.node[65].content_store 	decision_ratio[65] 	0.00039900249376559
scalar tree_5_3_u00_r1_network.node[66].core_layer 	interests[66] 	12079
scalar tree_5_3_u00_r1_network.node[66].core_layer 	data[66] 	9585
scalar tree_5_3_u00_r1_network.node[66].content_store 	p_hit[66] 	0.20647404586472
scalar tree_5_3_u00_r1_network.node[66].content_store 	hits[66] 	2494
scalar tree_5_3_u00_r1_network.node[66].content_store 	misses[66] 	9585
scalar tree_5_3_u00_r1_network.node[66].content_store 	decision_yes[66] 	1
scalar tree_5_3_u00_r1_network.node[66].content_store 	decision_no[66] 	9584
scalar tree_5_3_u00_r1_network.node[66].content_store 	decision_ratio[66] 	0.00010432968179447
scalar tree_5_3_u00_r1_network.node[67].core_layer 	interests[67] 	11988
scalar tree_5_3_u00_r1_network.node[67].core_layer 	data[67] 	9615
scalar tree_5_3_u00_r1_network.node[67].content_store 	p_hit[67] 	0.19794794794795
scalar tree_5_3_u00_r1_network.node[67].content_store 	hits[67] 	2373
scalar tree_5_3_u00_r1_network.node[67].content_store 	misses[67] 	9615
scalar tree_5_3_u00_r1_network.node[67].content_store 	decision_yes[67] 	6
scalar tree_5_3_u00_r1_network.node[67].content_store 	decision_no[67] 	9609
scalar tree_5_3_u00_r1_network.node[67].content_store 	decision_ratio[67] 	0.00062402496099844
scalar tree_5_3_u00_r1_network.node[68].core_layer 	interests[68] 	12053
scalar tree_5_3_u00_r1_network.node[68].core_layer 	data[68] 	9881
scalar tree_5_3_u00_r1_network.node[68].content_store 	p_hit[68] 	0.18012113166846
scalar tree_5_3_u00_r1_network.node[68].content_store 	hits[68] 	2171
scalar tree_5_3_u00_r1_network.node[68].content_store 	misses[68] 	9882
scalar tree_5_3_u00_r1_network.node[68].content_store 	decision_yes[68] 	4
scalar tree_5_3_u00_r1_network.node[68].content_store 	decision_no[68] 	9877
scalar tree_5_3_u00_r1_network.node[68].content_store 	decision_ratio[68] 	0.00040481732618156
scalar tree_5_3_u00_r1_network.node[69].core_layer 	interests[69] 	11972
scalar tree_5_3_u00_r1_network.node[69].core_layer 	data[69] 	9805
scalar tree_5_3_u00_r1_network.node[69].content_store 	p_hit[69] 	0.18108920815236
scalar tree_5_3_u00_r1_network.node[69].content_store 	hits[69] 	2168
scalar tree_5_3_u00_r1_network.node[69].content_store 	misses[69] 	9804
scalar tree_5_3_u00_r1_network.node[69].content_store 	decision_yes[69] 	3
scalar tree_5_3_u00_r1_network.node[69].content_store 	decision_no[69] 	9802
scalar tree_5_3_u00_r1_network.node[69].content_store 	decision_ratio[69] 	0.00030596634370219
scalar tree_5_3_u00_r1_network.node[70].core_layer 	interests[70] 	11932
scalar tree_5_3_u00_r1_network.node[70].core_layer 	data[70] 	9827
scalar tree_5_3_u00_r1_network.node[70].content_store 	p_hit[70] 	0.17641635936976
scalar tree_5_3_u00_r1_network.node[70].content_store 	hits[70] 	2105
scalar tree_5_3_u00_r1_network.node[70].content_store 	misses[70] 	9827
scalar tree_5_3_u00_r1_network.node[70].content_store 	decision_yes[70] 	2
scalar tree_5_3_u00_r1_network.node[70].content_store 	decision_no[70] 	9825
scalar tree_5_3_u00_r1_network.node[70].content_store 	decision_ratio[70] 	0.00020352091177368
scalar tree_5_3_u00_r1_network.node[71].core_layer 	interests[71] 	12007
scalar tree_5_3_u00_r1_network.node[71].core_layer 	data[71] 	9603
scalar tree_5_3_u00_r1_network.node[71].content_store 	p_hit[71] 	0.2001332556009
scalar tree_5_3_u00_r1_network.node[71].content_store 	hits[71] 	2403
scalar tree_5_3_u00_r1_network.node[71].content_store 	misses[71] 	9604
scalar tree_5_3_u00_r1_network.node[71].content_store 	decision_yes[71] 	3
scalar tree_5_3_u00_r1_network.node[71].content_store 	decision_no[71] 	9600
scalar tree_5_3_u00_r1_network.node[71].content_store 	decision_ratio[71] 	0.00031240237425804
scalar tree_5_3_u00_r1_network.node[72].core_layer 	interests[72] 	12096
scalar tree_5_3_u00_r1_network.node[72].core_layer 	data[72] 	9950
scalar tree_5_3_u00_r1_network.node[72].content_store 	p_hit[72] 	0.17733134920635
scalar tree_5_3_u00_r1_network.node[72].content_store 	hits[72] 	2145
scalar tree_5_3_u00_r1_network.node[72].content_store 	misses[72] 	9951
scalar tree_5_3_u00_r1_network.node[72].content_store 	decision_yes[72] 	4
scalar tree_5_3_u00_r1_network.node[72].content_store 	decision_no[72] 	9946
scalar tree_5_3_u00_r1_network.node[72].content_store 	decision_ratio[72] 	0.00040201005025126
scalar tree_5_3_u00_r1_network.node[73].core_layer 	interests[73] 	12095
scalar tree_5_3_u00_r1_network.node[73].core_layer 	data[73] 	9656
scalar tree_5_3_u00_r1_network.node[73].content_store 	p_hit[73] 	0.20165357585779
scalar tree_5_3_u00_r1_network.node[73].content_store 	hits[73] 	2439
scalar tree_5_3_u00_r1_network.node[73].content_store 	misses[73] 	9656
scalar tree_5_3_u00_r1_network.node[73].content_store 	decision_yes[73] 	3
scalar tree_5_3_u00_r1_network.node[73].content_store 	decision_no[73] 	9653
scalar tree_5_3_u00_r1_network.node[73].content_store 	decision_ratio[73] 	0.00031068765534383
scalar tree_5_3_u00_r1_network.node[74].core_layer 	interests[74] 	12075
scalar tree_5_3_u00_r1_network.node[74].core_layer 	data[74] 	9845
scalar tree_5_3_u00_r1_network.node[74].content_store 	p_hit[74] 	0.18467908902692
scalar tree_5_3_u00_r1_network.node[74].content_store 	hits[74] 	2230
scalar tree_5_3_u00_r1_network.node[74].content_store 	misses[74] 	9845
scalar tree_5_3_u00_r1_network.node[74].content_store 	decision_yes[74] 	3
scalar tree_5_3_u00_r1_network.node[74].content_store 	decision_no[74] 	9842
scalar tree_5_3_u00_r1_network.node[74].content_store 	decision_ratio[74] 	0.00030472320975114
scalar tree_5_3_u00_r1_network.node[75].core_layer 	interests[75] 	11850
scalar tree_5_3_u00_r1_network.node[75].core_layer 	data[75] 	9804
scalar tree_5_3_u00_r1_network.node[75].content_store 	p_hit[75] 	0.17248945147679
scalar tree_5_3_u00_r1_network.node[75].content_store 	hits[75] 	2044
scalar tree_5_3_u00_r1_network.node[75].content_store 	misses[75] 	9806
scalar tree_5_3_u00_r1_network.node[75].content_store 	decision_yes[75] 	4
scalar tree_5_3_u00_r1_network.node[75].content_store 	decision_no[75] 	9800
scalar tree_5_3_u00_r1_network.node[75].content_store 	decision_ratio[75] 	0.00040799673602611
scalar tree_5_3_u00_r1_network.node[76].core_layer 	interests[76] 	12075
scalar tree_5_3_u00_r1_network.node[76].core_layer 	data[76] 	9669
scalar tree_5_3_u00_r1_network.node[76].content_store 	p_hit[76] 	0.19925465838509
scalar tree_5_3_u00_r1_network.node[76].content_store 	hits[76] 	2406
scalar tree_5_3_u00_r1_network.node[76].content_store 	misses[76] 	9669
scalar tree_5_3_u00_r1_network.node[76].content_store 	decision_yes[76] 	2
scalar tree_5_3_u00_r1_network.node[76].content_store 	decision_no[76] 	9667
scalar tree_5_3_u00_r1_network.node[76].content_store 	decision_ratio[76] 	0.00020684662322888
scalar tree_5_3_u00_r1_network.node[77].core_layer 	interests[77] 	11918
scalar tree_5_3_u00_r1_network.node[77].core_layer 	data[77] 	9441
scalar tree_5_3_u00_r1_network.node[77].content_store 	p_hit[77] 	0.20783688538345
scalar tree_5_3_u00_r1_network.node[77].content_store 	hits[77] 	2477
scalar tree_5_3_u00_r1_network.node[77].content_store 	misses[77] 	9441
scalar tree_5_3_u00_r1_network.node[77].content_store 	decision_yes[77] 	3
scalar tree_5_3_u00_r1_network.node[77].content_store 	decision_no[77] 	9438
scalar tree_5_3_u00_r1_network.node[77].content_store 	decision_ratio[77] 	0.00031776294884017
scalar tree_5_3_u00_r1_network.node[78].core_layer 	interests[78] 	12197
scalar tree_5_3_u00_r1_network.node[78].core_layer 	data[78] 	9918
scalar tree_5_3_u00_r1_network.node[78].content_store 	p_hit[78] 	0.18684922521932
scalar tree_5_3_u00_r1_network.node[78].content_store 	hits[78] 	2279
scalar tree_5_3_u00_r1_network.node[78].content_store 	misses[78] 	9918
scalar tree_5_3_u00_r1_network.node[78].content_store 	decision_yes[78] 	0
scalar tree_5_3_u00_r1_network.node[78].content_store 	decision_no[78] 	9918
scalar tree_5_3_u00_r1_network.node[78].content_store 	decision_ratio[78] 	0
scalar tree_5_3_u00_r1_network.node[79].core_layer 	interests[79] 	12054
scalar tree_5_3_u00_r1_network.node[79].core_layer 	data[79] 	9772
scalar tree_5_3_u00_r1_network.node[79].content_store 	p_hit[79] 	0.18923179027709
scalar tree_5_3_u00_r1_network.node[79].content_store 	hits[79] 	2281
scalar tree_5_3_u00_r1_network.node[79].content_store 	misses[79] 	9773
scalar tree_5_3_u00_r1_network.node[79].content_store 	decision_yes[79] 	7
scalar tree_5_3_u00_r1_network.node[79].content_store 	decision_no[79] 	9765
scalar tree_5_3_u00_r1_network.node[79].content_store 	decision_ratio[79] 	0.0007163323782235
scalar tree_5_3_u00_r1_network.node[80].core_layer 	interests[80] 	11951
scalar tree_5_3_u00_r1_network.node[80].core_layer 	data[80] 	9736
scalar tree_5_3_u00_r1_network.node[80].content_store 	p_hit[80] 	0.18517278888796
scalar tree_5_3_u00_r1_network.node[80].content_store 	hits[80] 	2213
scalar tree_5_3_u00_r1_network.node[80].content_store 	misses[80] 	9738
scalar tree_5_3_u00_r1_network.node[80].content_store 	decision_yes[80] 	5
scalar tree_5_3_u00_r1_network.node[80].content_store 	decision_no[80] 	9731
scalar tree_5_3_u00_r1_network.node[80].content_store 	decision_ratio[80] 	0.00051355792933443
scalar tree_5_3_u00_r1_network.node[81].core_layer 	interests[81] 	11997
scalar tree_5_3_u00_r1_network.node[81].core_layer 	data[81] 	9755
scalar tree_5_3_u00_r1_network.node[81].content_store 	p_hit[81] 	0.18696340751855
scalar tree_5_3_u00_r1_network.node[81].content_store 	hits[81] 	2243
scalar tree_5_3_u00_r1_network.node[81].content_store 	misses[81] 	9754
scalar tree_5_3_u00_r1_network.node[81].content_store 	decision_yes[81] 	7
scalar tree_5_3_u00_r1_network.node[81].content_store 	decision_no[81] 	9748
scalar tree_5_3_u00_r1_network.node[81].content_store 	decision_ratio[81] 	0.00071758072783188
scalar tree_5_3_u00_r1_network.node[82].core_layer 	interests[82] 	12088
scalar tree_5_3_u00_r1_network.node[82].core_layer 	data[82] 	9848
scalar tree_5_3_u00_r1_network.node[82].content_store 	p_hit[82] 	0.18530774321641
scalar tree_5_3_u00_r1_network.node[82].content_store 	hits[82] 	2240
scalar tree_5_3_u00_r1_network.node[82].content_store 	misses[82] 	9848
scalar tree_5_3_u00_r1_network.node[82].content_store 	decision_yes[82] 	2
scalar tree_5_3_u00_r1_network.node[82].content_store 	decision_no[82] 	9846
scalar tree_5_3_u00_r1_network.node[82].content_store 	decision_ratio[82] 	0.00020308692120227
scalar tree_5_3_u00_r1_network.node[83].core_layer 	interests[83] 	12034
scalar tree_5_3_u00_r1_network.node[83].core_layer 	data[83] 	9858
scalar tree_5_3_u00_r1_network.node[83].content_store 	p_hit[83] 	0.18090410503573
scalar tree_5_3_u00_r1_network.node[83].content_store 	hits[83] 	2177
scalar tree_5_3_u00_r1_network.node[83].content_store 	misses[83] 	9857
scalar tree_5_3_u00_r1_network.node[83].content_store 	decision_yes[83] 	3
scalar tree_5_3_u00_r1_network.node[83].content_store 	decision_no[83] 	9855
scalar tree_5_3_u00_r1_network.node[83].content_store 	decision_ratio[83] 	0.00030432136335971
scalar tree_5_3_u00_r1_network.node[84].core_layer 	interests[84] 	11952
scalar tree_5_3_u00_r1_network.node[84].core_layer 	data[84] 	9709
scalar tree_5_3_u00_r1_network.node[84].content_store 	p_hit[84] 	0.18758366800535
scalar tree_5_3_u00_r1_network.node[84].content_store 	hits[84] 	2242
scalar tree_5_3_u00_r1_network.node[84].content_store 	misses[84] 	9710
scalar tree_5_3_u00_r1_network.node[84].content_store 	decision_yes[84] 	2
scalar tree_5_3_u00_r1_network.node[84].content_store 	decision_no[84] 	9707
scalar tree_5_3_u00_r1_network.node[84].content_store 	decision_ratio[84] 	0.00020599443815017
scalar tree_5_3_u00_r1_network.node[85].core_layer 	interests[85] 	11906
scalar tree_5_3_u00_r1_network.node[85].core_layer 	data[85] 	9683
scalar tree_5_3_u00_r1_network.node[85].content_store 	p_hit[85] 	0.18671258189148
scalar tree_5_3_u00_r1_network.node[85].content_store 	hits[85] 	2223
scalar tree_5_3_u00_r1_network.node[85].content_store 	misses[85] 	9683
scalar tree_5_3_u00_r1_network.node[85].content_store 	decision_yes[85] 	2
scalar tree_5_3_u00_r1_network.node[85].content_store 	decision_no[85] 	9681
scalar tree_5_3_u00_r1_network.node[85].content_store 	decision_ratio[85] 	0.00020654755757513
scalar tree_5_3_u00_r1_network.node[86].core_layer 	interests[86] 	12058
scalar tree_5_3_u00_r1_network.node[86].core_layer 	data[86] 	9766
scalar tree_5_3_u00_r1_network.node[86].content_store 	p_hit[86] 	0.19008127384309
scalar tree_5_3_u00_r1_network.node[86].content_store 	hits[86] 	2292
scalar tree_5_3_u00_r1_network.node[86].content_store 	misses[86] 	9766
scalar tree_5_3_u00_r1_network.node[86].content_store 	decision_yes[86] 	5
scalar tree_5_3_u00_r1_network.node[86].content_store 	decision_no[86] 	9761
scalar tree_5_3_u00_r1_network.node[86].content_store 	decision_ratio[86] 	0.00051198033995495
scalar tree_5_3_u00_r1_network.node[87].core_layer 	interests[87] 	11889
scalar tree_5_3_u00_r1_network.node[87].core_layer 	data[87] 	9540
scalar tree_5_3_u00_r1_network.node[87].content_store 	p_hit[87] 	0.19757759273278
scalar tree_5_3_u00_r1_network.node[87].content_store 	hits[87] 	2349
scalar tree_5_3_u00_r1_network.node[87].content_store 	misses[87] 	9540
scalar tree_5_3_u00_r1_network.node[87].content_store 	decision_yes[87] 	4
scalar tree_5_3_u00_r1_network.node[87].content_store 	decision_no[87] 	9536
scalar tree_5_3_u00_r1_network.node[87].content_store 	decision_ratio[87] 	0.00041928721174004
scalar tree_5_3_u00_r1_network.node[88].core_layer 	interests[88] 	12307
scalar tree_5_3_u00_r1_network.node[88].core_layer 	data[88] 	9957
scalar tree_5_3_u00_r1_network.node[88].content_store 	p_hit[88] 	0.19086698626798
scalar tree_5_3_u00_r1_network.node[88].content_store 	hits[88] 	2349
scalar tree_5_3_u00_r1_network.node[88].content_store 	misses[88] 	9958
scalar tree_5_3_u00_r1_network.node[88].content_store 	decision_yes[88] 	1
scalar tree_5_3_u00_r1_network.node[88].content_store 	decision_no[88] 	9956
scalar tree_5_3_u00_r1_network.node[88].content_store 	decision_ratio[88] 	0.00010043185698504
scalar tree_5_3_u00_r1_network.node[89].core_layer 	interests[89] 	12036
scalar tree_5_3_u00_r1_network.node[89].core_layer 	data[89] 	9495
scalar tree_5_3_u00_r1_network.node[89].content_store 	p_hit[89] 	0.21111665004985
scalar tree_5_3_u00_r1_network.node[89].content_store 	hits[89] 	2541
scalar tree_5_3_u00_r1_network.node[89].content_store 	misses[89] 	9495
scalar tree_5_3_u00_r1_network.node[89].content_store 	decision_yes[89] 	3
scalar tree_5_3_u00_r1_network.node[89].content_store 	decision_no[89] 	9492
scalar tree_5_3_u00_r1_network.node[89].content_store 	decision_ratio[89] 	0.00031595576619273
scalar tree_5_3_u00_r1_network.node[90].core_layer 	interests[90] 	12024
scalar tree_5_3_u00_r1_network.node[90].core_layer 	data[90] 	9797
scalar tree_5_3_u00_r1_network.node[90].content_store 	p_hit[90] 	0.18504657351963
scalar tree_5_3_u00_r1_network.node[90].content_store 	hits[90] 	2225
scalar tree_5_3_u00_r1_network.node[90].content_store 	misses[90] 	9799
scalar tree_5_3_u00_r1_network.node[90].content_store 	decision_yes[90] 	6
scalar tree_5_3_u00_r1_network.node[90].content_store 	decision_no[90] 	9791
scalar tree_5_3_u00_r1_network.node[90].content_store 	decision_ratio[90] 	0.00061243237725834
scalar tree_5_3_u00_r1_network.node[91].core_layer 	interests[91] 	11983
scalar tree_5_3_u00_r1_network.node[91].core_layer 	data[91] 	9706
scalar tree_5_3_u00_r1_network.node[91].content_store 	p_hit[91] 	0.18993574230159
scalar tree_5_3_u00_r1_network.node[91].content_store 	hits[91] 	2276
scalar tree_5_3_u00_r1_network.node[91].content_store 	misses[91] 	9707
scalar tree_5_3_u00_r1_network.node[91].content_store 	decision_yes[91] 	5
scalar tree_5_3_u00_r1_network.node[91].content_store 	decision_no[91] 	9701
scalar tree_5_3_u00_r1_network.node[91].content_store 	decision_ratio[91] 	0.00051514527096641
scalar tree_5_3_u00_r1_network.node[92].core_layer 	interests[92] 	11984
scalar tree_5_3_u00_r1_network.node[92].core_layer 	data[92] 	9699
scalar tree_5_3_u00_r1_network.node[92].content_store 	p_hit[92] 	0.19067089452603
scalar tree_5_3_u00_r1_network.node[92].content_store 	hits[92] 	2285
scalar tree_5_3_u00_r1_network.node[92].content_store 	misses[92] 	9699
scalar tree_5_3_u00_r1_network.node[92].content_store 	decision_yes[92] 	4
scalar tree_5_3_u00_r1_network.node[92].content_store 	decision_no[92] 	9695
scalar tree_5_3_u00_r1_network.node[92].content_store 	decision_ratio[92] 	0.00041241365089184
scalar tree_5_3_u00_r1_network.node[93].core_layer 	interests[93] 	12081
scalar tree_5_3_u00_r1_network.node[93].core_layer 	data[93] 	9892
scalar tree_5_3_u00_r1_network.node[93].content_store 	p_hit[93] 	0.18119360980051
scalar tree_5_3_u00_r1_network.node[93].content_store 	hits[93] 	2189
scalar tree_5_3_u00_r1_network.node[93].content_store 	misses[93] 	9892
scalar tree_5_3_u00_r1_network.node[93].content_store 	decision_yes[93] 	1
scalar tree_5_3_u00_r1_network.node[93].content_store 	decision_no[93] 	9891
scalar tree_5_3_u00_r1_network.node[93].content_store 	decision_ratio[93] 	0.00010109179134654
scalar tree_5_3_u00_r1_network.node[94].core_layer 	interests[94] 	12030
scalar tree_5_3_u00_r1_network.node[94].core_layer 	data[94] 	9677
scalar tree_5_3_u00_r1_network.node[94].content_store 	p_hit[94] 	0.19567747298421
scalar tree_5_3_u00_r1_network.node[94].content_store 	hits[94] 	2354
scalar tree_5_3_u00_r1_network.node[94].content_store 	misses[94] 	9676
scalar tree_5_3_u00_r1_network.node[94].content_store 	decision_yes[94] 	3
scalar tree_5_3_u00_r1_network.node[94].content_store 	decision_no[94] 	9674
scalar tree_5_3_u00_r1_network.node[94].content_store 	decision_ratio[94] 	0.00031001343391547
scalar tree_5_3_u00_r1_network.node[95].core_layer 	interests[95] 	12204
scalar tree_5_3_u00_r1_network.node[95].core_layer 	data[95] 	9983
scalar tree_5_3_u00_r1_network.node[95].content_store 	p_hit[95] 	0.18207145198296
scalar tree_5_3_u00_r1_network.node[95].content_store 	hits[95] 	2222
scalar tree_5_3_u00_r1_network.node[95].content_store 	misses[95] 	9982
scalar tree_5_3_u00_r1_network.node[95].content_store 	decision_yes[95] 	2
scalar tree_5_3_u00_r1_network.node[95].content_store 	decision_no[95] 	9981
scalar tree_5_3_u00_r1_network.node[95].content_store 	decision_ratio[95] 	0.00020034057898427
scalar tree_5_3_u00_r1_network.node[96].core_layer 	interests[96] 	12004
scalar tree_5_3_u00_r1_network.node[96].core_layer 	data[96] 	9728
scalar tree_5_3_u00_r1_network.node[96].content_store 	p_hit[96] 	0.1896034655115
scalar tree_5_3_u00_r1_network.node[96].content_store 	hits[96] 	2276
scalar tree_5_3_u00_r1_network.node[96].content_store 	misses[96] 	9728
scalar tree_5_3_u00_r1_network.node[96].content_store 	decision_yes[96] 	3
scalar tree_5_3_u00_r1_network.node[96].content_store 	decision_no[96] 	9725
scalar tree_5_3_u00_r1_network.node[96].content_store 	decision_ratio[96] 	0.00030838815789474
scalar tree_5_3_u00_r1_network.node[97].core_layer 	interests[97] 	12075
scalar tree_5_3_u00_r1_network.node[97].core_layer 	data[97] 	9717
scalar tree_5_3_u00_r1_network.node[97].content_store 	p_hit[97] 	0.19527950310559
scalar tree_5_3_u00_r1_network.node[97].content_store 	hits[97] 	2358
scalar tree_5_3_u00_r1_network.node[97].content_store 	misses[97] 	9717
scalar tree_5_3_u00_r1_network.node[97].content_store 	decision_yes[97] 	2
scalar tree_5_3_u00_r1_network.node[97].content_store 	decision_no[97] 	9715
scalar tree_5_3_u00_r1_network.node[97].content_store 	decision_ratio[97] 	0.00020582484305856
scalar tree_5_3_u00_r1_network.node[98].core_layer 	interests[98] 	12055
scalar tree_5_3_u00_r1_network.node[98].core_layer 	data[98] 	9717
scalar tree_5_3_u00_r1_network.node[98].content_store 	p_hit[98] 	0.19394442140191
scalar tree_5_3_u00_r1_network.node[98].content_store 	hits[98] 	2338
scalar tree_5_3_u00_r1_network.node[98].content_store 	misses[98] 	9717
scalar tree_5_3_u00_r1_network.node[98].content_store 	decision_yes[98] 	0
scalar tree_5_3_u00_r1_network.node[98].content_store 	decision_no[98] 	9717
scalar tree_5_3_u00_r1_network.node[98].content_store 	decision_ratio[98] 	0
scalar tree_5_3_u00_r1_network.node[99].core_layer 	interests[99] 	12112
scalar tree_5_3_u00_r1_network.node[99].core_layer 	data[99] 	9858
scalar tree_5_3_u00_r1_network.node[99].content_store 	p_hit[99] 	0.1860964332893
scalar tree_5_3_u00_r1_network.node[99].content_store 	hits[99] 	2254
scalar tree_5_3_u00_r1_network.node[99].content_store 	misses[99] 	9858
scalar tree_5_3_u00_r1_network.node[99].content_store 	decision_yes[99] 	2
scalar tree_5_3_u00_r1_network.node[99].content_store 	decision_no[99] 	9856
scalar tree_5_3_u00_r1_network.node[99].content_store 	decision_ratio[99] 	0.00020288090890647
scalar tree_5_3_u00_r1_network.node[100].core_layer 	interests[100] 	11968
scalar tree_5_3_u00_r1_network.node[100].core_layer 	data[100] 	9685
scalar tree_5_3_u00_r1_network.node[100].content_store 	p_hit[100] 	0.1908422459893
scalar tree_5_3_u00_r1_network.node[100].content_store 	hits[100] 	2284
scalar tree_5_3_u00_r1_network.node[100].content_store 	misses[100] 	9684
scalar tree_5_3_u00_r1_network.node[100].content_store 	decision_yes[100] 	3
scalar tree_5_3_u00_r1_network.node[100].content_store 	decision_no[100] 	9682
scalar tree_5_3_u00_r1_network.node[100].content_store 	decision_ratio[100] 	0.00030975735673722
scalar tree_5_3_u00_r1_network.node[101].core_layer 	interests[101] 	12135
scalar tree_5_3_u00_r1_network.node[101].core_layer 	data[101] 	9918
scalar tree_5_3_u00_r1_network.node[101].content_store 	p_hit[101] 	0.18269468479604
scalar tree_5_3_u00_r1_network.node[101].content_store 	hits[101] 	2217
scalar tree_5_3_u00_r1_network.node[101].content_store 	misses[101] 	9918
scalar tree_5_3_u00_r1_network.node[101].content_store 	decision_yes[101] 	1
scalar tree_5_3_u00_r1_network.node[101].content_store 	decision_no[101] 	9917
scalar tree_5_3_u00_r1_network.node[101].content_store 	decision_ratio[101] 	0.00010082677959266
scalar tree_5_3_u00_r1_network.node[102].core_layer 	interests[102] 	11826
scalar tree_5_3_u00_r1_network.node[102].core_layer 	data[102] 	9468
scalar tree_5_3_u00_r1_network.node[102].content_store 	p_hit[102] 	0.19939117199391
scalar tree_5_3_u00_r1_network.node[102].content_store 	hits[102] 	2358
scalar tree_5_3_u00_r1_network.node[102].content_store 	misses[102] 	9468
scalar tree_5_3_u00_r1_network.node[102].content_store 	decision_yes[102] 	0
scalar tree_5_3_u00_r1_network.node[102].content_store 	decision_no[102] 	9468
scalar tree_5_3_u00_r1_network.node[102].content_store 	decision_ratio[102] 	0
scalar tree_5_3_u00_r1_network.node[103].core_layer 	interests[103] 	11923
scalar tree_5_3_u00_r1_network.node[103].core_layer 	data[103] 	9562
scalar tree_5_3_u00_r1_network.node[103].content_store 	p_hit[103] 	0.19793676088233
scalar tree_5_3_u00_r1_network.node[103].content_store 	hits[103] 	2360
scalar tree_5_3_u00_r1_network.node[103].content_store 	misses[103] 	9563
scalar tree_5_3_u00_r1_network.node[103].content_store 	decision_yes[103] 	2
scalar tree_5_3_u00_r1_network.node[103].content_store 	decision_no[103] 	9560
scalar tree_5_3_u00_r1_network.node[103].content_store 	decision_ratio[103] 	0.00020916126333403
scalar tree_5_3_u00_r1_network.node[104].core_layer 	interests[104] 	11807
scalar tree_5_3_u00_r1_network.node[104].core_layer 	data[104] 	9564
scalar tree_5_3_u00_r1_network.node[104].content_store 	p_hit[104] 	0.18997205047853
scalar tree_5_3_u00_r1_network.node[104].content_store 	hits[104] 	2243
scalar tree_5_3_u00_r1_network.node[104].content_store 	misses[104] 	9564
scalar tree_5_3_u00_r1_network.node[104].content_store 	decision_yes[104] 	0
scalar tree_5_3_u00_r1_network.node[104].content_store 	decision_no[104] 	9564
scalar tree_5_3_u00_r1_network.node[104].content_store 	decision_ratio[104] 	0
scalar tree_5_3_u00_r1_network.node[105].core_layer 	interests[105] 	11961
scalar tree_5_3_u00_r1_network.node[105].core_layer 	data[105] 	9748
scalar tree_5_3_u00_r1_network.node[105].content_store 	p_hit[105] 	0.18485076498621
scalar tree_5_3_u00_r1_network.node[105].content_store 	hits[105] 	2211
scalar tree_5_3_u00_r1_network.node[105].content_store 	misses[105] 	9750
scalar tree_5_3_u00_r1_network.node[105].content_store 	decision_yes[105] 	2
scalar tree_5_3_u00_r1_network.node[105].content_store 	decision_no[105] 	9746
scalar tree_5_3_u00_r1_network.node[105].content_store 	decision_ratio[105] 	0.00020517029134181
scalar tree_5_3_u00_r1_network.node[106].core_layer 	interests[106] 	12056
scalar tree_5_3_u00_r1_network.node[106].core_layer 	data[106] 	9796
scalar tree_5_3_u00_r1_network.node[106].content_store 	p_hit[106] 	0.18745852687459
scalar tree_5_3_u00_r1_network.node[106].content_store 	hits[106] 	2260
scalar tree_5_3_u00_r1_network.node[106].content_store 	misses[106] 	9796
scalar tree_5_3_u00_r1_network.node[106].content_store 	decision_yes[106] 	1
scalar tree_5_3_u00_r1_network.node[106].content_store 	decision_no[106] 	9795
scalar tree_5_3_u00_r1_network.node[106].content_store 	decision_ratio[106] 	0.00010208248264598
scalar tree_5_3_u00_r1_network.node[107].core_layer 	interests[107] 	12051
scalar tree_5_3_u00_r1_network.node[107].core_layer 	data[107] 	9698
scalar tree_5_3_u00_r1_network.node[107].content_store 	p_hit[107] 	0.19525350593312
scalar tree_5_3_u00_r1_network.node[107].content_store 	hits[107] 	2353
scalar tree_5_3_u00_r1_network.node[107].content_store 	misses[107] 	9698
scalar tree_5_3_u00_r1_network.node[107].content_store 	decision_yes[107] 	2
scalar tree_5_3_u00_r1_network.node[107].content_store 	decision_no[107] 	9696
scalar tree_5_3_u00_r1_network.node[107].content_store 	decision_ratio[107] 	0.00020622808826562
scalar tree_5_3_u00_r1_network.node[108].core_layer 	interests[108] 	12055
scalar tree_5_3_u00_r1_network.node[108].core_layer 	data[108] 	9846
scalar tree_5_3_u00_r1_network.node[108].content_store 	p_hit[108] 	0.1832434674409
scalar tree_5_3_u00_r1_network.node[108].content_store 	hits[108] 	2209
scalar tree_5_3_u00_r1_network.node[108].content_store 	misses[108] 	9846
scalar tree_5_3_u00_r1_network.node[108].content_store 	decision_yes[108] 	3
scalar tree_5_3_u00_r1_network.node[108].content_store 	decision_no[108] 	9843
scalar tree_5_3_u00_r1_network.node[108].content_store 	decision_ratio[108] 	0.00030469226081658
scalar tree_5_3_u00_r1_network.node[109].core_layer 	interests[109] 	12116
scalar tree_5_3_u00_r1_network.node[109].core_layer 	data[109] 	9888
scalar tree_5_3_u00_r1_network.node[109].content_store 	p_hit[109] 	0.18388907230109
scalar tree_5_3_u00_r1_network.node[109].content_store 	hits[109] 	2228
scalar tree_5_3_u00_r1_network.node[109].content_store 	misses[109] 	9888
scalar tree_5_3_u00_r1_network.node[109].content_store 	decision_yes[109] 	4
scalar tree_5_3_u00_r1_network.node[109].content_store 	decision_no[109] 	9884
scalar tree_5_3_u00_r1_network.node[109].content_store 	decision_ratio[109] 	0.00040453074433657
scalar tree_5_3_u00_r1_network.node[110].core_layer 	interests[110] 	12054
scalar tree_5_3_u00_r1_network.node[110].core_layer 	data[110] 	9773
scalar tree_5_3_u00_r1_network.node[110].content_store 	p_hit[110] 	0.18931475029036
scalar tree_5_3_u00_r1_network.node[110].content_store 	hits[110] 	2282
scalar tree_5_3_u00_r1_network.node[110].content_store 	misses[110] 	9772
scalar tree_5_3_u00_r1_network.node[110].content_store 	decision_yes[110] 	2
scalar tree_5_3_u00_r1_network.node[110].content_store 	decision_no[110] 	9771
scalar tree_5_3_u00_r1_network.node[110].content_store 	decision_ratio[110] 	0.00020464545175483
scalar tree_5_3_u00_r1_network.node[111].core_layer 	interests[111] 	12124
scalar tree_5_3_u00_r1_network.node[111].core_layer 	data[111] 	9728
scalar tree_5_3_u00_r1_network.node[111].content_store 	p_hit[111] 	0.19762454635434
scalar tree_5_3_u00_r1_network.node[111].content_store 	hits[111] 	2396
scalar tree_5_3_u00_r1_network.node[111].content_store 	misses[111] 	9728
scalar tree_5_3_u00_r1_network.node[111].content_store 	decision_yes[111] 	3
scalar tree_5_3_u00_r1_network.node[111].content_store 	decision_no[111] 	9725
scalar tree_5_3_u00_r1_network.node[111].content_store 	decision_ratio[111] 	0.00030838815789474
scalar tree_5_3_u00_r1_network.node[112].core_layer 	interests[112] 	12037
scalar tree_5_3_u00_r1_network.node[112].core_layer 	data[112] 	9660
scalar tree_5_3_u00_r1_network.node[112].content_store 	p_hit[112] 	0.19739137658885
scalar tree_5_3_u00_r1_network.node[112].content_store 	hits[112] 	2376
scalar tree_5_3_u00_r1_network.node[112].content_store 	misses[112] 	9661
scalar tree_5_3_u00_r1_network.node[112].content_store 	decision_yes[112] 	5
scalar tree_5_3_u00_r1_network.node[112].content_store 	decision_no[112] 	9655
scalar tree_5_3_u00_r1_network.node[112].content_store 	decision_ratio[112] 	0.0005175983436853
scalar tree_5_3_u00_r1_network.node[113].core_layer 	interests[113] 	12012
scalar tree_5_3_u00_r1_network.node[113].core_layer 	data[113] 	9641
scalar tree_5_3_u00_r1_network.node[113].content_store 	p_hit[113] 	0.19738594738595
scalar tree_5_3_u00_r1_network.node[113].content_store 	hits[113] 	2371
scalar tree_5_3_u00_r1_network.node[113].content_store 	misses[113] 	9641
scalar tree_5_3_u00_r1_network.node[113].content_store 	decision_yes[113] 	9
scalar tree_5_3_u00_r1_network.node[113].content_store 	decision_no[113] 	9632
scalar tree_5_3_u00_r1_network.node[113].content_store 	decision_ratio[113] 	0.00093351312104553
scalar tree_5_3_u00_r1_network.node[114].core_layer 	interests[114] 	11888
scalar tree_5_3_u00_r1_network.node[114].core_layer 	data[114] 	9632
scalar tree_5_3_u00_r1_network.node[114].content_store 	p_hit[114] 	0.18951884253028
scalar tree_5_3_u00_r1_network.node[114].content_store 	hits[114] 	2253
scalar tree_5_3_u00_r1_network.node[114].content_store 	misses[114] 	9635
scalar tree_5_3_u00_r1_network.node[114].content_store 	decision_yes[114] 	3
scalar tree_5_3_u00_r1_network.node[114].content_store 	decision_no[114] 	9629
scalar tree_5_3_u00_r1_network.node[114].content_store 	decision_ratio[114] 	0.00031146179401993
scalar tree_5_3_u00_r1_network.node[115].core_layer 	interests[115] 	12123
scalar tree_5_3_u00_r1_network.node[115].core_layer 	data[115] 	9781
scalar tree_5_3_u00_r1_network.node[115].content_store 	p_hit[115] 	0.19310401715747
scalar tree_5_3_u00_r1_network.node[115].content_store 	hits[115] 	2341
scalar tree_5_3_u00_r1_network.node[115].content_store 	misses[115] 	9782
scalar tree_5_3_u00_r1_network.node[115].content_store 	decision_yes[115] 	2
scalar tree_5_3_u00_r1_network.node[115].content_store 	decision_no[115] 	9779
scalar tree_5_3_u00_r1_network.node[115].content_store 	decision_ratio[115] 	0.00020447806972702
scalar tree_5_3_u00_r1_network.node[116].core_layer 	interests[116] 	11955
scalar tree_5_3_u00_r1_network.node[116].core_layer 	data[116] 	9642
scalar tree_5_3_u00_r1_network.node[116].content_store 	p_hit[116] 	0.19339188624007
scalar tree_5_3_u00_r1_network.node[116].content_store 	hits[116] 	2312
scalar tree_5_3_u00_r1_network.node[116].content_store 	misses[116] 	9643
scalar tree_5_3_u00_r1_network.node[116].content_store 	decision_yes[116] 	4
scalar tree_5_3_u00_r1_network.node[116].content_store 	decision_no[116] 	9638
scalar tree_5_3_u00_r1_network.node[116].content_store 	decision_ratio[116] 	0.00041485169052064
scalar tree_5_3_u00_r1_network.node[117].core_layer 	interests[117] 	12008
scalar tree_5_3_u00_r1_network.node[117].core_layer 	data[117] 	9757
scalar tree_5_3_u00_r1_network.node[117].content_store 	p_hit[117] 	0.18729180546302
scalar tree_5_3_u00_r1_network.node[117].content_store 	hits[117] 	2249
scalar tree_5_3_u00_r1_network.node[117].content_store 	misses[117] 	9759
scalar tree_5_3_u00_r1_network.node[117].content_store 	decision_yes[117] 	3
scalar tree_5_3_u00_r1_network.node[117].content_store 	decision_no[117] 	9754
scalar tree_5_3_u00_r1_network.node[117].content_store 	decision_ratio[117] 	0.0003074715588808
scalar tree_5_3_u00_r1_network.node[118].core_layer 	interests[118] 	11861
scalar tree_5_3_u00_r1_network.node[118].core_layer 	data[118] 	9495
scalar tree_5_3_u00_r1_network.node[118].content_store 	p_hit[118] 	0.1993929685524
scalar tree_5_3_u00_r1_network.node[118].content_store 	hits[118] 	2365
scalar tree_5_3_u00_r1_network.node[118].content_store 	misses[118] 	9496
scalar tree_5_3_u00_r1_network.node[118].content_store 	decision_yes[118] 	7
scalar tree_5_3_u00_r1_network.node[118].content_store 	decision_no[118] 	9488
scalar tree_5_3_u00_r1_network.node[118].content_store 	decision_ratio[118] 	0.00073723012111638
scalar tree_5_3_u00_r1_network.node[119].core_layer 	interests[119] 	12066
scalar tree_5_3_u00_r1_network.node[119].core_layer 	data[119] 	9904
scalar tree_5_3_u00_r1_network.node[119].content_store 	p_hit[119] 	0.1791811702304
scalar tree_5_3_u00_r1_network.node[119].content_store 	hits[119] 	2162
scalar tree_5_3_u00_r1_network.node[119].content_store 	misses[119] 	9904
scalar tree_5_3_u00_r1_network.node[119].content_store 	decision_yes[119] 	2
scalar tree_5_3_u00_r1_network.node[119].content_store 	decision_no[119] 	9902
scalar tree_5_3_u00_r1_network.node[119].content_store 	decision_ratio[119] 	0.00020193861066236
scalar tree_5_3_u00_r1_network.node[120].core_layer 	interests[120] 	11930
scalar tree_5_3_u00_r1_network.node[120].core_layer 	data[120] 	9638
scalar tree_5_3_u00_r1_network.node[120].content_store 	p_hit[120] 	0.19212070410729
scalar tree_5_3_u00_r1_network.node[120].content_store 	hits[120] 	2292
scalar tree_5_3_u00_r1_network.node[120].content_store 	misses[120] 	9638
scalar tree_5_3_u00_r1_network.node[120].content_store 	decision_yes[120] 	4
scalar tree_5_3_u00_r1_network.node[120].content_store 	decision_no[120] 	9634
scalar tree_5_3_u00_r1_network.node[120].content_store 	decision_ratio[120] 	0.00041502386387217
scalar tree_5_3_u00_r1_network.client[40] 	hdistance[40] 	3.6192740926158
scalar tree_5_3_u00_r1_network.client[40] 	downloads[40] 	11985
scalar tree_5_3_u00_r1_network.client[40] 	avg_time[40] 	0.005934017515
scalar tree_5_3_u00_r1_network.client[41] 	hdistance[41] 	3.6302148649778
scalar tree_5_3_u00_r1_network.client[41] 	downloads[41] 	11961
scalar tree_5_3_u00_r1_network.client[41] 	avg_time[41] 	0.0059613584
scalar tree_5_3_u00_r1_network.client[42] 	hdistance[42] 	3.617541815761
scalar tree_5_3_u00_r1_network.client[42] 	downloads[42] 	12017
scalar tree_5_3_u00_r1_network.client[42] 	avg_time[42] 	0.00593808469
scalar tree_5_3_u00_r1_network.client[43] 	hdistance[43] 	3.5659804252447
scalar tree_5_3_u00_r1_network.client[43] 	downloads[43] 	11852
scalar tree_5_3_u00_r1_network.client[43] 	avg_time[43] 	0.005852340741
scalar tree_5_3_u00_r1_network.client[44] 	hdistance[44] 	3.6326101580895
scalar tree_5_3_u00_r1_network.client[44] 	downloads[44] 	11892
scalar tree_5_3_u00_r1_network.client[44] 	avg_time[44] 	0.005966817934
scalar tree_5_3_u00_r1_network.client[45] 	hdistance[45] 	3.6222055388722
scalar tree_5_3_u00_r1_network.client[45] 	downloads[45] 	11988
scalar tree_5_3_u00_r1_network.client[45] 	avg_time[45] 	0.005948974476
scalar tree_5_3_u00_r1_network.client[46] 	hdistance[46] 	3.6193774513895
scalar tree_5_3_u00_r1_network.client[46] 	downloads[46] 	11983
scalar tree_5_3_u00_r1_network.client[46] 	avg_time[46] 	0.005942558269
scalar tree_5_3_u00_r1_network.client[47] 	hdistance[47] 	3.5780619111709
scalar tree_5_3_u00_r1_network.client[47] 	downloads[47] 	11888
scalar tree_5_3_u00_r1_network.client[47] 	avg_time[47] 	0.005874089653
scalar tree_5_3_u00_r1_network.client[48] 	hdistance[48] 	3.5723563696919
scalar tree_5_3_u00_r1_network.client[48] 	downloads[48] 	12010
scalar tree_5_3_u00_r1_network.client[48] 	avg_time[48] 	0.005873139432
scalar tree_5_3_u00_r1_network.client[49] 	hdistance[49] 	3.6017272878259
scalar tree_5_3_u00_r1_network.client[49] 	downloads[49] 	12042
scalar tree_5_3_u00_r1_network.client[49] 	avg_time[49] 	0.005901046066
scalar tree_5_3_u00_r1_network.client[50] 	hdistance[50] 	3.5832008700745
scalar tree_5_3_u00_r1_network.client[50] 	downloads[50] 	11953
scalar tree_5_3_u00_r1_network.client[50] 	avg_time[50] 	0.005864800811
scalar tree_5_3_u00_r1_network.client[51] 	hdistance[51] 	3.6190918298447
scalar tree_5_3_u00_r1_network.client[51] 	downloads[51] 	11848
scalar tree_5_3_u00_r1_network.client[51] 	avg_time[51] 	0.005933167025
scalar tree_5_3_u00_r1_network.client[52] 	hdistance[52] 	3.6134636264929
scalar tree_5_3_u00_r1_network.client[52] 	downloads[52] 	11973
scalar tree_5_3_u00_r1_network.client[52] 	avg_time[52] 	0.005929607197
scalar tree_5_3_u00_r1_network.client[53] 	hdistance[53] 	3.6306775249769
scalar tree_5_3_u00_r1_network.client[53] 	downloads[53] 	11911
scalar tree_5_3_u00_r1_network.client[53] 	avg_time[53] 	0.005955428087
scalar tree_5_3_u00_r1_network.client[54] 	hdistance[54] 	3.6604580921218
scalar tree_5_3_u00_r1_network.client[54] 	downloads[54] 	11919
scalar tree_5_3_u00_r1_network.client[54] 	avg_time[54] 	0.006005571553
scalar tree_5_3_u00_r1_network.client[55] 	hdistance[55] 	3.6204301075269
scalar tree_5_3_u00_r1_network.client[55] 	downloads[55] 	12090
scalar tree_5_3_u00_r1_network.client[55] 	avg_time[55] 	0.005932071842
scalar tree_5_3_u00_r1_network.client[56] 	hdistance[56] 	3.612680212461
scalar tree_5_3_u00_r1_network.client[56] 	downloads[56] 	11861
scalar tree_5_3_u00_r1_network.client[56] 	avg_time[56] 	0.005920264315
scalar tree_5_3_u00_r1_network.client[57] 	hdistance[57] 	3.6497745867424
scalar tree_5_3_u00_r1_network.client[57] 	downloads[57] 	11978
scalar tree_5_3_u00_r1_network.client[57] 	avg_time[57] 	0.005981460735
scalar tree_5_3_u00_r1_network.client[58] 	hdistance[58] 	3.6365758106193
scalar tree_5_3_u00_r1_network.client[58] 	downloads[58] 	11997
scalar tree_5_3_u00_r1_network.client[58] 	avg_time[58] 	0.00595837075
scalar tree_5_3_u00_r1_network.client[59] 	hdistance[59] 	3.6279108588599
scalar tree_5_3_u00_r1_network.client[59] 	downloads[59] 	11981
scalar tree_5_3_u00_r1_network.client[59] 	avg_time[59] 	0.005959284564
scalar tree_5_3_u00_r1_network.client[60] 	hdistance[60] 	3.55413153457
scalar tree_5_3_u00_r1_network.client[60] 	downloads[60] 	11860
scalar tree_5_3_u00_r1_network.client[60] 	avg_time[60] 	0.005831956351
scalar tree_5_3_u00_r1_network.client[61] 	hdistance[61] 	3.6486486486486
scalar tree_5_3_u00_r1_network.client[61] 	downloads[61] 	12025
scalar tree_5_3_u00_r1_network.client[61] 	avg_time[61] 	0.00598652506
scalar tree_5_3_u00_r1_network.client[62] 	hdistance[62] 	3.5925006208095
scalar tree_5_3_u00_r1_network.client[62] 	downloads[62] 	12081
scalar tree_5_3_u00_r1_network.client[62] 	avg_time[62] 	0.00588676129
scalar tree_5_3_u00_r1_network.client[63] 	hdistance[63] 	3.6017316017316
scalar tree_5_3_u00_r1_network.client[63] 	downloads[63] 	12012
scalar tree_5_3_u00_r1_network.client[63] 	avg_time[63] 	0.005902927393
scalar tree_5_3_u00_r1_network.client[64] 	hdistance[64] 	3.6435103616075
scalar tree_5_3_u00_r1_network.client[64] 	downloads[64] 	11919
scalar tree_5_3_u00_r1_network.client[64] 	avg_time[64] 	0.005974349348
scalar tree_5_3_u00_r1_network.client[65] 	hdistance[65] 	3.64208171045
scalar tree_5_3_u00_r1_network.client[65] 	downloads[65] 	12067
scalar tree_5_3_u00_r1_network.client[65] 	avg_time[65] 	0.005984822426
scalar tree_5_3_u00_r1_network.client[66] 	hdistance[66] 	3.611391671496
scalar tree_5_3_u00_r1_network.client[66] 	downloads[66] 	12079
scalar tree_5_3_u00_r1_network.client[66] 	avg_time[66] 	0.00590678197
scalar tree_5_3_u00_r1_network.client[67] 	hdistance[67] 	3.5985151818485
scalar tree_5_3_u00_r1_network.client[67] 	downloads[67] 	11988
scalar tree_5_3_u00_r1_network.client[67] 	avg_time[67] 	0.005899526678
scalar tree_5_3_u00_r1_network.client[68] 	hdistance[68] 	3.6337537338201
scalar tree_5_3_u00_r1_network.client[68] 	downloads[68] 	12052
scalar tree_5_3_u00_r1_network.client[68] 	avg_time[68] 	0.005961479308
scalar tree_5_3_u00_r1_network.client[69] 	hdistance[69] 	3.6461204376514
scalar tree_5_3_u00_r1_network.client[69] 	downloads[69] 	11973
scalar tree_5_3_u00_r1_network.client[69] 	avg_time[69] 	0.00597925369
scalar tree_5_3_u00_r1_network.client[70] 	hdistance[70] 	3.6250419041234
scalar tree_5_3_u00_r1_network.client[70] 	downloads[70] 	11932
scalar tree_5_3_u00_r1_network.client[70] 	avg_time[70] 	0.005947033519
scalar tree_5_3_u00_r1_network.client[71] 	hdistance[71] 	3.5830418124271
scalar tree_5_3_u00_r1_network.client[71] 	downloads[71] 	12006
scalar tree_5_3_u00_r1_network.client[71] 	avg_time[71] 	0.005870954026
scalar tree_5_3_u00_r1_network.client[72] 	hdistance[72] 	3.5927242662257
scalar tree_5_3_u00_r1_network.client[72] 	downloads[72] 	12095
scalar tree_5_3_u00_r1_network.client[72] 	avg_time[72] 	0.005893437945
scalar tree_5_3_u00_r1_network.client[73] 	hdistance[73] 	3.6036378668872
scalar tree_5_3_u00_r1_network.client[73] 	downloads[73] 	12095
scalar tree_5_3_u00_r1_network.client[73] 	avg_time[73] 	0.005902280853
scalar tree_5_3_u00_r1_network.client[74] 	hdistance[74] 	3.655734989648
scalar tree_5_3_u00_r1_network.client[74] 	downloads[74] 	12075
scalar tree_5_3_u00_r1_network.client[74] 	avg_time[74] 	0.005990238881
scalar tree_5_3_u00_r1_network.client[75] 	hdistance[75] 	3.6400236326806
scalar tree_5_3_u00_r1_network.client[75] 	downloads[75] 	11848
scalar tree_5_3_u00_r1_network.client[75] 	avg_time[75] 	0.005975395023
scalar tree_5_3_u00_r1_network.client[76] 	hdistance[76] 	3.6225258799172
scalar tree_5_3_u00_r1_network.client[76] 	downloads[76] 	12075
scalar tree_5_3_u00_r1_network.client[76] 	avg_time[76] 	0.005931609276
scalar tree_5_3_u00_r1_network.client[77] 	hdistance[77] 	3.5746769592213
scalar tree_5_3_u00_r1_network.client[77] 	downloads[77] 	11918
scalar tree_5_3_u00_r1_network.client[77] 	avg_time[77] 	0.005861075735
scalar tree_5_3_u00_r1_network.client[78] 	hdistance[78] 	3.6220382061163
scalar tree_5_3_u00_r1_network.client[78] 	downloads[78] 	12197
scalar tree_5_3_u00_r1_network.client[78] 	avg_time[78] 	0.005949408159
scalar tree_5_3_u00_r1_network.client[79] 	hdistance[79] 	3.6220028208745
scalar tree_5_3_u00_r1_network.client[79] 	downloads[79] 	12053
scalar tree_5_3_u00_r1_network.client[79] 	avg_time[79] 	0.005937804705
scalar tree_5_3_u00_r1_network.client[80] 	hdistance[80] 	3.6084191145703
scalar tree_5_3_u00_r1_network.client[80] 	downloads[80] 	11949
scalar tree_5_3_u00_r1_network.client[80] 	avg_time[80] 	0.005916127367
scalar tree_5_3_u00_r1_network.client[81] 	hdistance[81] 	3.6234372395399
scalar tree_5_3_u00_r1_network.client[81] 	downloads[81] 	11998
scalar tree_5_3_u00_r1_network.client[81] 	avg_time[81] 	0.005940153693
scalar tree_5_3_u00_r1_network.client[82] 	hdistance[82] 	3.5804930509596
scalar tree_5_3_u00_r1_network.client[82] 	downloads[82] 	12088
scalar tree_5_3_u00_r1_network.client[82] 	avg_time[82] 	0.00587737025
scalar tree_5_3_u00_r1_network.client[83] 	hdistance[83] 	3.6280847528043
scalar tree_5_3_u00_r1_network.client[83] 	downloads[83] 	12035
scalar tree_5_3_u00_r1_network.client[83] 	avg_time[83] 	0.005945558933
scalar tree_5_3_u00_r1_network.client[84] 	hdistance[84] 	3.6084846456364
scalar tree_5_3_u00_r1_network.client[84] 	downloads[84] 	11951
scalar tree_5_3_u00_r1_network.client[84] 	avg_time[84] 	0.00591560054
scalar tree_5_3_u00_r1_network.client[85] 	hdistance[85] 	3.6227112380312
scalar tree_5_3_u00_r1_network.client[85] 	downloads[85] 	11906
scalar tree_5_3_u00_r1_network.client[85] 	avg_time[85] 	0.005946995539
scalar tree_5_3_u00_r1_network.client[86] 	hdistance[86] 	3.633023718693
scalar tree_5_3_u00_r1_network.client[86] 	downloads[86] 	12058
scalar tree_5_3_u00_r1_network.client[86] 	avg_time[86] 	0.005952227889
scalar tree_5_3_u00_r1_network.client[87] 	hdistance[87] 	3.6111531667928
scalar tree_5_3_u00_r1_network.client[87] 	downloads[87] 	11889
scalar tree_5_3_u00_r1_network.client[87] 	avg_time[87] 	0.005913362288
scalar tree_5_3_u00_r1_network.client[88] 	hdistance[88] 	3.6035267349261
scalar tree_5_3_u00_r1_network.client[88] 	downloads[88] 	12306
scalar tree_5_3_u00_r1_network.client[88] 	avg_time[88] 	0.005904670124
scalar tree_5_3_u00_r1_network.client[89] 	hdistance[89] 	3.5713692256564
scalar tree_5_3_u00_r1_network.client[89] 	downloads[89] 	12036
scalar tree_5_3_u00_r1_network.client[89] 	avg_time[89] 	0.005843843337
scalar tree_5_3_u00_r1_network.client[90] 	hdistance[90] 	3.6243553485277
scalar tree_5_3_u00_r1_network.client[90] 	downloads[90] 	12022
scalar tree_5_3_u00_r1_network.client[90] 	avg_time[90] 	0.005935500796
scalar tree_5_3_u00_r1_network.client[91] 	hdistance[91] 	3.6200968118845
scalar tree_5_3_u00_r1_network.client[91] 	downloads[91] 	11982
scalar tree_5_3_u00_r1_network.client[91] 	avg_time[91] 	0.005925208541
scalar tree_5_3_u00_r1_network.client[92] 	hdistance[92] 	3.5777703604806
scalar tree_5_3_u00_r1_network.client[92] 	downloads[92] 	11984
scalar tree_5_3_u00_r1_network.client[92] 	avg_time[92] 	0.005862541472
scalar tree_5_3_u00_r1_network.client[93] 	hdistance[93] 	3.6284247992716
scalar tree_5_3_u00_r1_network.client[93] 	downloads[93] 	12081
scalar tree_5_3_u00_r1_network.client[93] 	avg_time[93] 	0.005941668511
scalar tree_5_3_u00_r1_network.client[94] 	hdistance[94] 	3.5884797606184
scalar tree_5_3_u00_r1_network.client[94] 	downloads[94] 	12031
scalar tree_5_3_u00_r1_network.client[94] 	avg_time[94] 	0.005873925019
scalar tree_5_3_u00_r1_network.client[95] 	hdistance[95] 	3.6414584186809
scalar tree_5_3_u00_r1_network.client[95] 	downloads[95] 	12205
scalar tree_5_3_u00_r1_network.client[95] 	avg_time[95] 	0.005966076433
scalar tree_5_3_u00_r1_network.client[96] 	hdistance[96] 	3.6342885704765
scalar tree_5_3_u00_r1_network.client[96] 	downloads[96] 	12004
scalar tree_5_3_u00_r1_network.client[96] 	avg_time[96] 	0.005957844387
scalar tree_5_3_u00_r1_network.client[97] 	hdistance[97] 	3.5903105590062
scalar tree_5_3_u00_r1_network.client[97] 	downloads[97] 	12075
scalar tree_5_3_u00_r1_network.client[97] 	avg_time[97] 	0.005880802549
scalar tree_5_3_u00_r1_network.client[98] 	hdistance[98] 	3.6155951887184
scalar tree_5_3_u00_r1_network.client[98] 	downloads[98] 	12055
scalar tree_5_3_u00_r1_network.client[98] 	avg_time[98] 	0.005918702946
scalar tree_5_3_u00_r1_network.client[99] 	hdistance[99] 	3.6207892998679
scalar tree_5_3_u00_r1_network.client[99] 	downloads[99] 	12112
scalar tree_5_3_u00_r1_network.client[99] 	avg_time[99] 	0.005932460656
scalar tree_5_3_u00_r1_network.client[100] 	hdistance[100] 	3.6093240872253
scalar tree_5_3_u00_r1_network.client[100] 	downloads[100] 	11969
scalar tree_5_3_u00_r1_network.client[100] 	avg_time[100] 	0.005914477201
scalar tree_5_3_u00_r1_network.client[101] 	hdistance[101] 	3.6513391017717
scalar tree_5_3_u00_r1_network.client[101] 	downloads[101] 	12135
scalar tree_5_3_u00_r1_network.client[101] 	avg_time[101] 	0.005988508261
scalar tree_5_3_u00_r1_network.client[102] 	hdistance[102] 	3.6238795873499
scalar tree_5_3_u00_r1_network.client[102] 	downloads[102] 	11826
scalar tree_5_3_u00_r1_network.client[102] 	avg_time[102] 	0.005924890211
scalar tree_5_3_u00_r1_network.client[103] 	hdistance[103] 	3.5780070457977
scalar tree_5_3_u00_r1_network.client[103] 	downloads[103] 	11922
scalar tree_5_3_u00_r1_network.client[103] 	avg_time[103] 	0.00586881095
scalar tree_5_3_u00_r1_network.client[104] 	hdistance[104] 	3.5949860252393
scalar tree_5_3_u00_r1_network.client[104] 	downloads[104] 	11807
scalar tree_5_3_u00_r1_network.client[104] 	avg_time[104] 	0.00589995607
scalar tree_5_3_u00_r1_network.client[105] 	hdistance[105] 	3.6263065473702
scalar tree_5_3_u00_r1_network.client[105] 	downloads[105] 	11959
scalar tree_5_3_u00_r1_network.client[105] 	avg_time[105] 	0.00595693012
scalar tree_5_3_u00_r1_network.client[106] 	hdistance[106] 	3.5815361645654
scalar tree_5_3_u00_r1_network.client[106] 	downloads[106] 	12056
scalar tree_5_3_u00_r1_network.client[106] 	avg_time[106] 	0.005884337106
scalar tree_5_3_u00_r1_network.client[107] 	hdistance[107] 	3.6346361297818
scalar tree_5_3_u00_r1_network.client[107] 	downloads[107] 	12051
scalar tree_5_3_u00_r1_network.client[107] 	avg_time[107] 	0.005954622503
scalar tree_5_3_u00_r1_network.client[108] 	hdistance[108] 	3.6349232683534
scalar tree_5_3_u00_r1_network.client[108] 	downloads[108] 	12055
scalar tree_5_3_u00_r1_network.client[108] 	avg_time[108] 	0.00595868634
scalar tree_5_3_u00_r1_network.client[109] 	hdistance[109] 	3.6162925057775
scalar tree_5_3_u00_r1_network.client[109] 	downloads[109] 	12116
scalar tree_5_3_u00_r1_network.client[109] 	avg_time[109] 	0.005935537315
scalar tree_5_3_u00_r1_network.client[110] 	hdistance[110] 	3.6296972210701
scalar tree_5_3_u00_r1_network.client[110] 	downloads[110] 	12055
scalar tree_5_3_u00_r1_network.client[110] 	avg_time[110] 	0.005954653346
scalar tree_5_3_u00_r1_network.client[111] 	hdistance[111] 	3.5613658858463
scalar tree_5_3_u00_r1_network.client[111] 	downloads[111] 	12124
scalar tree_5_3_u00_r1_network.client[111] 	avg_time[111] 	0.005847215809
scalar tree_5_3_u00_r1_network.client[112] 	hdistance[112] 	3.6242107012296
scalar tree_5_3_u00_r1_network.client[112] 	downloads[112] 	12036
scalar tree_5_3_u00_r1_network.client[112] 	avg_time[112] 	0.00593668692
scalar tree_5_3_u00_r1_network.client[113] 	hdistance[113] 	3.5651848151848
scalar tree_5_3_u00_r1_network.client[113] 	downloads[113] 	12012
scalar tree_5_3_u00_r1_network.client[113] 	avg_time[113] 	0.005842919195
scalar tree_5_3_u00_r1_network.client[114] 	hdistance[114] 	3.6176693310896
scalar tree_5_3_u00_r1_network.client[114] 	downloads[114] 	11885
scalar tree_5_3_u00_r1_network.client[114] 	avg_time[114] 	0.005935755301
scalar tree_5_3_u00_r1_network.client[115] 	hdistance[115] 	3.5990760600561
scalar tree_5_3_u00_r1_network.client[115] 	downloads[115] 	12122
scalar tree_5_3_u00_r1_network.client[115] 	avg_time[115] 	0.005904010169
scalar tree_5_3_u00_r1_network.client[116] 	hdistance[116] 	3.6136857955496
scalar tree_5_3_u00_r1_network.client[116] 	downloads[116] 	11954
scalar tree_5_3_u00_r1_network.client[116] 	avg_time[116] 	0.005921910142
scalar tree_5_3_u00_r1_network.client[117] 	hdistance[117] 	3.6225220722972
scalar tree_5_3_u00_r1_network.client[117] 	downloads[117] 	12006
scalar tree_5_3_u00_r1_network.client[117] 	avg_time[117] 	0.005937798398
scalar tree_5_3_u00_r1_network.client[118] 	hdistance[118] 	3.5754637436762
scalar tree_5_3_u00_r1_network.client[118] 	downloads[118] 	11860
scalar tree_5_3_u00_r1_network.client[118] 	avg_time[118] 	0.005863394744
scalar tree_5_3_u00_r1_network.client[119] 	hdistance[119] 	3.656058345765
scalar tree_5_3_u00_r1_network.client[119] 	downloads[119] 	12066
scalar tree_5_3_u00_r1_network.client[119] 	avg_time[119] 	0.005990127777
scalar tree_5_3_u00_r1_network.client[120] 	hdistance[120] 	3.6074601844091
scalar tree_5_3_u00_r1_network.client[120] 	downloads[120] 	11930
scalar tree_5_3_u00_r1_network.client[120] 	avg_time[120] 	0.005915576756
