version 2
run General-11-20160822-14:03:56-32430
attr D fix0.001
attr F nrr
attr R lru
attr a 0.6
attr configname General
attr datetime 20160822-14:03:56
attr experiment General
attr inifile hw5115/scenario_B/bus.ini
attr iterationvars "$net=bus, $rep=0, $a=0.6, $F=nrr, $D=fix0.001, $R=lru, $window=60, $variance=0.05, $mytime=600"
attr iterationvars2 "$net=bus, $rep=0, $a=0.6, $F=nrr, $D=fix0.001, $R=lru, $window=60, $variance=0.05, $mytime=600, $repetition=0"
attr measurement "$net=bus, $rep=0, $a=0.6, $F=nrr, $D=fix0.001, $R=lru, $window=60, $variance=0.05, $mytime=600"
attr mytime 600
attr net bus
attr network networks.${net=bus}_network
attr processid 32430
attr rep 0
attr repetition 0
attr replication #0
attr resultdir results
attr runnumber 11
attr seedset 0
attr variance 0.05
attr window 60

scalar . 	a 	0.6
scalar . 	mytime 	600
scalar . 	rep 	0
scalar . 	variance 	0.05
scalar . 	window 	60
scalar bus_network.content_distribution 	repo-0 	9
scalar bus_network.content_distribution 	client-0 	5
scalar bus_network.content_distribution 	client-1 	8
scalar bus_network.content_distribution 	client-2 	9
scalar bus_network.content_distribution 	client-3 	0
scalar bus_network.content_distribution 	client-4 	1
scalar bus_network.content_distribution 	client-5 	7
scalar bus_network.content_distribution 	client-6 	6
scalar bus_network.content_distribution 	client-7 	2
scalar bus_network.content_distribution 	client-8 	4
scalar bus_network.content_distribution 	client-9 	3
scalar bus_network.content_distribution 	repo-0_card 	100000
scalar bus_network.content_distribution 	repo-0_price 	0
scalar bus_network.statistics 	stabilization_time 	3942
scalar bus_network.statistics 	p_hit 	0.018615070210168
scalar bus_network.statistics 	interests 	63193.7
scalar bus_network.statistics 	data 	51188.3
scalar bus_network.statistics 	hdistance 	5.1761977901288
scalar bus_network.statistics 	avg_time 	0.008519830149
scalar bus_network.statistics 	downloads 	120057
scalar bus_network.statistics 	total_cost 	0
scalar bus_network.statistics 	total_replicas 	100000
scalar bus_network.statistics 	inner_hit 	0.083818519536553
scalar bus_network.node[0].core_layer 	interests[0] 	12130
scalar bus_network.node[0].core_layer 	data[0] 	11813
scalar bus_network.node[0].core_layer 	repo_int[0] 	109994
scalar bus_network.node[0].content_store 	p_hit[0] 	0.026051112943116
scalar bus_network.node[0].content_store 	hits[0] 	316
scalar bus_network.node[0].content_store 	misses[0] 	11814
scalar bus_network.node[0].content_store 	decision_yes[0] 	6
scalar bus_network.node[0].content_store 	decision_no[0] 	11807
scalar bus_network.node[0].content_store 	decision_ratio[0] 	0.00050791500888851
scalar bus_network.node[1].core_layer 	interests[1] 	24440
scalar bus_network.node[1].core_layer 	data[1] 	23698
scalar bus_network.node[1].content_store 	p_hit[1] 	0.030278232405892
scalar bus_network.node[1].content_store 	hits[1] 	740
scalar bus_network.node[1].content_store 	misses[1] 	23700
scalar bus_network.node[1].content_store 	decision_yes[1] 	35
scalar bus_network.node[1].content_store 	decision_no[1] 	23663
scalar bus_network.node[1].content_store 	decision_ratio[1] 	0.0014769178833657
scalar bus_network.node[2].core_layer 	interests[2] 	36285
scalar bus_network.node[2].core_layer 	data[2] 	35576
scalar bus_network.node[2].content_store 	p_hit[2] 	0.019512195121951
scalar bus_network.node[2].content_store 	hits[2] 	708
scalar bus_network.node[2].content_store 	misses[2] 	35577
scalar bus_network.node[2].content_store 	decision_yes[2] 	43
scalar bus_network.node[2].content_store 	decision_no[2] 	35533
scalar bus_network.node[2].content_store 	decision_ratio[2] 	0.0012086800089948
scalar bus_network.node[3].core_layer 	interests[3] 	47763
scalar bus_network.node[3].core_layer 	data[3] 	46703
scalar bus_network.node[3].content_store 	p_hit[3] 	0.022192910830559
scalar bus_network.node[3].content_store 	hits[3] 	1060
scalar bus_network.node[3].content_store 	misses[3] 	46703
scalar bus_network.node[3].content_store 	decision_yes[3] 	57
scalar bus_network.node[3].content_store 	decision_no[3] 	46646
scalar bus_network.node[3].content_store 	decision_ratio[3] 	0.0012204783418624
scalar bus_network.node[4].core_layer 	interests[4] 	58823
scalar bus_network.node[4].core_layer 	data[4] 	57547
scalar bus_network.node[4].content_store 	p_hit[4] 	0.021709195382758
scalar bus_network.node[4].content_store 	hits[4] 	1277
scalar bus_network.node[4].content_store 	misses[4] 	57546
scalar bus_network.node[4].content_store 	decision_yes[4] 	60
scalar bus_network.node[4].content_store 	decision_no[4] 	57487
scalar bus_network.node[4].content_store 	decision_ratio[4] 	0.0010426260274211
scalar bus_network.node[5].core_layer 	interests[5] 	69436
scalar bus_network.node[5].core_layer 	data[5] 	68473
scalar bus_network.node[5].content_store 	p_hit[5] 	0.013897689959099
scalar bus_network.node[5].content_store 	hits[5] 	965
scalar bus_network.node[5].content_store 	misses[5] 	68471
scalar bus_network.node[5].content_store 	decision_yes[5] 	69
scalar bus_network.node[5].content_store 	decision_no[5] 	68404
scalar bus_network.node[5].content_store 	decision_ratio[5] 	0.0010076964642998
scalar bus_network.node[6].core_layer 	interests[6] 	80101
scalar bus_network.node[6].core_layer 	data[6] 	78961
scalar bus_network.node[6].content_store 	p_hit[6] 	0.014257000536822
scalar bus_network.node[6].content_store 	hits[6] 	1142
scalar bus_network.node[6].content_store 	misses[6] 	78959
scalar bus_network.node[6].content_store 	decision_yes[6] 	95
scalar bus_network.node[6].content_store 	decision_no[6] 	78866
scalar bus_network.node[6].content_store 	decision_ratio[6] 	0.0012031255936475
scalar bus_network.node[7].core_layer 	interests[7] 	90581
scalar bus_network.node[7].core_layer 	data[7] 	89227
scalar bus_network.node[7].content_store 	p_hit[7] 	0.014947947141233
scalar bus_network.node[7].content_store 	hits[7] 	1354
scalar bus_network.node[7].content_store 	misses[7] 	89227
scalar bus_network.node[7].content_store 	decision_yes[7] 	89
scalar bus_network.node[7].content_store 	decision_no[7] 	89138
scalar bus_network.node[7].content_store 	decision_ratio[7] 	0.00099745592701761
scalar bus_network.node[8].core_layer 	interests[8] 	100831
scalar bus_network.node[8].core_layer 	data[8] 	99885
scalar bus_network.node[8].content_store 	p_hit[8] 	0.009382035286767
scalar bus_network.node[8].content_store 	hits[8] 	946
scalar bus_network.node[8].content_store 	misses[8] 	99885
scalar bus_network.node[8].content_store 	decision_yes[8] 	114
scalar bus_network.node[8].content_store 	decision_no[8] 	99771
scalar bus_network.node[8].content_store 	decision_ratio[8] 	0.0011413125093858
scalar bus_network.node[9].core_layer 	interests[9] 	111547
scalar bus_network.node[9].core_layer 	repo_load[9] 	109994
scalar bus_network.node[9].core_layer 	data[9] 	0
scalar bus_network.node[9].content_store 	p_hit[9] 	0.013922382493478
scalar bus_network.node[9].content_store 	hits[9] 	1553
scalar bus_network.node[9].content_store 	misses[9] 	109994
scalar bus_network.node[9].content_store 	decision_yes[9] 	107
scalar bus_network.node[9].content_store 	decision_no[9] 	109887
scalar bus_network.node[9].content_store 	decision_ratio[9] 	0.00097278033347273
scalar bus_network.client[0] 	hdistance[0] 	9.4261854804868
scalar bus_network.client[0] 	downloads[0] 	11915
scalar bus_network.client[0] 	avg_time[0] 	0.017047221959
scalar bus_network.client[1] 	hdistance[1] 	8.4567228278825
scalar bus_network.client[1] 	downloads[1] 	12108
scalar bus_network.client[1] 	avg_time[1] 	0.015106703258
scalar bus_network.client[2] 	hdistance[2] 	7.4938261509527
scalar bus_network.client[2] 	downloads[2] 	12229
scalar bus_network.client[2] 	avg_time[2] 	0.013182268597
scalar bus_network.client[3] 	hdistance[3] 	6.5465232616308
scalar bus_network.client[3] 	downloads[3] 	11994
scalar bus_network.client[3] 	avg_time[3] 	0.011286807066
scalar bus_network.client[4] 	hdistance[4] 	5.5897046413502
scalar bus_network.client[4] 	downloads[4] 	11850
scalar bus_network.client[4] 	avg_time[4] 	0.009379912662
scalar bus_network.client[5] 	hdistance[5] 	4.6995399414471
scalar bus_network.client[5] 	downloads[5] 	11955
scalar bus_network.client[5] 	avg_time[5] 	0.007594978177
scalar bus_network.client[6] 	hdistance[6] 	3.7771109444028
scalar bus_network.client[6] 	downloads[6] 	11997
scalar bus_network.client[6] 	avg_time[6] 	0.005742599321
scalar bus_network.client[7] 	hdistance[7] 	2.8629335562056
scalar bus_network.client[7] 	downloads[7] 	11965
scalar bus_network.client[7] 	avg_time[7] 	0.003879503985
scalar bus_network.client[8] 	hdistance[8] 	1.9268151337031
scalar bus_network.client[8] 	downloads[8] 	12079
scalar bus_network.client[8] 	avg_time[8] 	0.001978306468
scalar bus_network.client[9] 	hdistance[9] 	0.98261596322608
scalar bus_network.client[9] 	downloads[9] 	11965
scalar bus_network.client[9] 	avg_time[9] 	0
