version 2
run General-192-20160818-20:38:57-19481
attr a 0.9
attr cd lce
attr configname General
attr cr lru
attr datetime 20160818-20:38:57
attr experiment General
attr fsize 1
attr inifile hw5115/scenario_A/EdgeCoop.ini
attr iterationvars "$name=tree_4_3, $un=09, $rep=13, $scenario=Edge, $cd=lce, $cr=lru, $fsize=1, $a=0.9, $sl=nrr, $ttl=1000, $variance=0.05"
attr iterationvars2 "$name=tree_4_3, $un=09, $rep=13, $scenario=Edge, $cd=lce, $cr=lru, $fsize=1, $a=0.9, $sl=nrr, $ttl=1000, $variance=0.05, $repetition=0"
attr measurement "$name=tree_4_3, $un=09, $rep=13, $scenario=Edge, $cd=lce, $cr=lru, $fsize=1, $a=0.9, $sl=nrr, $ttl=1000, $variance=0.05"
attr name tree_4_3
attr network networks.${name}_u${un}_r${rep}_network
attr processid 19481
attr rep 13
attr repetition 0
attr replication #0
attr resultdir results
attr runnumber 192
attr scenario Edge
attr seedset 13
attr sl nrr
attr ttl 1000
attr un 09
attr variance 0.05

scalar . 	a 	0.9
scalar . 	fsize 	1
scalar . 	rep 	13
scalar . 	ttl 	1000
scalar . 	un 	09
scalar . 	variance 	0.05
scalar tree_4_3_u09_r13_network.content_distribution 	repo-0 	0
scalar tree_4_3_u09_r13_network.content_distribution 	client-0 	13
scalar tree_4_3_u09_r13_network.content_distribution 	client-1 	14
scalar tree_4_3_u09_r13_network.content_distribution 	client-2 	15
scalar tree_4_3_u09_r13_network.content_distribution 	client-3 	16
scalar tree_4_3_u09_r13_network.content_distribution 	client-4 	17
scalar tree_4_3_u09_r13_network.content_distribution 	client-5 	18
scalar tree_4_3_u09_r13_network.content_distribution 	client-6 	19
scalar tree_4_3_u09_r13_network.content_distribution 	client-7 	20
scalar tree_4_3_u09_r13_network.content_distribution 	client-8 	21
scalar tree_4_3_u09_r13_network.content_distribution 	client-9 	22
scalar tree_4_3_u09_r13_network.content_distribution 	client-10 	23
scalar tree_4_3_u09_r13_network.content_distribution 	client-11 	24
scalar tree_4_3_u09_r13_network.content_distribution 	client-12 	25
scalar tree_4_3_u09_r13_network.content_distribution 	client-13 	26
scalar tree_4_3_u09_r13_network.content_distribution 	client-14 	27
scalar tree_4_3_u09_r13_network.content_distribution 	client-15 	28
scalar tree_4_3_u09_r13_network.content_distribution 	client-16 	29
scalar tree_4_3_u09_r13_network.content_distribution 	client-17 	30
scalar tree_4_3_u09_r13_network.content_distribution 	client-18 	31
scalar tree_4_3_u09_r13_network.content_distribution 	client-19 	32
scalar tree_4_3_u09_r13_network.content_distribution 	client-20 	33
scalar tree_4_3_u09_r13_network.content_distribution 	client-21 	34
scalar tree_4_3_u09_r13_network.content_distribution 	client-22 	35
scalar tree_4_3_u09_r13_network.content_distribution 	client-23 	36
scalar tree_4_3_u09_r13_network.content_distribution 	client-24 	37
scalar tree_4_3_u09_r13_network.content_distribution 	client-25 	38
scalar tree_4_3_u09_r13_network.content_distribution 	client-26 	39
scalar tree_4_3_u09_r13_network.content_distribution 	repo-0_card 	100000
scalar tree_4_3_u09_r13_network.content_distribution 	repo-0_price 	0
scalar tree_4_3_u09_r13_network.statistics 	stabilization_time 	270.1
scalar tree_4_3_u09_r13_network.statistics 	p_hit 	0.21153152639359
scalar tree_4_3_u09_r13_network.statistics 	interests 	27987.45
scalar tree_4_3_u09_r13_network.statistics 	data 	19908.75
scalar tree_4_3_u09_r13_network.statistics 	hdistance 	3.0794475102879
scalar tree_4_3_u09_r13_network.statistics 	avg_time 	0.004928839002
scalar tree_4_3_u09_r13_network.statistics 	downloads 	323131
scalar tree_4_3_u09_r13_network.statistics 	total_cost 	0
scalar tree_4_3_u09_r13_network.statistics 	total_replicas 	100000
scalar tree_4_3_u09_r13_network.statistics 	inner_hit 	0.38505745347862
scalar tree_4_3_u09_r13_network.node[0].core_layer 	interests[0] 	198707
scalar tree_4_3_u09_r13_network.node[0].core_layer 	repo_load[0] 	198707
scalar tree_4_3_u09_r13_network.node[0].core_layer 	data[0] 	0
scalar tree_4_3_u09_r13_network.node[0].core_layer 	repo_int[0] 	198707
scalar tree_4_3_u09_r13_network.node[0].content_store 	p_hit[0] 	0
scalar tree_4_3_u09_r13_network.node[0].content_store 	hits[0] 	0
scalar tree_4_3_u09_r13_network.node[0].content_store 	misses[0] 	198707
scalar tree_4_3_u09_r13_network.node[0].content_store 	decision_yes[0] 	0
scalar tree_4_3_u09_r13_network.node[0].content_store 	decision_no[0] 	198707
scalar tree_4_3_u09_r13_network.node[0].content_store 	decision_ratio[0] 	0
scalar tree_4_3_u09_r13_network.node[1].core_layer 	interests[1] 	110865
scalar tree_4_3_u09_r13_network.node[1].core_layer 	data[1] 	110862
scalar tree_4_3_u09_r13_network.node[1].content_store 	p_hit[1] 	0
scalar tree_4_3_u09_r13_network.node[1].content_store 	hits[1] 	0
scalar tree_4_3_u09_r13_network.node[1].content_store 	misses[1] 	110865
scalar tree_4_3_u09_r13_network.node[1].content_store 	decision_yes[1] 	0
scalar tree_4_3_u09_r13_network.node[1].content_store 	decision_no[1] 	110858
scalar tree_4_3_u09_r13_network.node[1].content_store 	decision_ratio[1] 	0
scalar tree_4_3_u09_r13_network.node[2].core_layer 	interests[2] 	103369
scalar tree_4_3_u09_r13_network.node[2].core_layer 	data[2] 	103364
scalar tree_4_3_u09_r13_network.node[2].content_store 	p_hit[2] 	0
scalar tree_4_3_u09_r13_network.node[2].content_store 	hits[2] 	0
scalar tree_4_3_u09_r13_network.node[2].content_store 	misses[2] 	103369
scalar tree_4_3_u09_r13_network.node[2].content_store 	decision_yes[2] 	0
scalar tree_4_3_u09_r13_network.node[2].content_store 	decision_no[2] 	103360
scalar tree_4_3_u09_r13_network.node[2].content_store 	decision_ratio[2] 	0
scalar tree_4_3_u09_r13_network.node[3].core_layer 	interests[3] 	12567
scalar tree_4_3_u09_r13_network.node[3].core_layer 	data[3] 	12567
scalar tree_4_3_u09_r13_network.node[3].content_store 	p_hit[3] 	0
scalar tree_4_3_u09_r13_network.node[3].content_store 	hits[3] 	0
scalar tree_4_3_u09_r13_network.node[3].content_store 	misses[3] 	12567
scalar tree_4_3_u09_r13_network.node[3].content_store 	decision_yes[3] 	0
scalar tree_4_3_u09_r13_network.node[3].content_store 	decision_no[3] 	12566
scalar tree_4_3_u09_r13_network.node[3].content_store 	decision_ratio[3] 	0
scalar tree_4_3_u09_r13_network.node[4].core_layer 	interests[4] 	47838
scalar tree_4_3_u09_r13_network.node[4].core_layer 	data[4] 	47835
scalar tree_4_3_u09_r13_network.node[4].content_store 	p_hit[4] 	0
scalar tree_4_3_u09_r13_network.node[4].content_store 	hits[4] 	0
scalar tree_4_3_u09_r13_network.node[4].content_store 	misses[4] 	47838
scalar tree_4_3_u09_r13_network.node[4].content_store 	decision_yes[4] 	0
scalar tree_4_3_u09_r13_network.node[4].content_store 	decision_no[4] 	47835
scalar tree_4_3_u09_r13_network.node[4].content_store 	decision_ratio[4] 	0
scalar tree_4_3_u09_r13_network.node[5].core_layer 	interests[5] 	37726
scalar tree_4_3_u09_r13_network.node[5].core_layer 	data[5] 	37721
scalar tree_4_3_u09_r13_network.node[5].content_store 	p_hit[5] 	0
scalar tree_4_3_u09_r13_network.node[5].content_store 	hits[5] 	0
scalar tree_4_3_u09_r13_network.node[5].content_store 	misses[5] 	37726
scalar tree_4_3_u09_r13_network.node[5].content_store 	decision_yes[5] 	0
scalar tree_4_3_u09_r13_network.node[5].content_store 	decision_no[5] 	37717
scalar tree_4_3_u09_r13_network.node[5].content_store 	decision_ratio[5] 	0
scalar tree_4_3_u09_r13_network.node[6].core_layer 	interests[6] 	13564
scalar tree_4_3_u09_r13_network.node[6].core_layer 	data[6] 	13564
scalar tree_4_3_u09_r13_network.node[6].content_store 	p_hit[6] 	0
scalar tree_4_3_u09_r13_network.node[6].content_store 	hits[6] 	0
scalar tree_4_3_u09_r13_network.node[6].content_store 	misses[6] 	13564
scalar tree_4_3_u09_r13_network.node[6].content_store 	decision_yes[6] 	0
scalar tree_4_3_u09_r13_network.node[6].content_store 	decision_no[6] 	13562
scalar tree_4_3_u09_r13_network.node[6].content_store 	decision_ratio[6] 	0
scalar tree_4_3_u09_r13_network.node[7].core_layer 	interests[7] 	50436
scalar tree_4_3_u09_r13_network.node[7].core_layer 	data[7] 	50433
scalar tree_4_3_u09_r13_network.node[7].content_store 	p_hit[7] 	0
scalar tree_4_3_u09_r13_network.node[7].content_store 	hits[7] 	0
scalar tree_4_3_u09_r13_network.node[7].content_store 	misses[7] 	50436
scalar tree_4_3_u09_r13_network.node[7].content_store 	decision_yes[7] 	0
scalar tree_4_3_u09_r13_network.node[7].content_store 	decision_no[7] 	50429
scalar tree_4_3_u09_r13_network.node[7].content_store 	decision_ratio[7] 	0
scalar tree_4_3_u09_r13_network.node[8].core_layer 	interests[8] 	31675
scalar tree_4_3_u09_r13_network.node[8].core_layer 	data[8] 	31672
scalar tree_4_3_u09_r13_network.node[8].content_store 	p_hit[8] 	0
scalar tree_4_3_u09_r13_network.node[8].content_store 	hits[8] 	0
scalar tree_4_3_u09_r13_network.node[8].content_store 	misses[8] 	31675
scalar tree_4_3_u09_r13_network.node[8].content_store 	decision_yes[8] 	0
scalar tree_4_3_u09_r13_network.node[8].content_store 	decision_no[8] 	31670
scalar tree_4_3_u09_r13_network.node[8].content_store 	decision_ratio[8] 	0
scalar tree_4_3_u09_r13_network.node[9].core_layer 	interests[9] 	17140
scalar tree_4_3_u09_r13_network.node[9].core_layer 	data[9] 	17138
scalar tree_4_3_u09_r13_network.node[9].content_store 	p_hit[9] 	0
scalar tree_4_3_u09_r13_network.node[9].content_store 	hits[9] 	0
scalar tree_4_3_u09_r13_network.node[9].content_store 	misses[9] 	17140
scalar tree_4_3_u09_r13_network.node[9].content_store 	decision_yes[9] 	0
scalar tree_4_3_u09_r13_network.node[9].content_store 	decision_no[9] 	17138
scalar tree_4_3_u09_r13_network.node[9].content_store 	decision_ratio[9] 	0
scalar tree_4_3_u09_r13_network.node[10].core_layer 	interests[10] 	51924
scalar tree_4_3_u09_r13_network.node[10].core_layer 	data[10] 	51922
scalar tree_4_3_u09_r13_network.node[10].content_store 	p_hit[10] 	0
scalar tree_4_3_u09_r13_network.node[10].content_store 	hits[10] 	0
scalar tree_4_3_u09_r13_network.node[10].content_store 	misses[10] 	51924
scalar tree_4_3_u09_r13_network.node[10].content_store 	decision_yes[10] 	0
scalar tree_4_3_u09_r13_network.node[10].content_store 	decision_no[10] 	51915
scalar tree_4_3_u09_r13_network.node[10].content_store 	decision_ratio[10] 	0
scalar tree_4_3_u09_r13_network.node[11].core_layer 	interests[11] 	35112
scalar tree_4_3_u09_r13_network.node[11].core_layer 	data[11] 	35110
scalar tree_4_3_u09_r13_network.node[11].content_store 	p_hit[11] 	0
scalar tree_4_3_u09_r13_network.node[11].content_store 	hits[11] 	0
scalar tree_4_3_u09_r13_network.node[11].content_store 	misses[11] 	35112
scalar tree_4_3_u09_r13_network.node[11].content_store 	decision_yes[11] 	0
scalar tree_4_3_u09_r13_network.node[11].content_store 	decision_no[11] 	35107
scalar tree_4_3_u09_r13_network.node[11].content_store 	decision_ratio[11] 	0
scalar tree_4_3_u09_r13_network.node[12].core_layer 	interests[12] 	13418
scalar tree_4_3_u09_r13_network.node[12].core_layer 	data[12] 	13417
scalar tree_4_3_u09_r13_network.node[12].content_store 	p_hit[12] 	0
scalar tree_4_3_u09_r13_network.node[12].content_store 	hits[12] 	0
scalar tree_4_3_u09_r13_network.node[12].content_store 	misses[12] 	13418
scalar tree_4_3_u09_r13_network.node[12].content_store 	decision_yes[12] 	0
scalar tree_4_3_u09_r13_network.node[12].content_store 	decision_no[12] 	13416
scalar tree_4_3_u09_r13_network.node[12].content_store 	decision_ratio[12] 	0
scalar tree_4_3_u09_r13_network.node[13].core_layer 	interests[13] 	13484
scalar tree_4_3_u09_r13_network.node[13].core_layer 	data[13] 	10086
scalar tree_4_3_u09_r13_network.node[13].content_store 	p_hit[13] 	0.25192821121329
scalar tree_4_3_u09_r13_network.node[13].content_store 	hits[13] 	3397
scalar tree_4_3_u09_r13_network.node[13].content_store 	misses[13] 	10087
scalar tree_4_3_u09_r13_network.node[13].content_store 	decision_yes[13] 	10086
scalar tree_4_3_u09_r13_network.node[13].content_store 	decision_no[13] 	0
scalar tree_4_3_u09_r13_network.node[13].content_store 	decision_ratio[13] 	1
scalar tree_4_3_u09_r13_network.node[14].core_layer 	interests[14] 	15558
scalar tree_4_3_u09_r13_network.node[14].core_layer 	data[14] 	10244
scalar tree_4_3_u09_r13_network.node[14].content_store 	p_hit[14] 	0.34156061190384
scalar tree_4_3_u09_r13_network.node[14].content_store 	hits[14] 	5314
scalar tree_4_3_u09_r13_network.node[14].content_store 	misses[14] 	10244
scalar tree_4_3_u09_r13_network.node[14].content_store 	decision_yes[14] 	10244
scalar tree_4_3_u09_r13_network.node[14].content_store 	decision_no[14] 	0
scalar tree_4_3_u09_r13_network.node[14].content_store 	decision_ratio[14] 	1
scalar tree_4_3_u09_r13_network.node[15].core_layer 	interests[15] 	13939
scalar tree_4_3_u09_r13_network.node[15].core_layer 	data[15] 	9789
scalar tree_4_3_u09_r13_network.node[15].content_store 	p_hit[15] 	0.29758232297869
scalar tree_4_3_u09_r13_network.node[15].content_store 	hits[15] 	4148
scalar tree_4_3_u09_r13_network.node[15].content_store 	misses[15] 	9791
scalar tree_4_3_u09_r13_network.node[15].content_store 	decision_yes[15] 	9789
scalar tree_4_3_u09_r13_network.node[15].content_store 	decision_no[15] 	0
scalar tree_4_3_u09_r13_network.node[15].content_store 	decision_ratio[15] 	1
scalar tree_4_3_u09_r13_network.node[16].core_layer 	interests[16] 	15195
scalar tree_4_3_u09_r13_network.node[16].core_layer 	data[16] 	9942
scalar tree_4_3_u09_r13_network.node[16].content_store 	p_hit[16] 	0.3457058242843
scalar tree_4_3_u09_r13_network.node[16].content_store 	hits[16] 	5253
scalar tree_4_3_u09_r13_network.node[16].content_store 	misses[16] 	9942
scalar tree_4_3_u09_r13_network.node[16].content_store 	decision_yes[16] 	9942
scalar tree_4_3_u09_r13_network.node[16].content_store 	decision_no[16] 	0
scalar tree_4_3_u09_r13_network.node[16].content_store 	decision_ratio[16] 	1
scalar tree_4_3_u09_r13_network.node[17].core_layer 	interests[17] 	14593
scalar tree_4_3_u09_r13_network.node[17].core_layer 	data[17] 	10116
scalar tree_4_3_u09_r13_network.node[17].content_store 	p_hit[17] 	0.30679092715686
scalar tree_4_3_u09_r13_network.node[17].content_store 	hits[17] 	4477
scalar tree_4_3_u09_r13_network.node[17].content_store 	misses[17] 	10116
scalar tree_4_3_u09_r13_network.node[17].content_store 	decision_yes[17] 	10116
scalar tree_4_3_u09_r13_network.node[17].content_store 	decision_no[17] 	0
scalar tree_4_3_u09_r13_network.node[17].content_store 	decision_ratio[17] 	1
scalar tree_4_3_u09_r13_network.node[18].core_layer 	interests[18] 	14994
scalar tree_4_3_u09_r13_network.node[18].core_layer 	data[18] 	9759
scalar tree_4_3_u09_r13_network.node[18].content_store 	p_hit[18] 	0.34900626917434
scalar tree_4_3_u09_r13_network.node[18].content_store 	hits[18] 	5233
scalar tree_4_3_u09_r13_network.node[18].content_store 	misses[18] 	9761
scalar tree_4_3_u09_r13_network.node[18].content_store 	decision_yes[18] 	9759
scalar tree_4_3_u09_r13_network.node[18].content_store 	decision_no[18] 	0
scalar tree_4_3_u09_r13_network.node[18].content_store 	decision_ratio[18] 	1
scalar tree_4_3_u09_r13_network.node[19].core_layer 	interests[19] 	14322
scalar tree_4_3_u09_r13_network.node[19].core_layer 	data[19] 	10065
scalar tree_4_3_u09_r13_network.node[19].content_store 	p_hit[19] 	0.29723502304147
scalar tree_4_3_u09_r13_network.node[19].content_store 	hits[19] 	4257
scalar tree_4_3_u09_r13_network.node[19].content_store 	misses[19] 	10065
scalar tree_4_3_u09_r13_network.node[19].content_store 	decision_yes[19] 	10065
scalar tree_4_3_u09_r13_network.node[19].content_store 	decision_no[19] 	0
scalar tree_4_3_u09_r13_network.node[19].content_store 	decision_ratio[19] 	1
scalar tree_4_3_u09_r13_network.node[20].core_layer 	interests[20] 	15509
scalar tree_4_3_u09_r13_network.node[20].core_layer 	data[20] 	10143
scalar tree_4_3_u09_r13_network.node[20].content_store 	p_hit[20] 	0.34599264942936
scalar tree_4_3_u09_r13_network.node[20].content_store 	hits[20] 	5366
scalar tree_4_3_u09_r13_network.node[20].content_store 	misses[20] 	10143
scalar tree_4_3_u09_r13_network.node[20].content_store 	decision_yes[20] 	10143
scalar tree_4_3_u09_r13_network.node[20].content_store 	decision_no[20] 	0
scalar tree_4_3_u09_r13_network.node[20].content_store 	decision_ratio[20] 	1
scalar tree_4_3_u09_r13_network.node[21].core_layer 	interests[21] 	13566
scalar tree_4_3_u09_r13_network.node[21].core_layer 	data[21] 	10112
scalar tree_4_3_u09_r13_network.node[21].content_store 	p_hit[21] 	0.25460710600029
scalar tree_4_3_u09_r13_network.node[21].content_store 	hits[21] 	3454
scalar tree_4_3_u09_r13_network.node[21].content_store 	misses[21] 	10112
scalar tree_4_3_u09_r13_network.node[21].content_store 	decision_yes[21] 	10112
scalar tree_4_3_u09_r13_network.node[21].content_store 	decision_no[21] 	0
scalar tree_4_3_u09_r13_network.node[21].content_store 	decision_ratio[21] 	1
scalar tree_4_3_u09_r13_network.node[22].core_layer 	interests[22] 	13691
scalar tree_4_3_u09_r13_network.node[22].core_layer 	data[22] 	10003
scalar tree_4_3_u09_r13_network.node[22].content_store 	p_hit[22] 	0.26937404134103
scalar tree_4_3_u09_r13_network.node[22].content_store 	hits[22] 	3688
scalar tree_4_3_u09_r13_network.node[22].content_store 	misses[22] 	10003
scalar tree_4_3_u09_r13_network.node[22].content_store 	decision_yes[22] 	10003
scalar tree_4_3_u09_r13_network.node[22].content_store 	decision_no[22] 	0
scalar tree_4_3_u09_r13_network.node[22].content_store 	decision_ratio[22] 	1
scalar tree_4_3_u09_r13_network.node[23].core_layer 	interests[23] 	14772
scalar tree_4_3_u09_r13_network.node[23].core_layer 	data[23] 	10100
scalar tree_4_3_u09_r13_network.node[23].content_store 	p_hit[23] 	0.31627403195234
scalar tree_4_3_u09_r13_network.node[23].content_store 	hits[23] 	4672
scalar tree_4_3_u09_r13_network.node[23].content_store 	misses[23] 	10100
scalar tree_4_3_u09_r13_network.node[23].content_store 	decision_yes[23] 	10100
scalar tree_4_3_u09_r13_network.node[23].content_store 	decision_no[23] 	0
scalar tree_4_3_u09_r13_network.node[23].content_store 	decision_ratio[23] 	1
scalar tree_4_3_u09_r13_network.node[24].core_layer 	interests[24] 	15000
scalar tree_4_3_u09_r13_network.node[24].core_layer 	data[24] 	10132
scalar tree_4_3_u09_r13_network.node[24].content_store 	p_hit[24] 	0.3244
scalar tree_4_3_u09_r13_network.node[24].content_store 	hits[24] 	4866
scalar tree_4_3_u09_r13_network.node[24].content_store 	misses[24] 	10134
scalar tree_4_3_u09_r13_network.node[24].content_store 	decision_yes[24] 	10132
scalar tree_4_3_u09_r13_network.node[24].content_store 	decision_no[24] 	0
scalar tree_4_3_u09_r13_network.node[24].content_store 	decision_ratio[24] 	1
scalar tree_4_3_u09_r13_network.node[25].core_layer 	interests[25] 	14576
scalar tree_4_3_u09_r13_network.node[25].core_layer 	data[25] 	10128
scalar tree_4_3_u09_r13_network.node[25].content_store 	p_hit[25] 	0.30515916575192
scalar tree_4_3_u09_r13_network.node[25].content_store 	hits[25] 	4448
scalar tree_4_3_u09_r13_network.node[25].content_store 	misses[25] 	10128
scalar tree_4_3_u09_r13_network.node[25].content_store 	decision_yes[25] 	10128
scalar tree_4_3_u09_r13_network.node[25].content_store 	decision_no[25] 	0
scalar tree_4_3_u09_r13_network.node[25].content_store 	decision_ratio[25] 	1
scalar tree_4_3_u09_r13_network.node[26].core_layer 	interests[26] 	13907
scalar tree_4_3_u09_r13_network.node[26].core_layer 	data[26] 	10117
scalar tree_4_3_u09_r13_network.node[26].content_store 	p_hit[26] 	0.27252462788524
scalar tree_4_3_u09_r13_network.node[26].content_store 	hits[26] 	3790
scalar tree_4_3_u09_r13_network.node[26].content_store 	misses[26] 	10117
scalar tree_4_3_u09_r13_network.node[26].content_store 	decision_yes[26] 	10117
scalar tree_4_3_u09_r13_network.node[26].content_store 	decision_no[26] 	0
scalar tree_4_3_u09_r13_network.node[26].content_store 	decision_ratio[26] 	1
scalar tree_4_3_u09_r13_network.node[27].core_layer 	interests[27] 	15025
scalar tree_4_3_u09_r13_network.node[27].core_layer 	data[27] 	9928
scalar tree_4_3_u09_r13_network.node[27].content_store 	p_hit[27] 	0.33916805324459
scalar tree_4_3_u09_r13_network.node[27].content_store 	hits[27] 	5096
scalar tree_4_3_u09_r13_network.node[27].content_store 	misses[27] 	9929
scalar tree_4_3_u09_r13_network.node[27].content_store 	decision_yes[27] 	9928
scalar tree_4_3_u09_r13_network.node[27].content_store 	decision_no[27] 	0
scalar tree_4_3_u09_r13_network.node[27].content_store 	decision_ratio[27] 	1
scalar tree_4_3_u09_r13_network.node[28].core_layer 	interests[28] 	15085
scalar tree_4_3_u09_r13_network.node[28].core_layer 	data[28] 	10112
scalar tree_4_3_u09_r13_network.node[28].content_store 	p_hit[28] 	0.32966523036129
scalar tree_4_3_u09_r13_network.node[28].content_store 	hits[28] 	4973
scalar tree_4_3_u09_r13_network.node[28].content_store 	misses[28] 	10112
scalar tree_4_3_u09_r13_network.node[28].content_store 	decision_yes[28] 	10112
scalar tree_4_3_u09_r13_network.node[28].content_store 	decision_no[28] 	0
scalar tree_4_3_u09_r13_network.node[28].content_store 	decision_ratio[28] 	1
scalar tree_4_3_u09_r13_network.node[29].core_layer 	interests[29] 	14928
scalar tree_4_3_u09_r13_network.node[29].core_layer 	data[29] 	9969
scalar tree_4_3_u09_r13_network.node[29].content_store 	p_hit[29] 	0.33212754555198
scalar tree_4_3_u09_r13_network.node[29].content_store 	hits[29] 	4958
scalar tree_4_3_u09_r13_network.node[29].content_store 	misses[29] 	9970
scalar tree_4_3_u09_r13_network.node[29].content_store 	decision_yes[29] 	9969
scalar tree_4_3_u09_r13_network.node[29].content_store 	decision_no[29] 	0
scalar tree_4_3_u09_r13_network.node[29].content_store 	decision_ratio[29] 	1
scalar tree_4_3_u09_r13_network.node[30].core_layer 	interests[30] 	14143
scalar tree_4_3_u09_r13_network.node[30].core_layer 	data[30] 	10052
scalar tree_4_3_u09_r13_network.node[30].content_store 	p_hit[30] 	0.28925970444743
scalar tree_4_3_u09_r13_network.node[30].content_store 	hits[30] 	4091
scalar tree_4_3_u09_r13_network.node[30].content_store 	misses[30] 	10052
scalar tree_4_3_u09_r13_network.node[30].content_store 	decision_yes[30] 	10052
scalar tree_4_3_u09_r13_network.node[30].content_store 	decision_no[30] 	0
scalar tree_4_3_u09_r13_network.node[30].content_store 	decision_ratio[30] 	1
scalar tree_4_3_u09_r13_network.node[31].core_layer 	interests[31] 	14150
scalar tree_4_3_u09_r13_network.node[31].core_layer 	data[31] 	10095
scalar tree_4_3_u09_r13_network.node[31].content_store 	p_hit[31] 	0.28650176678445
scalar tree_4_3_u09_r13_network.node[31].content_store 	hits[31] 	4054
scalar tree_4_3_u09_r13_network.node[31].content_store 	misses[31] 	10096
scalar tree_4_3_u09_r13_network.node[31].content_store 	decision_yes[31] 	10095
scalar tree_4_3_u09_r13_network.node[31].content_store 	decision_no[31] 	0
scalar tree_4_3_u09_r13_network.node[31].content_store 	decision_ratio[31] 	1
scalar tree_4_3_u09_r13_network.node[32].core_layer 	interests[32] 	15428
scalar tree_4_3_u09_r13_network.node[32].core_layer 	data[32] 	10025
scalar tree_4_3_u09_r13_network.node[32].content_store 	p_hit[32] 	0.35020741508945
scalar tree_4_3_u09_r13_network.node[32].content_store 	hits[32] 	5403
scalar tree_4_3_u09_r13_network.node[32].content_store 	misses[32] 	10025
scalar tree_4_3_u09_r13_network.node[32].content_store 	decision_yes[32] 	10025
scalar tree_4_3_u09_r13_network.node[32].content_store 	decision_no[32] 	0
scalar tree_4_3_u09_r13_network.node[32].content_store 	decision_ratio[32] 	1
scalar tree_4_3_u09_r13_network.node[33].core_layer 	interests[33] 	14984
scalar tree_4_3_u09_r13_network.node[33].core_layer 	data[33] 	9926
scalar tree_4_3_u09_r13_network.node[33].content_store 	p_hit[33] 	0.33749332621463
scalar tree_4_3_u09_r13_network.node[33].content_store 	hits[33] 	5057
scalar tree_4_3_u09_r13_network.node[33].content_store 	misses[33] 	9927
scalar tree_4_3_u09_r13_network.node[33].content_store 	decision_yes[33] 	9926
scalar tree_4_3_u09_r13_network.node[33].content_store 	decision_no[33] 	0
scalar tree_4_3_u09_r13_network.node[33].content_store 	decision_ratio[33] 	1
scalar tree_4_3_u09_r13_network.node[34].core_layer 	interests[34] 	15607
scalar tree_4_3_u09_r13_network.node[34].core_layer 	data[34] 	10003
scalar tree_4_3_u09_r13_network.node[34].content_store 	p_hit[34] 	0.35900557442173
scalar tree_4_3_u09_r13_network.node[34].content_store 	hits[34] 	5603
scalar tree_4_3_u09_r13_network.node[34].content_store 	misses[34] 	10004
scalar tree_4_3_u09_r13_network.node[34].content_store 	decision_yes[34] 	10003
scalar tree_4_3_u09_r13_network.node[34].content_store 	decision_no[34] 	0
scalar tree_4_3_u09_r13_network.node[34].content_store 	decision_ratio[34] 	1
scalar tree_4_3_u09_r13_network.node[35].core_layer 	interests[35] 	14096
scalar tree_4_3_u09_r13_network.node[35].core_layer 	data[35] 	9976
scalar tree_4_3_u09_r13_network.node[35].content_store 	p_hit[35] 	0.29221055618615
scalar tree_4_3_u09_r13_network.node[35].content_store 	hits[35] 	4119
scalar tree_4_3_u09_r13_network.node[35].content_store 	misses[35] 	9977
scalar tree_4_3_u09_r13_network.node[35].content_store 	decision_yes[35] 	9976
scalar tree_4_3_u09_r13_network.node[35].content_store 	decision_no[35] 	0
scalar tree_4_3_u09_r13_network.node[35].content_store 	decision_ratio[35] 	1
scalar tree_4_3_u09_r13_network.node[36].core_layer 	interests[36] 	15243
scalar tree_4_3_u09_r13_network.node[36].core_layer 	data[36] 	10167
scalar tree_4_3_u09_r13_network.node[36].content_store 	p_hit[36] 	0.33293971003083
scalar tree_4_3_u09_r13_network.node[36].content_store 	hits[36] 	5075
scalar tree_4_3_u09_r13_network.node[36].content_store 	misses[36] 	10168
scalar tree_4_3_u09_r13_network.node[36].content_store 	decision_yes[36] 	10167
scalar tree_4_3_u09_r13_network.node[36].content_store 	decision_no[36] 	0
scalar tree_4_3_u09_r13_network.node[36].content_store 	decision_ratio[36] 	1
scalar tree_4_3_u09_r13_network.node[37].core_layer 	interests[37] 	15091
scalar tree_4_3_u09_r13_network.node[37].core_layer 	data[37] 	10091
scalar tree_4_3_u09_r13_network.node[37].content_store 	p_hit[37] 	0.33132330528129
scalar tree_4_3_u09_r13_network.node[37].content_store 	hits[37] 	5000
scalar tree_4_3_u09_r13_network.node[37].content_store 	misses[37] 	10091
scalar tree_4_3_u09_r13_network.node[37].content_store 	decision_yes[37] 	10091
scalar tree_4_3_u09_r13_network.node[37].content_store 	decision_no[37] 	0
scalar tree_4_3_u09_r13_network.node[37].content_store 	decision_ratio[37] 	1
scalar tree_4_3_u09_r13_network.node[38].core_layer 	interests[38] 	15003
scalar tree_4_3_u09_r13_network.node[38].core_layer 	data[38] 	9793
scalar tree_4_3_u09_r13_network.node[38].content_store 	p_hit[38] 	0.34726388055722
scalar tree_4_3_u09_r13_network.node[38].content_store 	hits[38] 	5210
scalar tree_4_3_u09_r13_network.node[38].content_store 	misses[38] 	9793
scalar tree_4_3_u09_r13_network.node[38].content_store 	decision_yes[38] 	9793
scalar tree_4_3_u09_r13_network.node[38].content_store 	decision_no[38] 	0
scalar tree_4_3_u09_r13_network.node[38].content_store 	decision_ratio[38] 	1
scalar tree_4_3_u09_r13_network.node[39].core_layer 	interests[39] 	13268
scalar tree_4_3_u09_r13_network.node[39].core_layer 	data[39] 	9872
scalar tree_4_3_u09_r13_network.node[39].content_store 	p_hit[39] 	0.25595417545975
scalar tree_4_3_u09_r13_network.node[39].content_store 	hits[39] 	3396
scalar tree_4_3_u09_r13_network.node[39].content_store 	misses[39] 	9872
scalar tree_4_3_u09_r13_network.node[39].content_store 	decision_yes[39] 	9872
scalar tree_4_3_u09_r13_network.node[39].content_store 	decision_no[39] 	0
scalar tree_4_3_u09_r13_network.node[39].content_store 	decision_ratio[39] 	1
scalar tree_4_3_u09_r13_network.client[13] 	hdistance[13] 	3.1275391275391
scalar tree_4_3_u09_r13_network.client[13] 	downloads[13] 	12012
scalar tree_4_3_u09_r13_network.client[13] 	avg_time[13] 	0.004960380143
scalar tree_4_3_u09_r13_network.client[14] 	hdistance[14] 	3.0648117839607
scalar tree_4_3_u09_r13_network.client[14] 	downloads[14] 	12220
scalar tree_4_3_u09_r13_network.client[14] 	avg_time[14] 	0.004922362788
scalar tree_4_3_u09_r13_network.client[15] 	hdistance[15] 	3.0594160833191
scalar tree_4_3_u09_r13_network.client[15] 	downloads[15] 	11714
scalar tree_4_3_u09_r13_network.client[15] 	avg_time[15] 	0.004812540313
scalar tree_4_3_u09_r13_network.client[16] 	hdistance[16] 	3.0630297943768
scalar tree_4_3_u09_r13_network.client[16] 	downloads[16] 	11915
scalar tree_4_3_u09_r13_network.client[16] 	avg_time[16] 	0.00492605661
scalar tree_4_3_u09_r13_network.client[17] 	hdistance[17] 	3.1371075484302
scalar tree_4_3_u09_r13_network.client[17] 	downloads[17] 	11976
scalar tree_4_3_u09_r13_network.client[17] 	avg_time[17] 	0.005077668198
scalar tree_4_3_u09_r13_network.client[18] 	hdistance[18] 	3.0408547008547
scalar tree_4_3_u09_r13_network.client[18] 	downloads[18] 	11700
scalar tree_4_3_u09_r13_network.client[18] 	avg_time[18] 	0.004892908398
scalar tree_4_3_u09_r13_network.client[19] 	hdistance[19] 	3.0571998669771
scalar tree_4_3_u09_r13_network.client[19] 	downloads[19] 	12028
scalar tree_4_3_u09_r13_network.client[19] 	avg_time[19] 	0.004817090438
scalar tree_4_3_u09_r13_network.client[20] 	hdistance[20] 	3.0474779889739
scalar tree_4_3_u09_r13_network.client[20] 	downloads[20] 	12153
scalar tree_4_3_u09_r13_network.client[20] 	avg_time[20] 	0.00490770949
scalar tree_4_3_u09_r13_network.client[21] 	hdistance[21] 	3.1251867839947
scalar tree_4_3_u09_r13_network.client[21] 	downloads[21] 	12046
scalar tree_4_3_u09_r13_network.client[21] 	avg_time[21] 	0.004952512339
scalar tree_4_3_u09_r13_network.client[22] 	hdistance[22] 	3.1516383032766
scalar tree_4_3_u09_r13_network.client[22] 	downloads[22] 	11811
scalar tree_4_3_u09_r13_network.client[22] 	avg_time[22] 	0.005049443478
scalar tree_4_3_u09_r13_network.client[23] 	hdistance[23] 	3.0546420860322
scalar tree_4_3_u09_r13_network.client[23] 	downloads[23] 	12042
scalar tree_4_3_u09_r13_network.client[23] 	avg_time[23] 	0.004866464361
scalar tree_4_3_u09_r13_network.client[24] 	hdistance[24] 	3.082931693535
scalar tree_4_3_u09_r13_network.client[24] 	downloads[24] 	12034
scalar tree_4_3_u09_r13_network.client[24] 	avg_time[24] 	0.004936568869
scalar tree_4_3_u09_r13_network.client[25] 	hdistance[25] 	3.0736089162439
scalar tree_4_3_u09_r13_network.client[25] 	downloads[25] 	12023
scalar tree_4_3_u09_r13_network.client[25] 	avg_time[25] 	0.004902856323
scalar tree_4_3_u09_r13_network.client[26] 	hdistance[26] 	3.1402632017325
scalar tree_4_3_u09_r13_network.client[26] 	downloads[26] 	12006
scalar tree_4_3_u09_r13_network.client[26] 	avg_time[26] 	0.005021130056
scalar tree_4_3_u09_r13_network.client[27] 	hdistance[27] 	3.045579994982
scalar tree_4_3_u09_r13_network.client[27] 	downloads[27] 	11957
scalar tree_4_3_u09_r13_network.client[27] 	avg_time[27] 	0.004876261771
scalar tree_4_3_u09_r13_network.client[28] 	hdistance[28] 	3.0586873863448
scalar tree_4_3_u09_r13_network.client[28] 	downloads[28] 	12098
scalar tree_4_3_u09_r13_network.client[28] 	avg_time[28] 	0.004895700193
scalar tree_4_3_u09_r13_network.client[29] 	hdistance[29] 	3.0439073346157
scalar tree_4_3_u09_r13_network.client[29] 	downloads[29] 	11957
scalar tree_4_3_u09_r13_network.client[29] 	avg_time[29] 	0.00487402106
scalar tree_4_3_u09_r13_network.client[30] 	hdistance[30] 	3.1377636424506
scalar tree_4_3_u09_r13_network.client[30] 	downloads[30] 	11948
scalar tree_4_3_u09_r13_network.client[30] 	avg_time[30] 	0.005044858064
scalar tree_4_3_u09_r13_network.client[31] 	hdistance[31] 	3.1477997984548
scalar tree_4_3_u09_r13_network.client[31] 	downloads[31] 	11908
scalar tree_4_3_u09_r13_network.client[31] 	avg_time[31] 	0.005072721212
scalar tree_4_3_u09_r13_network.client[32] 	hdistance[32] 	3.0592555499917
scalar tree_4_3_u09_r13_network.client[32] 	downloads[32] 	11982
scalar tree_4_3_u09_r13_network.client[32] 	avg_time[32] 	0.004919042212
scalar tree_4_3_u09_r13_network.client[33] 	hdistance[33] 	3.0454851752022
scalar tree_4_3_u09_r13_network.client[33] 	downloads[33] 	11872
scalar tree_4_3_u09_r13_network.client[33] 	avg_time[33] 	0.004876008296
scalar tree_4_3_u09_r13_network.client[34] 	hdistance[34] 	3.0470696430064
scalar tree_4_3_u09_r13_network.client[34] 	downloads[34] 	11961
scalar tree_4_3_u09_r13_network.client[34] 	avg_time[34] 	0.00490362875
scalar tree_4_3_u09_r13_network.client[35] 	hdistance[35] 	3.1269412559082
scalar tree_4_3_u09_r13_network.client[35] 	downloads[35] 	11848
scalar tree_4_3_u09_r13_network.client[35] 	avg_time[35] 	0.005044807791
scalar tree_4_3_u09_r13_network.client[36] 	hdistance[36] 	3.0372070152434
scalar tree_4_3_u09_r13_network.client[36] 	downloads[36] 	12202
scalar tree_4_3_u09_r13_network.client[36] 	avg_time[36] 	0.004875838589
scalar tree_4_3_u09_r13_network.client[37] 	hdistance[37] 	3.0556155956439
scalar tree_4_3_u09_r13_network.client[37] 	downloads[37] 	12029
scalar tree_4_3_u09_r13_network.client[37] 	avg_time[37] 	0.004891675417
scalar tree_4_3_u09_r13_network.client[38] 	hdistance[38] 	3.000505050505
scalar tree_4_3_u09_r13_network.client[38] 	downloads[38] 	11880
scalar tree_4_3_u09_r13_network.client[38] 	avg_time[38] 	0.004808278074
scalar tree_4_3_u09_r13_network.client[39] 	hdistance[39] 	3.1135574561775
scalar tree_4_3_u09_r13_network.client[39] 	downloads[39] 	11809
scalar tree_4_3_u09_r13_network.client[39] 	avg_time[39] 	0.004950119844
