version 2
run General-199-20160818-20:44:03-19481
attr a 0.9
attr cd lce
attr configname General
attr cr lru
attr datetime 20160818-20:44:03
attr experiment General
attr fsize 1
attr inifile hw5115/scenario_A/EdgeCoop.ini
attr iterationvars "$name=tree_4_3, $un=09, $rep=20, $scenario=Edge, $cd=lce, $cr=lru, $fsize=1, $a=0.9, $sl=nrr, $ttl=1000, $variance=0.05"
attr iterationvars2 "$name=tree_4_3, $un=09, $rep=20, $scenario=Edge, $cd=lce, $cr=lru, $fsize=1, $a=0.9, $sl=nrr, $ttl=1000, $variance=0.05, $repetition=0"
attr measurement "$name=tree_4_3, $un=09, $rep=20, $scenario=Edge, $cd=lce, $cr=lru, $fsize=1, $a=0.9, $sl=nrr, $ttl=1000, $variance=0.05"
attr name tree_4_3
attr network networks.${name}_u${un}_r${rep}_network
attr processid 19481
attr rep 20
attr repetition 0
attr replication #0
attr resultdir results
attr runnumber 199
attr scenario Edge
attr seedset 20
attr sl nrr
attr ttl 1000
attr un 09
attr variance 0.05

scalar . 	a 	0.9
scalar . 	fsize 	1
scalar . 	rep 	20
scalar . 	ttl 	1000
scalar . 	un 	09
scalar . 	variance 	0.05
scalar tree_4_3_u09_r20_network.content_distribution 	repo-0 	0
scalar tree_4_3_u09_r20_network.content_distribution 	client-0 	13
scalar tree_4_3_u09_r20_network.content_distribution 	client-1 	14
scalar tree_4_3_u09_r20_network.content_distribution 	client-2 	15
scalar tree_4_3_u09_r20_network.content_distribution 	client-3 	16
scalar tree_4_3_u09_r20_network.content_distribution 	client-4 	17
scalar tree_4_3_u09_r20_network.content_distribution 	client-5 	18
scalar tree_4_3_u09_r20_network.content_distribution 	client-6 	19
scalar tree_4_3_u09_r20_network.content_distribution 	client-7 	20
scalar tree_4_3_u09_r20_network.content_distribution 	client-8 	21
scalar tree_4_3_u09_r20_network.content_distribution 	client-9 	22
scalar tree_4_3_u09_r20_network.content_distribution 	client-10 	23
scalar tree_4_3_u09_r20_network.content_distribution 	client-11 	24
scalar tree_4_3_u09_r20_network.content_distribution 	client-12 	25
scalar tree_4_3_u09_r20_network.content_distribution 	client-13 	26
scalar tree_4_3_u09_r20_network.content_distribution 	client-14 	27
scalar tree_4_3_u09_r20_network.content_distribution 	client-15 	28
scalar tree_4_3_u09_r20_network.content_distribution 	client-16 	29
scalar tree_4_3_u09_r20_network.content_distribution 	client-17 	30
scalar tree_4_3_u09_r20_network.content_distribution 	client-18 	31
scalar tree_4_3_u09_r20_network.content_distribution 	client-19 	32
scalar tree_4_3_u09_r20_network.content_distribution 	client-20 	33
scalar tree_4_3_u09_r20_network.content_distribution 	client-21 	34
scalar tree_4_3_u09_r20_network.content_distribution 	client-22 	35
scalar tree_4_3_u09_r20_network.content_distribution 	client-23 	36
scalar tree_4_3_u09_r20_network.content_distribution 	client-24 	37
scalar tree_4_3_u09_r20_network.content_distribution 	client-25 	38
scalar tree_4_3_u09_r20_network.content_distribution 	client-26 	39
scalar tree_4_3_u09_r20_network.content_distribution 	repo-0_card 	100000
scalar tree_4_3_u09_r20_network.content_distribution 	repo-0_price 	0
scalar tree_4_3_u09_r20_network.statistics 	stabilization_time 	331.5
scalar tree_4_3_u09_r20_network.statistics 	p_hit 	0.21517847768562
scalar tree_4_3_u09_r20_network.statistics 	interests 	28171.8
scalar tree_4_3_u09_r20_network.statistics 	data 	20062.725
scalar tree_4_3_u09_r20_network.statistics 	hdistance 	3.0801431520213
scalar tree_4_3_u09_r20_network.statistics 	avg_time 	0.004948222937
scalar tree_4_3_u09_r20_network.statistics 	downloads 	324338
scalar tree_4_3_u09_r20_network.statistics 	total_cost 	0
scalar tree_4_3_u09_r20_network.statistics 	total_replicas 	100000
scalar tree_4_3_u09_r20_network.statistics 	inner_hit 	0.39408888258545
scalar tree_4_3_u09_r20_network.node[0].core_layer 	interests[0] 	196520
scalar tree_4_3_u09_r20_network.node[0].core_layer 	repo_load[0] 	196520
scalar tree_4_3_u09_r20_network.node[0].core_layer 	data[0] 	0
scalar tree_4_3_u09_r20_network.node[0].core_layer 	repo_int[0] 	196520
scalar tree_4_3_u09_r20_network.node[0].content_store 	p_hit[0] 	0
scalar tree_4_3_u09_r20_network.node[0].content_store 	hits[0] 	0
scalar tree_4_3_u09_r20_network.node[0].content_store 	misses[0] 	196520
scalar tree_4_3_u09_r20_network.node[0].content_store 	decision_yes[0] 	0
scalar tree_4_3_u09_r20_network.node[0].content_store 	decision_no[0] 	196520
scalar tree_4_3_u09_r20_network.node[0].content_store 	decision_ratio[0] 	0
scalar tree_4_3_u09_r20_network.node[1].core_layer 	interests[1] 	154329
scalar tree_4_3_u09_r20_network.node[1].core_layer 	data[1] 	154322
scalar tree_4_3_u09_r20_network.node[1].content_store 	p_hit[1] 	0
scalar tree_4_3_u09_r20_network.node[1].content_store 	hits[1] 	0
scalar tree_4_3_u09_r20_network.node[1].content_store 	misses[1] 	154329
scalar tree_4_3_u09_r20_network.node[1].content_store 	decision_yes[1] 	0
scalar tree_4_3_u09_r20_network.node[1].content_store 	decision_no[1] 	154306
scalar tree_4_3_u09_r20_network.node[1].content_store 	decision_ratio[1] 	0
scalar tree_4_3_u09_r20_network.node[2].core_layer 	interests[2] 	57150
scalar tree_4_3_u09_r20_network.node[2].core_layer 	data[2] 	57149
scalar tree_4_3_u09_r20_network.node[2].content_store 	p_hit[2] 	0
scalar tree_4_3_u09_r20_network.node[2].content_store 	hits[2] 	0
scalar tree_4_3_u09_r20_network.node[2].content_store 	misses[2] 	57150
scalar tree_4_3_u09_r20_network.node[2].content_store 	decision_yes[2] 	0
scalar tree_4_3_u09_r20_network.node[2].content_store 	decision_no[2] 	57148
scalar tree_4_3_u09_r20_network.node[2].content_store 	decision_ratio[2] 	0
scalar tree_4_3_u09_r20_network.node[3].core_layer 	interests[3] 	16619
scalar tree_4_3_u09_r20_network.node[3].core_layer 	data[3] 	16617
scalar tree_4_3_u09_r20_network.node[3].content_store 	p_hit[3] 	0
scalar tree_4_3_u09_r20_network.node[3].content_store 	hits[3] 	0
scalar tree_4_3_u09_r20_network.node[3].content_store 	misses[3] 	16619
scalar tree_4_3_u09_r20_network.node[3].content_store 	decision_yes[3] 	0
scalar tree_4_3_u09_r20_network.node[3].content_store 	decision_no[3] 	16617
scalar tree_4_3_u09_r20_network.node[3].content_store 	decision_ratio[3] 	0
scalar tree_4_3_u09_r20_network.node[4].core_layer 	interests[4] 	49999
scalar tree_4_3_u09_r20_network.node[4].core_layer 	data[4] 	49999
scalar tree_4_3_u09_r20_network.node[4].content_store 	p_hit[4] 	0
scalar tree_4_3_u09_r20_network.node[4].content_store 	hits[4] 	0
scalar tree_4_3_u09_r20_network.node[4].content_store 	misses[4] 	49999
scalar tree_4_3_u09_r20_network.node[4].content_store 	decision_yes[4] 	0
scalar tree_4_3_u09_r20_network.node[4].content_store 	decision_no[4] 	49992
scalar tree_4_3_u09_r20_network.node[4].content_store 	decision_ratio[4] 	0
scalar tree_4_3_u09_r20_network.node[5].core_layer 	interests[5] 	31765
scalar tree_4_3_u09_r20_network.node[5].core_layer 	data[5] 	31764
scalar tree_4_3_u09_r20_network.node[5].content_store 	p_hit[5] 	0
scalar tree_4_3_u09_r20_network.node[5].content_store 	hits[5] 	0
scalar tree_4_3_u09_r20_network.node[5].content_store 	misses[5] 	31765
scalar tree_4_3_u09_r20_network.node[5].content_store 	decision_yes[5] 	0
scalar tree_4_3_u09_r20_network.node[5].content_store 	decision_no[5] 	31763
scalar tree_4_3_u09_r20_network.node[5].content_store 	decision_ratio[5] 	0
scalar tree_4_3_u09_r20_network.node[6].core_layer 	interests[6] 	18240
scalar tree_4_3_u09_r20_network.node[6].core_layer 	data[6] 	18240
scalar tree_4_3_u09_r20_network.node[6].content_store 	p_hit[6] 	0
scalar tree_4_3_u09_r20_network.node[6].content_store 	hits[6] 	0
scalar tree_4_3_u09_r20_network.node[6].content_store 	misses[6] 	18240
scalar tree_4_3_u09_r20_network.node[6].content_store 	decision_yes[6] 	0
scalar tree_4_3_u09_r20_network.node[6].content_store 	decision_no[6] 	18239
scalar tree_4_3_u09_r20_network.node[6].content_store 	decision_ratio[6] 	0
scalar tree_4_3_u09_r20_network.node[7].core_layer 	interests[7] 	54040
scalar tree_4_3_u09_r20_network.node[7].core_layer 	data[7] 	54030
scalar tree_4_3_u09_r20_network.node[7].content_store 	p_hit[7] 	0
scalar tree_4_3_u09_r20_network.node[7].content_store 	hits[7] 	0
scalar tree_4_3_u09_r20_network.node[7].content_store 	misses[7] 	54040
scalar tree_4_3_u09_r20_network.node[7].content_store 	decision_yes[7] 	0
scalar tree_4_3_u09_r20_network.node[7].content_store 	decision_no[7] 	54021
scalar tree_4_3_u09_r20_network.node[7].content_store 	decision_ratio[7] 	0
scalar tree_4_3_u09_r20_network.node[8].core_layer 	interests[8] 	29748
scalar tree_4_3_u09_r20_network.node[8].core_layer 	data[8] 	29747
scalar tree_4_3_u09_r20_network.node[8].content_store 	p_hit[8] 	0
scalar tree_4_3_u09_r20_network.node[8].content_store 	hits[8] 	0
scalar tree_4_3_u09_r20_network.node[8].content_store 	misses[8] 	29748
scalar tree_4_3_u09_r20_network.node[8].content_store 	decision_yes[8] 	0
scalar tree_4_3_u09_r20_network.node[8].content_store 	decision_no[8] 	29746
scalar tree_4_3_u09_r20_network.node[8].content_store 	decision_ratio[8] 	0
scalar tree_4_3_u09_r20_network.node[9].core_layer 	interests[9] 	17380
scalar tree_4_3_u09_r20_network.node[9].core_layer 	data[9] 	17378
scalar tree_4_3_u09_r20_network.node[9].content_store 	p_hit[9] 	0
scalar tree_4_3_u09_r20_network.node[9].content_store 	hits[9] 	0
scalar tree_4_3_u09_r20_network.node[9].content_store 	misses[9] 	17380
scalar tree_4_3_u09_r20_network.node[9].content_store 	decision_yes[9] 	0
scalar tree_4_3_u09_r20_network.node[9].content_store 	decision_no[9] 	17378
scalar tree_4_3_u09_r20_network.node[9].content_store 	decision_ratio[9] 	0
scalar tree_4_3_u09_r20_network.node[10].core_layer 	interests[10] 	54702
scalar tree_4_3_u09_r20_network.node[10].core_layer 	data[10] 	54699
scalar tree_4_3_u09_r20_network.node[10].content_store 	p_hit[10] 	0
scalar tree_4_3_u09_r20_network.node[10].content_store 	hits[10] 	0
scalar tree_4_3_u09_r20_network.node[10].content_store 	misses[10] 	54702
scalar tree_4_3_u09_r20_network.node[10].content_store 	decision_yes[10] 	0
scalar tree_4_3_u09_r20_network.node[10].content_store 	decision_no[10] 	54694
scalar tree_4_3_u09_r20_network.node[10].content_store 	decision_ratio[10] 	0
scalar tree_4_3_u09_r20_network.node[11].core_layer 	interests[11] 	33035
scalar tree_4_3_u09_r20_network.node[11].core_layer 	data[11] 	33035
scalar tree_4_3_u09_r20_network.node[11].content_store 	p_hit[11] 	0
scalar tree_4_3_u09_r20_network.node[11].content_store 	hits[11] 	0
scalar tree_4_3_u09_r20_network.node[11].content_store 	misses[11] 	33035
scalar tree_4_3_u09_r20_network.node[11].content_store 	decision_yes[11] 	0
scalar tree_4_3_u09_r20_network.node[11].content_store 	decision_no[11] 	33031
scalar tree_4_3_u09_r20_network.node[11].content_store 	decision_ratio[11] 	0
scalar tree_4_3_u09_r20_network.node[12].core_layer 	interests[12] 	14094
scalar tree_4_3_u09_r20_network.node[12].core_layer 	data[12] 	14094
scalar tree_4_3_u09_r20_network.node[12].content_store 	p_hit[12] 	0
scalar tree_4_3_u09_r20_network.node[12].content_store 	hits[12] 	0
scalar tree_4_3_u09_r20_network.node[12].content_store 	misses[12] 	14094
scalar tree_4_3_u09_r20_network.node[12].content_store 	decision_yes[12] 	0
scalar tree_4_3_u09_r20_network.node[12].content_store 	decision_no[12] 	14094
scalar tree_4_3_u09_r20_network.node[12].content_store 	decision_ratio[12] 	0
scalar tree_4_3_u09_r20_network.node[13].core_layer 	interests[13] 	13829
scalar tree_4_3_u09_r20_network.node[13].core_layer 	data[13] 	10072
scalar tree_4_3_u09_r20_network.node[13].content_store 	p_hit[13] 	0.27167546460337
scalar tree_4_3_u09_r20_network.node[13].content_store 	hits[13] 	3757
scalar tree_4_3_u09_r20_network.node[13].content_store 	misses[13] 	10072
scalar tree_4_3_u09_r20_network.node[13].content_store 	decision_yes[13] 	10072
scalar tree_4_3_u09_r20_network.node[13].content_store 	decision_no[13] 	0
scalar tree_4_3_u09_r20_network.node[13].content_store 	decision_ratio[13] 	1
scalar tree_4_3_u09_r20_network.node[14].core_layer 	interests[14] 	14754
scalar tree_4_3_u09_r20_network.node[14].core_layer 	data[14] 	10053
scalar tree_4_3_u09_r20_network.node[14].content_store 	p_hit[14] 	0.31862545750305
scalar tree_4_3_u09_r20_network.node[14].content_store 	hits[14] 	4701
scalar tree_4_3_u09_r20_network.node[14].content_store 	misses[14] 	10053
scalar tree_4_3_u09_r20_network.node[14].content_store 	decision_yes[14] 	10053
scalar tree_4_3_u09_r20_network.node[14].content_store 	decision_no[14] 	0
scalar tree_4_3_u09_r20_network.node[14].content_store 	decision_ratio[14] 	1
scalar tree_4_3_u09_r20_network.node[15].core_layer 	interests[15] 	15148
scalar tree_4_3_u09_r20_network.node[15].core_layer 	data[15] 	9915
scalar tree_4_3_u09_r20_network.node[15].content_store 	p_hit[15] 	0.34539213097439
scalar tree_4_3_u09_r20_network.node[15].content_store 	hits[15] 	5232
scalar tree_4_3_u09_r20_network.node[15].content_store 	misses[15] 	9916
scalar tree_4_3_u09_r20_network.node[15].content_store 	decision_yes[15] 	9915
scalar tree_4_3_u09_r20_network.node[15].content_store 	decision_no[15] 	0
scalar tree_4_3_u09_r20_network.node[15].content_store 	decision_ratio[15] 	1
scalar tree_4_3_u09_r20_network.node[16].core_layer 	interests[16] 	14697
scalar tree_4_3_u09_r20_network.node[16].core_layer 	data[16] 	9991
scalar tree_4_3_u09_r20_network.node[16].content_store 	p_hit[16] 	0.32020140164659
scalar tree_4_3_u09_r20_network.node[16].content_store 	hits[16] 	4706
scalar tree_4_3_u09_r20_network.node[16].content_store 	misses[16] 	9991
scalar tree_4_3_u09_r20_network.node[16].content_store 	decision_yes[16] 	9991
scalar tree_4_3_u09_r20_network.node[16].content_store 	decision_no[16] 	0
scalar tree_4_3_u09_r20_network.node[16].content_store 	decision_ratio[16] 	1
scalar tree_4_3_u09_r20_network.node[17].core_layer 	interests[17] 	13933
scalar tree_4_3_u09_r20_network.node[17].core_layer 	data[17] 	10279
scalar tree_4_3_u09_r20_network.node[17].content_store 	p_hit[17] 	0.26203976171679
scalar tree_4_3_u09_r20_network.node[17].content_store 	hits[17] 	3651
scalar tree_4_3_u09_r20_network.node[17].content_store 	misses[17] 	10282
scalar tree_4_3_u09_r20_network.node[17].content_store 	decision_yes[17] 	10279
scalar tree_4_3_u09_r20_network.node[17].content_store 	decision_no[17] 	0
scalar tree_4_3_u09_r20_network.node[17].content_store 	decision_ratio[17] 	1
scalar tree_4_3_u09_r20_network.node[18].core_layer 	interests[18] 	15325
scalar tree_4_3_u09_r20_network.node[18].core_layer 	data[18] 	10088
scalar tree_4_3_u09_r20_network.node[18].content_store 	p_hit[18] 	0.34166394779772
scalar tree_4_3_u09_r20_network.node[18].content_store 	hits[18] 	5236
scalar tree_4_3_u09_r20_network.node[18].content_store 	misses[18] 	10089
scalar tree_4_3_u09_r20_network.node[18].content_store 	decision_yes[18] 	10088
scalar tree_4_3_u09_r20_network.node[18].content_store 	decision_no[18] 	0
scalar tree_4_3_u09_r20_network.node[18].content_store 	decision_ratio[18] 	1
scalar tree_4_3_u09_r20_network.node[19].core_layer 	interests[19] 	15184
scalar tree_4_3_u09_r20_network.node[19].core_layer 	data[19] 	9947
scalar tree_4_3_u09_r20_network.node[19].content_store 	p_hit[19] 	0.34496838777661
scalar tree_4_3_u09_r20_network.node[19].content_store 	hits[19] 	5238
scalar tree_4_3_u09_r20_network.node[19].content_store 	misses[19] 	9946
scalar tree_4_3_u09_r20_network.node[19].content_store 	decision_yes[19] 	9947
scalar tree_4_3_u09_r20_network.node[19].content_store 	decision_no[19] 	0
scalar tree_4_3_u09_r20_network.node[19].content_store 	decision_ratio[19] 	1
scalar tree_4_3_u09_r20_network.node[20].core_layer 	interests[20] 	15062
scalar tree_4_3_u09_r20_network.node[20].core_layer 	data[20] 	9938
scalar tree_4_3_u09_r20_network.node[20].content_store 	p_hit[20] 	0.34012747311114
scalar tree_4_3_u09_r20_network.node[20].content_store 	hits[20] 	5123
scalar tree_4_3_u09_r20_network.node[20].content_store 	misses[20] 	9939
scalar tree_4_3_u09_r20_network.node[20].content_store 	decision_yes[20] 	9938
scalar tree_4_3_u09_r20_network.node[20].content_store 	decision_no[20] 	0
scalar tree_4_3_u09_r20_network.node[20].content_store 	decision_ratio[20] 	1
scalar tree_4_3_u09_r20_network.node[21].core_layer 	interests[21] 	14326
scalar tree_4_3_u09_r20_network.node[21].core_layer 	data[21] 	10015
scalar tree_4_3_u09_r20_network.node[21].content_store 	p_hit[21] 	0.30092140164735
scalar tree_4_3_u09_r20_network.node[21].content_store 	hits[21] 	4311
scalar tree_4_3_u09_r20_network.node[21].content_store 	misses[21] 	10015
scalar tree_4_3_u09_r20_network.node[21].content_store 	decision_yes[21] 	10015
scalar tree_4_3_u09_r20_network.node[21].content_store 	decision_no[21] 	0
scalar tree_4_3_u09_r20_network.node[21].content_store 	decision_ratio[21] 	1
scalar tree_4_3_u09_r20_network.node[22].core_layer 	interests[22] 	14303
scalar tree_4_3_u09_r20_network.node[22].core_layer 	data[22] 	9939
scalar tree_4_3_u09_r20_network.node[22].content_store 	p_hit[22] 	0.30504090051038
scalar tree_4_3_u09_r20_network.node[22].content_store 	hits[22] 	4363
scalar tree_4_3_u09_r20_network.node[22].content_store 	misses[22] 	9940
scalar tree_4_3_u09_r20_network.node[22].content_store 	decision_yes[22] 	9939
scalar tree_4_3_u09_r20_network.node[22].content_store 	decision_no[22] 	0
scalar tree_4_3_u09_r20_network.node[22].content_store 	decision_ratio[22] 	1
scalar tree_4_3_u09_r20_network.node[23].core_layer 	interests[23] 	15383
scalar tree_4_3_u09_r20_network.node[23].core_layer 	data[23] 	10061
scalar tree_4_3_u09_r20_network.node[23].content_store 	p_hit[23] 	0.34583631281285
scalar tree_4_3_u09_r20_network.node[23].content_store 	hits[23] 	5320
scalar tree_4_3_u09_r20_network.node[23].content_store 	misses[23] 	10063
scalar tree_4_3_u09_r20_network.node[23].content_store 	decision_yes[23] 	10061
scalar tree_4_3_u09_r20_network.node[23].content_store 	decision_no[23] 	0
scalar tree_4_3_u09_r20_network.node[23].content_store 	decision_ratio[23] 	1
scalar tree_4_3_u09_r20_network.node[24].core_layer 	interests[24] 	15491
scalar tree_4_3_u09_r20_network.node[24].core_layer 	data[24] 	10099
scalar tree_4_3_u09_r20_network.node[24].content_store 	p_hit[24] 	0.34800852107675
scalar tree_4_3_u09_r20_network.node[24].content_store 	hits[24] 	5391
scalar tree_4_3_u09_r20_network.node[24].content_store 	misses[24] 	10100
scalar tree_4_3_u09_r20_network.node[24].content_store 	decision_yes[24] 	10099
scalar tree_4_3_u09_r20_network.node[24].content_store 	decision_no[24] 	0
scalar tree_4_3_u09_r20_network.node[24].content_store 	decision_ratio[24] 	1
scalar tree_4_3_u09_r20_network.node[25].core_layer 	interests[25] 	15309
scalar tree_4_3_u09_r20_network.node[25].core_layer 	data[25] 	10042
scalar tree_4_3_u09_r20_network.node[25].content_store 	p_hit[25] 	0.34391534391534
scalar tree_4_3_u09_r20_network.node[25].content_store 	hits[25] 	5265
scalar tree_4_3_u09_r20_network.node[25].content_store 	misses[25] 	10044
scalar tree_4_3_u09_r20_network.node[25].content_store 	decision_yes[25] 	10042
scalar tree_4_3_u09_r20_network.node[25].content_store 	decision_no[25] 	0
scalar tree_4_3_u09_r20_network.node[25].content_store 	decision_ratio[25] 	1
scalar tree_4_3_u09_r20_network.node[26].core_layer 	interests[26] 	13342
scalar tree_4_3_u09_r20_network.node[26].core_layer 	data[26] 	10010
scalar tree_4_3_u09_r20_network.node[26].content_store 	p_hit[26] 	0.2496627192325
scalar tree_4_3_u09_r20_network.node[26].content_store 	hits[26] 	3331
scalar tree_4_3_u09_r20_network.node[26].content_store 	misses[26] 	10011
scalar tree_4_3_u09_r20_network.node[26].content_store 	decision_yes[26] 	10010
scalar tree_4_3_u09_r20_network.node[26].content_store 	decision_no[26] 	0
scalar tree_4_3_u09_r20_network.node[26].content_store 	decision_ratio[26] 	1
scalar tree_4_3_u09_r20_network.node[27].core_layer 	interests[27] 	15048
scalar tree_4_3_u09_r20_network.node[27].core_layer 	data[27] 	10097
scalar tree_4_3_u09_r20_network.node[27].content_store 	p_hit[27] 	0.32881446039341
scalar tree_4_3_u09_r20_network.node[27].content_store 	hits[27] 	4948
scalar tree_4_3_u09_r20_network.node[27].content_store 	misses[27] 	10100
scalar tree_4_3_u09_r20_network.node[27].content_store 	decision_yes[27] 	10097
scalar tree_4_3_u09_r20_network.node[27].content_store 	decision_no[27] 	0
scalar tree_4_3_u09_r20_network.node[27].content_store 	decision_ratio[27] 	1
scalar tree_4_3_u09_r20_network.node[28].core_layer 	interests[28] 	15477
scalar tree_4_3_u09_r20_network.node[28].core_layer 	data[28] 	10151
scalar tree_4_3_u09_r20_network.node[28].content_store 	p_hit[28] 	0.34405892614848
scalar tree_4_3_u09_r20_network.node[28].content_store 	hits[28] 	5325
scalar tree_4_3_u09_r20_network.node[28].content_store 	misses[28] 	10152
scalar tree_4_3_u09_r20_network.node[28].content_store 	decision_yes[28] 	10151
scalar tree_4_3_u09_r20_network.node[28].content_store 	decision_no[28] 	0
scalar tree_4_3_u09_r20_network.node[28].content_store 	decision_ratio[28] 	1
scalar tree_4_3_u09_r20_network.node[29].core_layer 	interests[29] 	14993
scalar tree_4_3_u09_r20_network.node[29].core_layer 	data[29] 	10002
scalar tree_4_3_u09_r20_network.node[29].content_store 	p_hit[29] 	0.33282198359234
scalar tree_4_3_u09_r20_network.node[29].content_store 	hits[29] 	4990
scalar tree_4_3_u09_r20_network.node[29].content_store 	misses[29] 	10003
scalar tree_4_3_u09_r20_network.node[29].content_store 	decision_yes[29] 	10002
scalar tree_4_3_u09_r20_network.node[29].content_store 	decision_no[29] 	0
scalar tree_4_3_u09_r20_network.node[29].content_store 	decision_ratio[29] 	1
scalar tree_4_3_u09_r20_network.node[30].core_layer 	interests[30] 	14273
scalar tree_4_3_u09_r20_network.node[30].core_layer 	data[30] 	10117
scalar tree_4_3_u09_r20_network.node[30].content_store 	p_hit[30] 	0.29096896237652
scalar tree_4_3_u09_r20_network.node[30].content_store 	hits[30] 	4153
scalar tree_4_3_u09_r20_network.node[30].content_store 	misses[30] 	10120
scalar tree_4_3_u09_r20_network.node[30].content_store 	decision_yes[30] 	10117
scalar tree_4_3_u09_r20_network.node[30].content_store 	decision_no[30] 	0
scalar tree_4_3_u09_r20_network.node[30].content_store 	decision_ratio[30] 	1
scalar tree_4_3_u09_r20_network.node[31].core_layer 	interests[31] 	14575
scalar tree_4_3_u09_r20_network.node[31].core_layer 	data[31] 	10287
scalar tree_4_3_u09_r20_network.node[31].content_store 	p_hit[31] 	0.29420240137221
scalar tree_4_3_u09_r20_network.node[31].content_store 	hits[31] 	4288
scalar tree_4_3_u09_r20_network.node[31].content_store 	misses[31] 	10287
scalar tree_4_3_u09_r20_network.node[31].content_store 	decision_yes[31] 	10287
scalar tree_4_3_u09_r20_network.node[31].content_store 	decision_no[31] 	0
scalar tree_4_3_u09_r20_network.node[31].content_store 	decision_ratio[31] 	1
scalar tree_4_3_u09_r20_network.node[32].core_layer 	interests[32] 	14436
scalar tree_4_3_u09_r20_network.node[32].core_layer 	data[32] 	10072
scalar tree_4_3_u09_r20_network.node[32].content_store 	p_hit[32] 	0.30223053477418
scalar tree_4_3_u09_r20_network.node[32].content_store 	hits[32] 	4363
scalar tree_4_3_u09_r20_network.node[32].content_store 	misses[32] 	10073
scalar tree_4_3_u09_r20_network.node[32].content_store 	decision_yes[32] 	10072
scalar tree_4_3_u09_r20_network.node[32].content_store 	decision_no[32] 	0
scalar tree_4_3_u09_r20_network.node[32].content_store 	decision_ratio[32] 	1
scalar tree_4_3_u09_r20_network.node[33].core_layer 	interests[33] 	15385
scalar tree_4_3_u09_r20_network.node[33].core_layer 	data[33] 	9983
scalar tree_4_3_u09_r20_network.node[33].content_store 	p_hit[33] 	0.35112122196945
scalar tree_4_3_u09_r20_network.node[33].content_store 	hits[33] 	5402
scalar tree_4_3_u09_r20_network.node[33].content_store 	misses[33] 	9983
scalar tree_4_3_u09_r20_network.node[33].content_store 	decision_yes[33] 	9983
scalar tree_4_3_u09_r20_network.node[33].content_store 	decision_no[33] 	0
scalar tree_4_3_u09_r20_network.node[33].content_store 	decision_ratio[33] 	1
scalar tree_4_3_u09_r20_network.node[34].core_layer 	interests[34] 	15978
scalar tree_4_3_u09_r20_network.node[34].core_layer 	data[34] 	10029
scalar tree_4_3_u09_r20_network.node[34].content_store 	p_hit[34] 	0.37232444611341
scalar tree_4_3_u09_r20_network.node[34].content_store 	hits[34] 	5949
scalar tree_4_3_u09_r20_network.node[34].content_store 	misses[34] 	10029
scalar tree_4_3_u09_r20_network.node[34].content_store 	decision_yes[34] 	10029
scalar tree_4_3_u09_r20_network.node[34].content_store 	decision_no[34] 	0
scalar tree_4_3_u09_r20_network.node[34].content_store 	decision_ratio[34] 	1
scalar tree_4_3_u09_r20_network.node[35].core_layer 	interests[35] 	14110
scalar tree_4_3_u09_r20_network.node[35].core_layer 	data[35] 	10161
scalar tree_4_3_u09_r20_network.node[35].content_store 	p_hit[35] 	0.27973068745571
scalar tree_4_3_u09_r20_network.node[35].content_store 	hits[35] 	3947
scalar tree_4_3_u09_r20_network.node[35].content_store 	misses[35] 	10163
scalar tree_4_3_u09_r20_network.node[35].content_store 	decision_yes[35] 	10161
scalar tree_4_3_u09_r20_network.node[35].content_store 	decision_no[35] 	0
scalar tree_4_3_u09_r20_network.node[35].content_store 	decision_ratio[35] 	1
scalar tree_4_3_u09_r20_network.node[36].core_layer 	interests[36] 	14869
scalar tree_4_3_u09_r20_network.node[36].core_layer 	data[36] 	10093
scalar tree_4_3_u09_r20_network.node[36].content_store 	p_hit[36] 	0.32120519201022
scalar tree_4_3_u09_r20_network.node[36].content_store 	hits[36] 	4776
scalar tree_4_3_u09_r20_network.node[36].content_store 	misses[36] 	10093
scalar tree_4_3_u09_r20_network.node[36].content_store 	decision_yes[36] 	10093
scalar tree_4_3_u09_r20_network.node[36].content_store 	decision_no[36] 	0
scalar tree_4_3_u09_r20_network.node[36].content_store 	decision_ratio[36] 	1
scalar tree_4_3_u09_r20_network.node[37].core_layer 	interests[37] 	15457
scalar tree_4_3_u09_r20_network.node[37].core_layer 	data[37] 	10035
scalar tree_4_3_u09_r20_network.node[37].content_store 	p_hit[37] 	0.35077958206638
scalar tree_4_3_u09_r20_network.node[37].content_store 	hits[37] 	5422
scalar tree_4_3_u09_r20_network.node[37].content_store 	misses[37] 	10035
scalar tree_4_3_u09_r20_network.node[37].content_store 	decision_yes[37] 	10035
scalar tree_4_3_u09_r20_network.node[37].content_store 	decision_no[37] 	0
scalar tree_4_3_u09_r20_network.node[37].content_store 	decision_ratio[37] 	1
scalar tree_4_3_u09_r20_network.node[38].core_layer 	interests[38] 	14706
scalar tree_4_3_u09_r20_network.node[38].core_layer 	data[38] 	9915
scalar tree_4_3_u09_r20_network.node[38].content_store 	p_hit[38] 	0.32558139534884
scalar tree_4_3_u09_r20_network.node[38].content_store 	hits[38] 	4788
scalar tree_4_3_u09_r20_network.node[38].content_store 	misses[38] 	9918
scalar tree_4_3_u09_r20_network.node[38].content_store 	decision_yes[38] 	9915
scalar tree_4_3_u09_r20_network.node[38].content_store 	decision_no[38] 	0
scalar tree_4_3_u09_r20_network.node[38].content_store 	decision_ratio[38] 	1
scalar tree_4_3_u09_r20_network.node[39].core_layer 	interests[39] 	13858
scalar tree_4_3_u09_r20_network.node[39].core_layer 	data[39] 	10044
scalar tree_4_3_u09_r20_network.node[39].content_store 	p_hit[39] 	0.275220089479
scalar tree_4_3_u09_r20_network.node[39].content_store 	hits[39] 	3814
scalar tree_4_3_u09_r20_network.node[39].content_store 	misses[39] 	10044
scalar tree_4_3_u09_r20_network.node[39].content_store 	decision_yes[39] 	10044
scalar tree_4_3_u09_r20_network.node[39].content_store 	decision_no[39] 	0
scalar tree_4_3_u09_r20_network.node[39].content_store 	decision_ratio[39] 	1
scalar tree_4_3_u09_r20_network.client[13] 	hdistance[13] 	3.1296574770259
scalar tree_4_3_u09_r20_network.client[13] 	downloads[13] 	11970
scalar tree_4_3_u09_r20_network.client[13] 	avg_time[13] 	0.005012027068
scalar tree_4_3_u09_r20_network.client[14] 	hdistance[14] 	3.0713333333333
scalar tree_4_3_u09_r20_network.client[14] 	downloads[14] 	12000
scalar tree_4_3_u09_r20_network.client[14] 	avg_time[14] 	0.004898033818
scalar tree_4_3_u09_r20_network.client[15] 	hdistance[15] 	3.0373103043515
scalar tree_4_3_u09_r20_network.client[15] 	downloads[15] 	11927
scalar tree_4_3_u09_r20_network.client[15] 	avg_time[15] 	0.004878592077
scalar tree_4_3_u09_r20_network.client[16] 	hdistance[16] 	3.0471737496869
scalar tree_4_3_u09_r20_network.client[16] 	downloads[16] 	11977
scalar tree_4_3_u09_r20_network.client[16] 	avg_time[16] 	0.004848262028
scalar tree_4_3_u09_r20_network.client[17] 	hdistance[17] 	3.1413991769547
scalar tree_4_3_u09_r20_network.client[17] 	downloads[17] 	12150
scalar tree_4_3_u09_r20_network.client[17] 	avg_time[17] 	0.005040589113
scalar tree_4_3_u09_r20_network.client[18] 	hdistance[18] 	3.0486854109646
scalar tree_4_3_u09_r20_network.client[18] 	downloads[18] 	12057
scalar tree_4_3_u09_r20_network.client[18] 	avg_time[18] 	0.004902750367
scalar tree_4_3_u09_r20_network.client[19] 	hdistance[19] 	3.0363849765258
scalar tree_4_3_u09_r20_network.client[19] 	downloads[19] 	11928
scalar tree_4_3_u09_r20_network.client[19] 	avg_time[19] 	0.004886650278
scalar tree_4_3_u09_r20_network.client[20] 	hdistance[20] 	3.0553313151699
scalar tree_4_3_u09_r20_network.client[20] 	downloads[20] 	11892
scalar tree_4_3_u09_r20_network.client[20] 	avg_time[20] 	0.004908737005
scalar tree_4_3_u09_r20_network.client[21] 	hdistance[21] 	3.116314073083
scalar tree_4_3_u09_r20_network.client[21] 	downloads[21] 	11959
scalar tree_4_3_u09_r20_network.client[21] 	avg_time[21] 	0.005041890124
scalar tree_4_3_u09_r20_network.client[22] 	hdistance[22] 	3.1099907570792
scalar tree_4_3_u09_r20_network.client[22] 	downloads[22] 	11901
scalar tree_4_3_u09_r20_network.client[22] 	avg_time[22] 	0.0050344435
scalar tree_4_3_u09_r20_network.client[23] 	hdistance[23] 	3.0481079738346
scalar tree_4_3_u09_r20_network.client[23] 	downloads[23] 	12077
scalar tree_4_3_u09_r20_network.client[23] 	avg_time[23] 	0.004903211866
scalar tree_4_3_u09_r20_network.client[24] 	hdistance[24] 	3.0329163923634
scalar tree_4_3_u09_r20_network.client[24] 	downloads[24] 	12152
scalar tree_4_3_u09_r20_network.client[24] 	avg_time[24] 	0.004873932148
scalar tree_4_3_u09_r20_network.client[25] 	hdistance[25] 	3.0555139409072
scalar tree_4_3_u09_r20_network.client[25] 	downloads[25] 	12015
scalar tree_4_3_u09_r20_network.client[25] 	avg_time[25] 	0.004917041918
scalar tree_4_3_u09_r20_network.client[26] 	hdistance[26] 	3.1328354451624
scalar tree_4_3_u09_r20_network.client[26] 	downloads[26] 	11917
scalar tree_4_3_u09_r20_network.client[26] 	avg_time[26] 	0.004961358088
scalar tree_4_3_u09_r20_network.client[27] 	hdistance[27] 	3.0422511965671
scalar tree_4_3_u09_r20_network.client[27] 	downloads[27] 	12118
scalar tree_4_3_u09_r20_network.client[27] 	avg_time[27] 	0.004874215768
scalar tree_4_3_u09_r20_network.client[28] 	hdistance[28] 	3.0726053481248
scalar tree_4_3_u09_r20_network.client[28] 	downloads[28] 	12079
scalar tree_4_3_u09_r20_network.client[28] 	avg_time[28] 	0.004940322062
scalar tree_4_3_u09_r20_network.client[29] 	hdistance[29] 	3.0290202563043
scalar tree_4_3_u09_r20_network.client[29] 	downloads[29] 	12095
scalar tree_4_3_u09_r20_network.client[29] 	avg_time[29] 	0.004852369854
scalar tree_4_3_u09_r20_network.client[30] 	hdistance[30] 	3.1164871582436
scalar tree_4_3_u09_r20_network.client[30] 	downloads[30] 	12070
scalar tree_4_3_u09_r20_network.client[30] 	avg_time[30] 	0.005018203587
scalar tree_4_3_u09_r20_network.client[31] 	hdistance[31] 	3.1695616211745
scalar tree_4_3_u09_r20_network.client[31] 	downloads[31] 	12090
scalar tree_4_3_u09_r20_network.client[31] 	avg_time[31] 	0.005128962557
scalar tree_4_3_u09_r20_network.client[32] 	hdistance[32] 	3.139268068001
scalar tree_4_3_u09_r20_network.client[32] 	downloads[32] 	11941
scalar tree_4_3_u09_r20_network.client[32] 	avg_time[32] 	0.005073608934
scalar tree_4_3_u09_r20_network.client[33] 	hdistance[33] 	3.0596626667786
scalar tree_4_3_u09_r20_network.client[33] 	downloads[33] 	11917
scalar tree_4_3_u09_r20_network.client[33] 	avg_time[33] 	0.004926234969
scalar tree_4_3_u09_r20_network.client[34] 	hdistance[34] 	2.9980243661508
scalar tree_4_3_u09_r20_network.client[34] 	downloads[34] 	12148
scalar tree_4_3_u09_r20_network.client[34] 	avg_time[34] 	0.004835031518
scalar tree_4_3_u09_r20_network.client[35] 	hdistance[35] 	3.1528362645529
scalar tree_4_3_u09_r20_network.client[35] 	downloads[35] 	12111
scalar tree_4_3_u09_r20_network.client[35] 	avg_time[35] 	0.005091198934
scalar tree_4_3_u09_r20_network.client[36] 	hdistance[36] 	3.0753918885295
scalar tree_4_3_u09_r20_network.client[36] 	downloads[36] 	12057
scalar tree_4_3_u09_r20_network.client[36] 	avg_time[36] 	0.004931240282
scalar tree_4_3_u09_r20_network.client[37] 	hdistance[37] 	3.0466666666667
scalar tree_4_3_u09_r20_network.client[37] 	downloads[37] 	12000
scalar tree_4_3_u09_r20_network.client[37] 	avg_time[37] 	0.004891501394
scalar tree_4_3_u09_r20_network.client[38] 	hdistance[38] 	3.067972642067
scalar tree_4_3_u09_r20_network.client[38] 	downloads[38] 	11843
scalar tree_4_3_u09_r20_network.client[38] 	avg_time[38] 	0.004920618255
scalar tree_4_3_u09_r20_network.client[39] 	hdistance[39] 	3.1311626349711
scalar tree_4_3_u09_r20_network.client[39] 	downloads[39] 	11947
scalar tree_4_3_u09_r20_network.client[39] 	avg_time[39] 	0.005010991812
