version 2
run General-188-20160818-20:35:58-19481
attr a 0.9
attr cd lce
attr configname General
attr cr lru
attr datetime 20160818-20:35:58
attr experiment General
attr fsize 1
attr inifile hw5115/scenario_A/EdgeCoop.ini
attr iterationvars "$name=tree_4_3, $un=09, $rep=9, $scenario=Edge, $cd=lce, $cr=lru, $fsize=1, $a=0.9, $sl=nrr, $ttl=1000, $variance=0.05"
attr iterationvars2 "$name=tree_4_3, $un=09, $rep=9, $scenario=Edge, $cd=lce, $cr=lru, $fsize=1, $a=0.9, $sl=nrr, $ttl=1000, $variance=0.05, $repetition=0"
attr measurement "$name=tree_4_3, $un=09, $rep=9, $scenario=Edge, $cd=lce, $cr=lru, $fsize=1, $a=0.9, $sl=nrr, $ttl=1000, $variance=0.05"
attr name tree_4_3
attr network networks.${name}_u${un}_r${rep}_network
attr processid 19481
attr rep 9
attr repetition 0
attr replication #0
attr resultdir results
attr runnumber 188
attr scenario Edge
attr seedset 9
attr sl nrr
attr ttl 1000
attr un 09
attr variance 0.05

scalar . 	a 	0.9
scalar . 	fsize 	1
scalar . 	rep 	9
scalar . 	ttl 	1000
scalar . 	un 	09
scalar . 	variance 	0.05
scalar tree_4_3_u09_r9_network.content_distribution 	repo-0 	0
scalar tree_4_3_u09_r9_network.content_distribution 	client-0 	13
scalar tree_4_3_u09_r9_network.content_distribution 	client-1 	14
scalar tree_4_3_u09_r9_network.content_distribution 	client-2 	15
scalar tree_4_3_u09_r9_network.content_distribution 	client-3 	16
scalar tree_4_3_u09_r9_network.content_distribution 	client-4 	17
scalar tree_4_3_u09_r9_network.content_distribution 	client-5 	18
scalar tree_4_3_u09_r9_network.content_distribution 	client-6 	19
scalar tree_4_3_u09_r9_network.content_distribution 	client-7 	20
scalar tree_4_3_u09_r9_network.content_distribution 	client-8 	21
scalar tree_4_3_u09_r9_network.content_distribution 	client-9 	22
scalar tree_4_3_u09_r9_network.content_distribution 	client-10 	23
scalar tree_4_3_u09_r9_network.content_distribution 	client-11 	24
scalar tree_4_3_u09_r9_network.content_distribution 	client-12 	25
scalar tree_4_3_u09_r9_network.content_distribution 	client-13 	26
scalar tree_4_3_u09_r9_network.content_distribution 	client-14 	27
scalar tree_4_3_u09_r9_network.content_distribution 	client-15 	28
scalar tree_4_3_u09_r9_network.content_distribution 	client-16 	29
scalar tree_4_3_u09_r9_network.content_distribution 	client-17 	30
scalar tree_4_3_u09_r9_network.content_distribution 	client-18 	31
scalar tree_4_3_u09_r9_network.content_distribution 	client-19 	32
scalar tree_4_3_u09_r9_network.content_distribution 	client-20 	33
scalar tree_4_3_u09_r9_network.content_distribution 	client-21 	34
scalar tree_4_3_u09_r9_network.content_distribution 	client-22 	35
scalar tree_4_3_u09_r9_network.content_distribution 	client-23 	36
scalar tree_4_3_u09_r9_network.content_distribution 	client-24 	37
scalar tree_4_3_u09_r9_network.content_distribution 	client-25 	38
scalar tree_4_3_u09_r9_network.content_distribution 	client-26 	39
scalar tree_4_3_u09_r9_network.content_distribution 	repo-0_card 	100000
scalar tree_4_3_u09_r9_network.content_distribution 	repo-0_price 	0
scalar tree_4_3_u09_r9_network.statistics 	stabilization_time 	328.2
scalar tree_4_3_u09_r9_network.statistics 	p_hit 	0.21466463796928
scalar tree_4_3_u09_r9_network.statistics 	interests 	28220.55
scalar tree_4_3_u09_r9_network.statistics 	data 	20103.1
scalar tree_4_3_u09_r9_network.statistics 	hdistance 	3.0832940510784
scalar tree_4_3_u09_r9_network.statistics 	avg_time 	0.004952998913
scalar tree_4_3_u09_r9_network.statistics 	downloads 	324677
scalar tree_4_3_u09_r9_network.statistics 	total_cost 	0
scalar tree_4_3_u09_r9_network.statistics 	total_replicas 	100000
scalar tree_4_3_u09_r9_network.statistics 	inner_hit 	0.39318461116741
scalar tree_4_3_u09_r9_network.node[0].core_layer 	interests[0] 	197019
scalar tree_4_3_u09_r9_network.node[0].core_layer 	repo_load[0] 	197019
scalar tree_4_3_u09_r9_network.node[0].core_layer 	data[0] 	0
scalar tree_4_3_u09_r9_network.node[0].core_layer 	repo_int[0] 	197019
scalar tree_4_3_u09_r9_network.node[0].content_store 	p_hit[0] 	0
scalar tree_4_3_u09_r9_network.node[0].content_store 	hits[0] 	0
scalar tree_4_3_u09_r9_network.node[0].content_store 	misses[0] 	197019
scalar tree_4_3_u09_r9_network.node[0].content_store 	decision_yes[0] 	0
scalar tree_4_3_u09_r9_network.node[0].content_store 	decision_no[0] 	197019
scalar tree_4_3_u09_r9_network.node[0].content_store 	decision_ratio[0] 	0
scalar tree_4_3_u09_r9_network.node[1].core_layer 	interests[1] 	109582
scalar tree_4_3_u09_r9_network.node[1].core_layer 	data[1] 	109579
scalar tree_4_3_u09_r9_network.node[1].content_store 	p_hit[1] 	0
scalar tree_4_3_u09_r9_network.node[1].content_store 	hits[1] 	0
scalar tree_4_3_u09_r9_network.node[1].content_store 	misses[1] 	109582
scalar tree_4_3_u09_r9_network.node[1].content_store 	decision_yes[1] 	0
scalar tree_4_3_u09_r9_network.node[1].content_store 	decision_no[1] 	109573
scalar tree_4_3_u09_r9_network.node[1].content_store 	decision_ratio[1] 	0
scalar tree_4_3_u09_r9_network.node[2].core_layer 	interests[2] 	77901
scalar tree_4_3_u09_r9_network.node[2].core_layer 	data[2] 	77899
scalar tree_4_3_u09_r9_network.node[2].content_store 	p_hit[2] 	0
scalar tree_4_3_u09_r9_network.node[2].content_store 	hits[2] 	0
scalar tree_4_3_u09_r9_network.node[2].content_store 	misses[2] 	77901
scalar tree_4_3_u09_r9_network.node[2].content_store 	decision_yes[2] 	0
scalar tree_4_3_u09_r9_network.node[2].content_store 	decision_no[2] 	77891
scalar tree_4_3_u09_r9_network.node[2].content_store 	decision_ratio[2] 	0
scalar tree_4_3_u09_r9_network.node[3].core_layer 	interests[3] 	41096
scalar tree_4_3_u09_r9_network.node[3].core_layer 	data[3] 	41094
scalar tree_4_3_u09_r9_network.node[3].content_store 	p_hit[3] 	0
scalar tree_4_3_u09_r9_network.node[3].content_store 	hits[3] 	0
scalar tree_4_3_u09_r9_network.node[3].content_store 	misses[3] 	41096
scalar tree_4_3_u09_r9_network.node[3].content_store 	decision_yes[3] 	0
scalar tree_4_3_u09_r9_network.node[3].content_store 	decision_no[3] 	41091
scalar tree_4_3_u09_r9_network.node[3].content_store 	decision_ratio[3] 	0
scalar tree_4_3_u09_r9_network.node[4].core_layer 	interests[4] 	46819
scalar tree_4_3_u09_r9_network.node[4].core_layer 	data[4] 	46816
scalar tree_4_3_u09_r9_network.node[4].content_store 	p_hit[4] 	0
scalar tree_4_3_u09_r9_network.node[4].content_store 	hits[4] 	0
scalar tree_4_3_u09_r9_network.node[4].content_store 	misses[4] 	46819
scalar tree_4_3_u09_r9_network.node[4].content_store 	decision_yes[4] 	0
scalar tree_4_3_u09_r9_network.node[4].content_store 	decision_no[4] 	46815
scalar tree_4_3_u09_r9_network.node[4].content_store 	decision_ratio[4] 	0
scalar tree_4_3_u09_r9_network.node[5].core_layer 	interests[5] 	35723
scalar tree_4_3_u09_r9_network.node[5].core_layer 	data[5] 	35720
scalar tree_4_3_u09_r9_network.node[5].content_store 	p_hit[5] 	0
scalar tree_4_3_u09_r9_network.node[5].content_store 	hits[5] 	0
scalar tree_4_3_u09_r9_network.node[5].content_store 	misses[5] 	35723
scalar tree_4_3_u09_r9_network.node[5].content_store 	decision_yes[5] 	0
scalar tree_4_3_u09_r9_network.node[5].content_store 	decision_no[5] 	35716
scalar tree_4_3_u09_r9_network.node[5].content_store 	decision_ratio[5] 	0
scalar tree_4_3_u09_r9_network.node[6].core_layer 	interests[6] 	19293
scalar tree_4_3_u09_r9_network.node[6].core_layer 	data[6] 	19289
scalar tree_4_3_u09_r9_network.node[6].content_store 	p_hit[6] 	0
scalar tree_4_3_u09_r9_network.node[6].content_store 	hits[6] 	0
scalar tree_4_3_u09_r9_network.node[6].content_store 	misses[6] 	19293
scalar tree_4_3_u09_r9_network.node[6].content_store 	decision_yes[6] 	0
scalar tree_4_3_u09_r9_network.node[6].content_store 	decision_no[6] 	19287
scalar tree_4_3_u09_r9_network.node[6].content_store 	decision_ratio[6] 	0
scalar tree_4_3_u09_r9_network.node[7].core_layer 	interests[7] 	51634
scalar tree_4_3_u09_r9_network.node[7].core_layer 	data[7] 	51632
scalar tree_4_3_u09_r9_network.node[7].content_store 	p_hit[7] 	0
scalar tree_4_3_u09_r9_network.node[7].content_store 	hits[7] 	0
scalar tree_4_3_u09_r9_network.node[7].content_store 	misses[7] 	51634
scalar tree_4_3_u09_r9_network.node[7].content_store 	decision_yes[7] 	0
scalar tree_4_3_u09_r9_network.node[7].content_store 	decision_no[7] 	51627
scalar tree_4_3_u09_r9_network.node[7].content_store 	decision_ratio[7] 	0
scalar tree_4_3_u09_r9_network.node[8].core_layer 	interests[8] 	31658
scalar tree_4_3_u09_r9_network.node[8].core_layer 	data[8] 	31659
scalar tree_4_3_u09_r9_network.node[8].content_store 	p_hit[8] 	0
scalar tree_4_3_u09_r9_network.node[8].content_store 	hits[8] 	0
scalar tree_4_3_u09_r9_network.node[8].content_store 	misses[8] 	31658
scalar tree_4_3_u09_r9_network.node[8].content_store 	decision_yes[8] 	0
scalar tree_4_3_u09_r9_network.node[8].content_store 	decision_no[8] 	31654
scalar tree_4_3_u09_r9_network.node[8].content_store 	decision_ratio[8] 	0
scalar tree_4_3_u09_r9_network.node[9].core_layer 	interests[9] 	18146
scalar tree_4_3_u09_r9_network.node[9].core_layer 	data[9] 	18144
scalar tree_4_3_u09_r9_network.node[9].content_store 	p_hit[9] 	0
scalar tree_4_3_u09_r9_network.node[9].content_store 	hits[9] 	0
scalar tree_4_3_u09_r9_network.node[9].content_store 	misses[9] 	18146
scalar tree_4_3_u09_r9_network.node[9].content_store 	decision_yes[9] 	0
scalar tree_4_3_u09_r9_network.node[9].content_store 	decision_no[9] 	18141
scalar tree_4_3_u09_r9_network.node[9].content_store 	decision_ratio[9] 	0
scalar tree_4_3_u09_r9_network.node[10].core_layer 	interests[10] 	32572
scalar tree_4_3_u09_r9_network.node[10].core_layer 	data[10] 	32568
scalar tree_4_3_u09_r9_network.node[10].content_store 	p_hit[10] 	0
scalar tree_4_3_u09_r9_network.node[10].content_store 	hits[10] 	0
scalar tree_4_3_u09_r9_network.node[10].content_store 	misses[10] 	32572
scalar tree_4_3_u09_r9_network.node[10].content_store 	decision_yes[10] 	0
scalar tree_4_3_u09_r9_network.node[10].content_store 	decision_no[10] 	32562
scalar tree_4_3_u09_r9_network.node[10].content_store 	decision_ratio[10] 	0
scalar tree_4_3_u09_r9_network.node[11].core_layer 	interests[11] 	53606
scalar tree_4_3_u09_r9_network.node[11].core_layer 	data[11] 	53602
scalar tree_4_3_u09_r9_network.node[11].content_store 	p_hit[11] 	0
scalar tree_4_3_u09_r9_network.node[11].content_store 	hits[11] 	0
scalar tree_4_3_u09_r9_network.node[11].content_store 	misses[11] 	53606
scalar tree_4_3_u09_r9_network.node[11].content_store 	decision_yes[11] 	0
scalar tree_4_3_u09_r9_network.node[11].content_store 	decision_no[11] 	53595
scalar tree_4_3_u09_r9_network.node[11].content_store 	decision_ratio[11] 	0
scalar tree_4_3_u09_r9_network.node[12].core_layer 	interests[12] 	14114
scalar tree_4_3_u09_r9_network.node[12].core_layer 	data[12] 	14112
scalar tree_4_3_u09_r9_network.node[12].content_store 	p_hit[12] 	0
scalar tree_4_3_u09_r9_network.node[12].content_store 	hits[12] 	0
scalar tree_4_3_u09_r9_network.node[12].content_store 	misses[12] 	14114
scalar tree_4_3_u09_r9_network.node[12].content_store 	decision_yes[12] 	0
scalar tree_4_3_u09_r9_network.node[12].content_store 	decision_no[12] 	14110
scalar tree_4_3_u09_r9_network.node[12].content_store 	decision_ratio[12] 	0
scalar tree_4_3_u09_r9_network.node[13].core_layer 	interests[13] 	13438
scalar tree_4_3_u09_r9_network.node[13].core_layer 	data[13] 	10159
scalar tree_4_3_u09_r9_network.node[13].content_store 	p_hit[13] 	0.24393510939128
scalar tree_4_3_u09_r9_network.node[13].content_store 	hits[13] 	3278
scalar tree_4_3_u09_r9_network.node[13].content_store 	misses[13] 	10160
scalar tree_4_3_u09_r9_network.node[13].content_store 	decision_yes[13] 	10159
scalar tree_4_3_u09_r9_network.node[13].content_store 	decision_no[13] 	0
scalar tree_4_3_u09_r9_network.node[13].content_store 	decision_ratio[13] 	1
scalar tree_4_3_u09_r9_network.node[14].core_layer 	interests[14] 	15146
scalar tree_4_3_u09_r9_network.node[14].core_layer 	data[14] 	10089
scalar tree_4_3_u09_r9_network.node[14].content_store 	p_hit[14] 	0.33375148554074
scalar tree_4_3_u09_r9_network.node[14].content_store 	hits[14] 	5055
scalar tree_4_3_u09_r9_network.node[14].content_store 	misses[14] 	10091
scalar tree_4_3_u09_r9_network.node[14].content_store 	decision_yes[14] 	10089
scalar tree_4_3_u09_r9_network.node[14].content_store 	decision_no[14] 	0
scalar tree_4_3_u09_r9_network.node[14].content_store 	decision_ratio[14] 	1
scalar tree_4_3_u09_r9_network.node[15].core_layer 	interests[15] 	15241
scalar tree_4_3_u09_r9_network.node[15].core_layer 	data[15] 	9952
scalar tree_4_3_u09_r9_network.node[15].content_store 	p_hit[15] 	0.34682763598189
scalar tree_4_3_u09_r9_network.node[15].content_store 	hits[15] 	5286
scalar tree_4_3_u09_r9_network.node[15].content_store 	misses[15] 	9955
scalar tree_4_3_u09_r9_network.node[15].content_store 	decision_yes[15] 	9952
scalar tree_4_3_u09_r9_network.node[15].content_store 	decision_no[15] 	0
scalar tree_4_3_u09_r9_network.node[15].content_store 	decision_ratio[15] 	1
scalar tree_4_3_u09_r9_network.node[16].core_layer 	interests[16] 	14968
scalar tree_4_3_u09_r9_network.node[16].core_layer 	data[16] 	10108
scalar tree_4_3_u09_r9_network.node[16].content_store 	p_hit[16] 	0.32469267771245
scalar tree_4_3_u09_r9_network.node[16].content_store 	hits[16] 	4860
scalar tree_4_3_u09_r9_network.node[16].content_store 	misses[16] 	10108
scalar tree_4_3_u09_r9_network.node[16].content_store 	decision_yes[16] 	10108
scalar tree_4_3_u09_r9_network.node[16].content_store 	decision_no[16] 	0
scalar tree_4_3_u09_r9_network.node[16].content_store 	decision_ratio[16] 	1
scalar tree_4_3_u09_r9_network.node[17].core_layer 	interests[17] 	14358
scalar tree_4_3_u09_r9_network.node[17].core_layer 	data[17] 	10319
scalar tree_4_3_u09_r9_network.node[17].content_store 	p_hit[17] 	0.28130658866137
scalar tree_4_3_u09_r9_network.node[17].content_store 	hits[17] 	4039
scalar tree_4_3_u09_r9_network.node[17].content_store 	misses[17] 	10319
scalar tree_4_3_u09_r9_network.node[17].content_store 	decision_yes[17] 	10319
scalar tree_4_3_u09_r9_network.node[17].content_store 	decision_no[17] 	0
scalar tree_4_3_u09_r9_network.node[17].content_store 	decision_ratio[17] 	1
scalar tree_4_3_u09_r9_network.node[18].core_layer 	interests[18] 	15397
scalar tree_4_3_u09_r9_network.node[18].core_layer 	data[18] 	10009
scalar tree_4_3_u09_r9_network.node[18].content_store 	p_hit[18] 	0.34993829966877
scalar tree_4_3_u09_r9_network.node[18].content_store 	hits[18] 	5388
scalar tree_4_3_u09_r9_network.node[18].content_store 	misses[18] 	10009
scalar tree_4_3_u09_r9_network.node[18].content_store 	decision_yes[18] 	10009
scalar tree_4_3_u09_r9_network.node[18].content_store 	decision_no[18] 	0
scalar tree_4_3_u09_r9_network.node[18].content_store 	decision_ratio[18] 	1
scalar tree_4_3_u09_r9_network.node[19].core_layer 	interests[19] 	15519
scalar tree_4_3_u09_r9_network.node[19].core_layer 	data[19] 	10169
scalar tree_4_3_u09_r9_network.node[19].content_store 	p_hit[19] 	0.34473870739094
scalar tree_4_3_u09_r9_network.node[19].content_store 	hits[19] 	5350
scalar tree_4_3_u09_r9_network.node[19].content_store 	misses[19] 	10169
scalar tree_4_3_u09_r9_network.node[19].content_store 	decision_yes[19] 	10169
scalar tree_4_3_u09_r9_network.node[19].content_store 	decision_no[19] 	0
scalar tree_4_3_u09_r9_network.node[19].content_store 	decision_ratio[19] 	1
scalar tree_4_3_u09_r9_network.node[20].core_layer 	interests[20] 	15437
scalar tree_4_3_u09_r9_network.node[20].core_layer 	data[20] 	10025
scalar tree_4_3_u09_r9_network.node[20].content_store 	p_hit[20] 	0.35052147437974
scalar tree_4_3_u09_r9_network.node[20].content_store 	hits[20] 	5411
scalar tree_4_3_u09_r9_network.node[20].content_store 	misses[20] 	10026
scalar tree_4_3_u09_r9_network.node[20].content_store 	decision_yes[20] 	10025
scalar tree_4_3_u09_r9_network.node[20].content_store 	decision_no[20] 	0
scalar tree_4_3_u09_r9_network.node[20].content_store 	decision_ratio[20] 	1
scalar tree_4_3_u09_r9_network.node[21].core_layer 	interests[21] 	14591
scalar tree_4_3_u09_r9_network.node[21].core_layer 	data[21] 	10195
scalar tree_4_3_u09_r9_network.node[21].content_store 	p_hit[21] 	0.30121307655404
scalar tree_4_3_u09_r9_network.node[21].content_store 	hits[21] 	4395
scalar tree_4_3_u09_r9_network.node[21].content_store 	misses[21] 	10196
scalar tree_4_3_u09_r9_network.node[21].content_store 	decision_yes[21] 	10195
scalar tree_4_3_u09_r9_network.node[21].content_store 	decision_no[21] 	0
scalar tree_4_3_u09_r9_network.node[21].content_store 	decision_ratio[21] 	1
scalar tree_4_3_u09_r9_network.node[22].core_layer 	interests[22] 	14133
scalar tree_4_3_u09_r9_network.node[22].core_layer 	data[22] 	10175
scalar tree_4_3_u09_r9_network.node[22].content_store 	p_hit[22] 	0.27991226208165
scalar tree_4_3_u09_r9_network.node[22].content_store 	hits[22] 	3956
scalar tree_4_3_u09_r9_network.node[22].content_store 	misses[22] 	10177
scalar tree_4_3_u09_r9_network.node[22].content_store 	decision_yes[22] 	10175
scalar tree_4_3_u09_r9_network.node[22].content_store 	decision_no[22] 	0
scalar tree_4_3_u09_r9_network.node[22].content_store 	decision_ratio[22] 	1
scalar tree_4_3_u09_r9_network.node[23].core_layer 	interests[23] 	15157
scalar tree_4_3_u09_r9_network.node[23].core_layer 	data[23] 	10055
scalar tree_4_3_u09_r9_network.node[23].content_store 	p_hit[23] 	0.33654417101009
scalar tree_4_3_u09_r9_network.node[23].content_store 	hits[23] 	5101
scalar tree_4_3_u09_r9_network.node[23].content_store 	misses[23] 	10056
scalar tree_4_3_u09_r9_network.node[23].content_store 	decision_yes[23] 	10055
scalar tree_4_3_u09_r9_network.node[23].content_store 	decision_no[23] 	0
scalar tree_4_3_u09_r9_network.node[23].content_store 	decision_ratio[23] 	1
scalar tree_4_3_u09_r9_network.node[24].core_layer 	interests[24] 	15296
scalar tree_4_3_u09_r9_network.node[24].core_layer 	data[24] 	9959
scalar tree_4_3_u09_r9_network.node[24].content_store 	p_hit[24] 	0.34891474895397
scalar tree_4_3_u09_r9_network.node[24].content_store 	hits[24] 	5337
scalar tree_4_3_u09_r9_network.node[24].content_store 	misses[24] 	9959
scalar tree_4_3_u09_r9_network.node[24].content_store 	decision_yes[24] 	9959
scalar tree_4_3_u09_r9_network.node[24].content_store 	decision_no[24] 	0
scalar tree_4_3_u09_r9_network.node[24].content_store 	decision_ratio[24] 	1
scalar tree_4_3_u09_r9_network.node[25].core_layer 	interests[25] 	14968
scalar tree_4_3_u09_r9_network.node[25].core_layer 	data[25] 	9922
scalar tree_4_3_u09_r9_network.node[25].content_store 	p_hit[25] 	0.33711918760021
scalar tree_4_3_u09_r9_network.node[25].content_store 	hits[25] 	5046
scalar tree_4_3_u09_r9_network.node[25].content_store 	misses[25] 	9922
scalar tree_4_3_u09_r9_network.node[25].content_store 	decision_yes[25] 	9922
scalar tree_4_3_u09_r9_network.node[25].content_store 	decision_no[25] 	0
scalar tree_4_3_u09_r9_network.node[25].content_store 	decision_ratio[25] 	1
scalar tree_4_3_u09_r9_network.node[26].core_layer 	interests[26] 	13863
scalar tree_4_3_u09_r9_network.node[26].core_layer 	data[26] 	10220
scalar tree_4_3_u09_r9_network.node[26].content_store 	p_hit[26] 	0.26271369833369
scalar tree_4_3_u09_r9_network.node[26].content_store 	hits[26] 	3642
scalar tree_4_3_u09_r9_network.node[26].content_store 	misses[26] 	10221
scalar tree_4_3_u09_r9_network.node[26].content_store 	decision_yes[26] 	10220
scalar tree_4_3_u09_r9_network.node[26].content_store 	decision_no[26] 	0
scalar tree_4_3_u09_r9_network.node[26].content_store 	decision_ratio[26] 	1
scalar tree_4_3_u09_r9_network.node[27].core_layer 	interests[27] 	15535
scalar tree_4_3_u09_r9_network.node[27].core_layer 	data[27] 	10168
scalar tree_4_3_u09_r9_network.node[27].content_store 	p_hit[27] 	0.34541358223367
scalar tree_4_3_u09_r9_network.node[27].content_store 	hits[27] 	5366
scalar tree_4_3_u09_r9_network.node[27].content_store 	misses[27] 	10169
scalar tree_4_3_u09_r9_network.node[27].content_store 	decision_yes[27] 	10168
scalar tree_4_3_u09_r9_network.node[27].content_store 	decision_no[27] 	0
scalar tree_4_3_u09_r9_network.node[27].content_store 	decision_ratio[27] 	1
scalar tree_4_3_u09_r9_network.node[28].core_layer 	interests[28] 	15234
scalar tree_4_3_u09_r9_network.node[28].core_layer 	data[28] 	9903
scalar tree_4_3_u09_r9_network.node[28].content_store 	p_hit[28] 	0.34994092162269
scalar tree_4_3_u09_r9_network.node[28].content_store 	hits[28] 	5331
scalar tree_4_3_u09_r9_network.node[28].content_store 	misses[28] 	9903
scalar tree_4_3_u09_r9_network.node[28].content_store 	decision_yes[28] 	9903
scalar tree_4_3_u09_r9_network.node[28].content_store 	decision_no[28] 	0
scalar tree_4_3_u09_r9_network.node[28].content_store 	decision_ratio[28] 	1
scalar tree_4_3_u09_r9_network.node[29].core_layer 	interests[29] 	15288
scalar tree_4_3_u09_r9_network.node[29].core_layer 	data[29] 	10040
scalar tree_4_3_u09_r9_network.node[29].content_store 	p_hit[29] 	0.3432757718472
scalar tree_4_3_u09_r9_network.node[29].content_store 	hits[29] 	5248
scalar tree_4_3_u09_r9_network.node[29].content_store 	misses[29] 	10040
scalar tree_4_3_u09_r9_network.node[29].content_store 	decision_yes[29] 	10040
scalar tree_4_3_u09_r9_network.node[29].content_store 	decision_no[29] 	0
scalar tree_4_3_u09_r9_network.node[29].content_store 	decision_ratio[29] 	1
scalar tree_4_3_u09_r9_network.node[30].core_layer 	interests[30] 	14523
scalar tree_4_3_u09_r9_network.node[30].core_layer 	data[30] 	10123
scalar tree_4_3_u09_r9_network.node[30].content_store 	p_hit[30] 	0.30303656269366
scalar tree_4_3_u09_r9_network.node[30].content_store 	hits[30] 	4401
scalar tree_4_3_u09_r9_network.node[30].content_store 	misses[30] 	10122
scalar tree_4_3_u09_r9_network.node[30].content_store 	decision_yes[30] 	10123
scalar tree_4_3_u09_r9_network.node[30].content_store 	decision_no[30] 	0
scalar tree_4_3_u09_r9_network.node[30].content_store 	decision_ratio[30] 	1
scalar tree_4_3_u09_r9_network.node[31].core_layer 	interests[31] 	13570
scalar tree_4_3_u09_r9_network.node[31].core_layer 	data[31] 	10040
scalar tree_4_3_u09_r9_network.node[31].content_store 	p_hit[31] 	0.26005895357406
scalar tree_4_3_u09_r9_network.node[31].content_store 	hits[31] 	3529
scalar tree_4_3_u09_r9_network.node[31].content_store 	misses[31] 	10041
scalar tree_4_3_u09_r9_network.node[31].content_store 	decision_yes[31] 	10040
scalar tree_4_3_u09_r9_network.node[31].content_store 	decision_no[31] 	0
scalar tree_4_3_u09_r9_network.node[31].content_store 	decision_ratio[31] 	1
scalar tree_4_3_u09_r9_network.node[32].core_layer 	interests[32] 	15472
scalar tree_4_3_u09_r9_network.node[32].core_layer 	data[32] 	9867
scalar tree_4_3_u09_r9_network.node[32].content_store 	p_hit[32] 	0.36226732161324
scalar tree_4_3_u09_r9_network.node[32].content_store 	hits[32] 	5605
scalar tree_4_3_u09_r9_network.node[32].content_store 	misses[32] 	9867
scalar tree_4_3_u09_r9_network.node[32].content_store 	decision_yes[32] 	9867
scalar tree_4_3_u09_r9_network.node[32].content_store 	decision_no[32] 	0
scalar tree_4_3_u09_r9_network.node[32].content_store 	decision_ratio[32] 	1
scalar tree_4_3_u09_r9_network.node[33].core_layer 	interests[33] 	14526
scalar tree_4_3_u09_r9_network.node[33].core_layer 	data[33] 	9960
scalar tree_4_3_u09_r9_network.node[33].content_store 	p_hit[33] 	0.31419523612832
scalar tree_4_3_u09_r9_network.node[33].content_store 	hits[33] 	4564
scalar tree_4_3_u09_r9_network.node[33].content_store 	misses[33] 	9962
scalar tree_4_3_u09_r9_network.node[33].content_store 	decision_yes[33] 	9960
scalar tree_4_3_u09_r9_network.node[33].content_store 	decision_no[33] 	0
scalar tree_4_3_u09_r9_network.node[33].content_store 	decision_ratio[33] 	1
scalar tree_4_3_u09_r9_network.node[34].core_layer 	interests[34] 	14410
scalar tree_4_3_u09_r9_network.node[34].core_layer 	data[34] 	10023
scalar tree_4_3_u09_r9_network.node[34].content_store 	p_hit[34] 	0.30444136016655
scalar tree_4_3_u09_r9_network.node[34].content_store 	hits[34] 	4387
scalar tree_4_3_u09_r9_network.node[34].content_store 	misses[34] 	10023
scalar tree_4_3_u09_r9_network.node[34].content_store 	decision_yes[34] 	10023
scalar tree_4_3_u09_r9_network.node[34].content_store 	decision_no[34] 	0
scalar tree_4_3_u09_r9_network.node[34].content_store 	decision_ratio[34] 	1
scalar tree_4_3_u09_r9_network.node[35].core_layer 	interests[35] 	14533
scalar tree_4_3_u09_r9_network.node[35].core_layer 	data[35] 	10262
scalar tree_4_3_u09_r9_network.node[35].content_store 	p_hit[35] 	0.29374526938691
scalar tree_4_3_u09_r9_network.node[35].content_store 	hits[35] 	4269
scalar tree_4_3_u09_r9_network.node[35].content_store 	misses[35] 	10264
scalar tree_4_3_u09_r9_network.node[35].content_store 	decision_yes[35] 	10262
scalar tree_4_3_u09_r9_network.node[35].content_store 	decision_no[35] 	0
scalar tree_4_3_u09_r9_network.node[35].content_store 	decision_ratio[35] 	1
scalar tree_4_3_u09_r9_network.node[36].core_layer 	interests[36] 	15387
scalar tree_4_3_u09_r9_network.node[36].core_layer 	data[36] 	10109
scalar tree_4_3_u09_r9_network.node[36].content_store 	p_hit[36] 	0.34295184246442
scalar tree_4_3_u09_r9_network.node[36].content_store 	hits[36] 	5277
scalar tree_4_3_u09_r9_network.node[36].content_store 	misses[36] 	10110
scalar tree_4_3_u09_r9_network.node[36].content_store 	decision_yes[36] 	10109
scalar tree_4_3_u09_r9_network.node[36].content_store 	decision_no[36] 	0
scalar tree_4_3_u09_r9_network.node[36].content_store 	decision_ratio[36] 	1
scalar tree_4_3_u09_r9_network.node[37].core_layer 	interests[37] 	14398
scalar tree_4_3_u09_r9_network.node[37].core_layer 	data[37] 	9928
scalar tree_4_3_u09_r9_network.node[37].content_store 	p_hit[37] 	0.31039033199055
scalar tree_4_3_u09_r9_network.node[37].content_store 	hits[37] 	4469
scalar tree_4_3_u09_r9_network.node[37].content_store 	misses[37] 	9929
scalar tree_4_3_u09_r9_network.node[37].content_store 	decision_yes[37] 	9928
scalar tree_4_3_u09_r9_network.node[37].content_store 	decision_no[37] 	0
scalar tree_4_3_u09_r9_network.node[37].content_store 	decision_ratio[37] 	1
scalar tree_4_3_u09_r9_network.node[38].core_layer 	interests[38] 	15304
scalar tree_4_3_u09_r9_network.node[38].core_layer 	data[38] 	10108
scalar tree_4_3_u09_r9_network.node[38].content_store 	p_hit[38] 	0.33951907997909
scalar tree_4_3_u09_r9_network.node[38].content_store 	hits[38] 	5196
scalar tree_4_3_u09_r9_network.node[38].content_store 	misses[38] 	10108
scalar tree_4_3_u09_r9_network.node[38].content_store 	decision_yes[38] 	10108
scalar tree_4_3_u09_r9_network.node[38].content_store 	decision_no[38] 	0
scalar tree_4_3_u09_r9_network.node[38].content_store 	decision_ratio[38] 	1
scalar tree_4_3_u09_r9_network.node[39].core_layer 	interests[39] 	13967
scalar tree_4_3_u09_r9_network.node[39].core_layer 	data[39] 	10123
scalar tree_4_3_u09_r9_network.node[39].content_store 	p_hit[39] 	0.27522016180998
scalar tree_4_3_u09_r9_network.node[39].content_store 	hits[39] 	3844
scalar tree_4_3_u09_r9_network.node[39].content_store 	misses[39] 	10123
scalar tree_4_3_u09_r9_network.node[39].content_store 	decision_yes[39] 	10123
scalar tree_4_3_u09_r9_network.node[39].content_store 	decision_no[39] 	0
scalar tree_4_3_u09_r9_network.node[39].content_store 	decision_ratio[39] 	1
scalar tree_4_3_u09_r9_network.client[13] 	hdistance[13] 	3.1560597214113
scalar tree_4_3_u09_r9_network.client[13] 	downloads[13] 	11989
scalar tree_4_3_u09_r9_network.client[13] 	avg_time[13] 	0.00501325916
scalar tree_4_3_u09_r9_network.client[14] 	hdistance[14] 	3.042255850492
scalar tree_4_3_u09_r9_network.client[14] 	downloads[14] 	12093
scalar tree_4_3_u09_r9_network.client[14] 	avg_time[14] 	0.004880198132
scalar tree_4_3_u09_r9_network.client[15] 	hdistance[15] 	3.04004004004
scalar tree_4_3_u09_r9_network.client[15] 	downloads[15] 	11988
scalar tree_4_3_u09_r9_network.client[15] 	avg_time[15] 	0.004881867335
scalar tree_4_3_u09_r9_network.client[16] 	hdistance[16] 	3.0741326233464
scalar tree_4_3_u09_r9_network.client[16] 	downloads[16] 	12019
scalar tree_4_3_u09_r9_network.client[16] 	avg_time[16] 	0.004921592416
scalar tree_4_3_u09_r9_network.client[17] 	hdistance[17] 	3.1582834167556
scalar tree_4_3_u09_r9_network.client[17] 	downloads[17] 	12187
scalar tree_4_3_u09_r9_network.client[17] 	avg_time[17] 	0.005067199698
scalar tree_4_3_u09_r9_network.client[18] 	hdistance[18] 	3.0563510005861
scalar tree_4_3_u09_r9_network.client[18] 	downloads[18] 	11943
scalar tree_4_3_u09_r9_network.client[18] 	avg_time[18] 	0.004916122028
scalar tree_4_3_u09_r9_network.client[19] 	hdistance[19] 	3.0453687751251
scalar tree_4_3_u09_r9_network.client[19] 	downloads[19] 	12189
scalar tree_4_3_u09_r9_network.client[19] 	avg_time[19] 	0.004901629217
scalar tree_4_3_u09_r9_network.client[20] 	hdistance[20] 	3.0475002079694
scalar tree_4_3_u09_r9_network.client[20] 	downloads[20] 	12021
scalar tree_4_3_u09_r9_network.client[20] 	avg_time[20] 	0.004902887915
scalar tree_4_3_u09_r9_network.client[21] 	hdistance[21] 	3.1172311739559
scalar tree_4_3_u09_r9_network.client[21] 	downloads[21] 	12164
scalar tree_4_3_u09_r9_network.client[21] 	avg_time[21] 	0.005036826946
scalar tree_4_3_u09_r9_network.client[22] 	hdistance[22] 	3.1292775665399
scalar tree_4_3_u09_r9_network.client[22] 	downloads[22] 	12098
scalar tree_4_3_u09_r9_network.client[22] 	avg_time[22] 	0.005035955931
scalar tree_4_3_u09_r9_network.client[23] 	hdistance[23] 	3.0403432060061
scalar tree_4_3_u09_r9_network.client[23] 	downloads[23] 	12121
scalar tree_4_3_u09_r9_network.client[23] 	avg_time[23] 	0.00486104574
scalar tree_4_3_u09_r9_network.client[24] 	hdistance[24] 	3.0449908011373
scalar tree_4_3_u09_r9_network.client[24] 	downloads[24] 	11958
scalar tree_4_3_u09_r9_network.client[24] 	avg_time[24] 	0.004898976772
scalar tree_4_3_u09_r9_network.client[25] 	hdistance[25] 	3.0329449241345
scalar tree_4_3_u09_r9_network.client[25] 	downloads[25] 	11929
scalar tree_4_3_u09_r9_network.client[25] 	avg_time[25] 	0.004856900363
scalar tree_4_3_u09_r9_network.client[26] 	hdistance[26] 	3.1489784101249
scalar tree_4_3_u09_r9_network.client[26] 	downloads[26] 	12089
scalar tree_4_3_u09_r9_network.client[26] 	avg_time[26] 	0.005039798042
scalar tree_4_3_u09_r9_network.client[27] 	hdistance[27] 	3.0367333551984
scalar tree_4_3_u09_r9_network.client[27] 	downloads[27] 	12196
scalar tree_4_3_u09_r9_network.client[27] 	avg_time[27] 	0.004889286671
scalar tree_4_3_u09_r9_network.client[28] 	hdistance[28] 	3.0409849890369
scalar tree_4_3_u09_r9_network.client[28] 	downloads[28] 	11858
scalar tree_4_3_u09_r9_network.client[28] 	avg_time[28] 	0.004892727656
scalar tree_4_3_u09_r9_network.client[29] 	hdistance[29] 	3.024567788899
scalar tree_4_3_u09_r9_network.client[29] 	downloads[29] 	12089
scalar tree_4_3_u09_r9_network.client[29] 	avg_time[29] 	0.004861937619
scalar tree_4_3_u09_r9_network.client[30] 	hdistance[30] 	3.1346490132401
scalar tree_4_3_u09_r9_network.client[30] 	downloads[30] 	12009
scalar tree_4_3_u09_r9_network.client[30] 	avg_time[30] 	0.005071933589
scalar tree_4_3_u09_r9_network.client[31] 	hdistance[31] 	3.1778357016733
scalar tree_4_3_u09_r9_network.client[31] 	downloads[31] 	11893
scalar tree_4_3_u09_r9_network.client[31] 	avg_time[31] 	0.005102309126
scalar tree_4_3_u09_r9_network.client[32] 	hdistance[32] 	3.0326654318909
scalar tree_4_3_u09_r9_network.client[32] 	downloads[32] 	11878
scalar tree_4_3_u09_r9_network.client[32] 	avg_time[32] 	0.004872256329
scalar tree_4_3_u09_r9_network.client[33] 	hdistance[33] 	3.0756288382266
scalar tree_4_3_u09_r9_network.client[33] 	downloads[33] 	11887
scalar tree_4_3_u09_r9_network.client[33] 	avg_time[33] 	0.004909908099
scalar tree_4_3_u09_r9_network.client[34] 	hdistance[34] 	3.1346170015976
scalar tree_4_3_u09_r9_network.client[34] 	downloads[34] 	11893
scalar tree_4_3_u09_r9_network.client[34] 	avg_time[34] 	0.005088761671
scalar tree_4_3_u09_r9_network.client[35] 	hdistance[35] 	3.1573989919855
scalar tree_4_3_u09_r9_network.client[35] 	downloads[35] 	12103
scalar tree_4_3_u09_r9_network.client[35] 	avg_time[35] 	0.005104892912
scalar tree_4_3_u09_r9_network.client[36] 	hdistance[36] 	3.0660244165767
scalar tree_4_3_u09_r9_network.client[36] 	downloads[36] 	12041
scalar tree_4_3_u09_r9_network.client[36] 	avg_time[36] 	0.004931602378
scalar tree_4_3_u09_r9_network.client[37] 	hdistance[37] 	3.0694385994445
scalar tree_4_3_u09_r9_network.client[37] 	downloads[37] 	11881
scalar tree_4_3_u09_r9_network.client[37] 	avg_time[37] 	0.004887842139
scalar tree_4_3_u09_r9_network.client[38] 	hdistance[38] 	3.0412269129288
scalar tree_4_3_u09_r9_network.client[38] 	downloads[38] 	12128
scalar tree_4_3_u09_r9_network.client[38] 	avg_time[38] 	0.00489532653
scalar tree_4_3_u09_r9_network.client[39] 	hdistance[39] 	3.1234106207928
scalar tree_4_3_u09_r9_network.client[39] 	downloads[39] 	12033
scalar tree_4_3_u09_r9_network.client[39] 	avg_time[39] 	0.005007926238
