version 2
run General-116-20160819-22:44:41-9589
attr a 0.9
attr cd fix0.01
attr configname General
attr cr lru
attr datetime 20160819-22:44:41
attr experiment General
attr fsize 1
attr inifile hw5115/scenario_A/SPR-FIX0.01.ini
attr iterationvars "$name=tree_4_3, $un=05, $rep=17, $cd=fix0.01, $cr=lru, $fsize=1, $a=0.9, $sl=spr, $ttl=1000, $variance=0.05"
attr iterationvars2 "$name=tree_4_3, $un=05, $rep=17, $cd=fix0.01, $cr=lru, $fsize=1, $a=0.9, $sl=spr, $ttl=1000, $variance=0.05, $repetition=0"
attr measurement "$name=tree_4_3, $un=05, $rep=17, $cd=fix0.01, $cr=lru, $fsize=1, $a=0.9, $sl=spr, $ttl=1000, $variance=0.05"
attr name tree_4_3
attr network networks.${name}_u${un}_r${rep}_network
attr processid 9589
attr rep 17
attr repetition 0
attr replication #0
attr resultdir results
attr runnumber 116
attr seedset 17
attr sl spr
attr ttl 1000
attr un 05
attr variance 0.05

scalar . 	a 	0.9
scalar . 	fsize 	1
scalar . 	rep 	17
scalar . 	ttl 	1000
scalar . 	un 	05
scalar . 	variance 	0.05
scalar tree_4_3_u05_r17_network.content_distribution 	repo-0 	0
scalar tree_4_3_u05_r17_network.content_distribution 	client-0 	13
scalar tree_4_3_u05_r17_network.content_distribution 	client-1 	14
scalar tree_4_3_u05_r17_network.content_distribution 	client-2 	15
scalar tree_4_3_u05_r17_network.content_distribution 	client-3 	16
scalar tree_4_3_u05_r17_network.content_distribution 	client-4 	17
scalar tree_4_3_u05_r17_network.content_distribution 	client-5 	18
scalar tree_4_3_u05_r17_network.content_distribution 	client-6 	19
scalar tree_4_3_u05_r17_network.content_distribution 	client-7 	20
scalar tree_4_3_u05_r17_network.content_distribution 	client-8 	21
scalar tree_4_3_u05_r17_network.content_distribution 	client-9 	22
scalar tree_4_3_u05_r17_network.content_distribution 	client-10 	23
scalar tree_4_3_u05_r17_network.content_distribution 	client-11 	24
scalar tree_4_3_u05_r17_network.content_distribution 	client-12 	25
scalar tree_4_3_u05_r17_network.content_distribution 	client-13 	26
scalar tree_4_3_u05_r17_network.content_distribution 	client-14 	27
scalar tree_4_3_u05_r17_network.content_distribution 	client-15 	28
scalar tree_4_3_u05_r17_network.content_distribution 	client-16 	29
scalar tree_4_3_u05_r17_network.content_distribution 	client-17 	30
scalar tree_4_3_u05_r17_network.content_distribution 	client-18 	31
scalar tree_4_3_u05_r17_network.content_distribution 	client-19 	32
scalar tree_4_3_u05_r17_network.content_distribution 	client-20 	33
scalar tree_4_3_u05_r17_network.content_distribution 	client-21 	34
scalar tree_4_3_u05_r17_network.content_distribution 	client-22 	35
scalar tree_4_3_u05_r17_network.content_distribution 	client-23 	36
scalar tree_4_3_u05_r17_network.content_distribution 	client-24 	37
scalar tree_4_3_u05_r17_network.content_distribution 	client-25 	38
scalar tree_4_3_u05_r17_network.content_distribution 	client-26 	39
scalar tree_4_3_u05_r17_network.content_distribution 	repo-0_card 	100000
scalar tree_4_3_u05_r17_network.content_distribution 	repo-0_price 	0
scalar tree_4_3_u05_r17_network.statistics 	stabilization_time 	2474.1
scalar tree_4_3_u05_r17_network.statistics 	p_hit 	0.17755232243743
scalar tree_4_3_u05_r17_network.statistics 	interests 	25674.85
scalar tree_4_3_u05_r17_network.statistics 	data 	17581.725
scalar tree_4_3_u05_r17_network.statistics 	hdistance 	2.8546349022439
scalar tree_4_3_u05_r17_network.statistics 	avg_time 	0.004344910627
scalar tree_4_3_u05_r17_network.statistics 	downloads 	323720
scalar tree_4_3_u05_r17_network.statistics 	total_cost 	0
scalar tree_4_3_u05_r17_network.statistics 	total_replicas 	100000
scalar tree_4_3_u05_r17_network.statistics 	inner_hit 	0.31787038181144
scalar tree_4_3_u05_r17_network.node[0].core_layer 	interests[0] 	225276
scalar tree_4_3_u05_r17_network.node[0].core_layer 	repo_load[0] 	220819
scalar tree_4_3_u05_r17_network.node[0].core_layer 	data[0] 	0
scalar tree_4_3_u05_r17_network.node[0].core_layer 	repo_int[0] 	220819
scalar tree_4_3_u05_r17_network.node[0].content_store 	p_hit[0] 	0.019784619755322
scalar tree_4_3_u05_r17_network.node[0].content_store 	hits[0] 	4457
scalar tree_4_3_u05_r17_network.node[0].content_store 	misses[0] 	220819
scalar tree_4_3_u05_r17_network.node[0].content_store 	decision_yes[0] 	2170
scalar tree_4_3_u05_r17_network.node[0].content_store 	decision_no[0] 	218649
scalar tree_4_3_u05_r17_network.node[0].content_store 	decision_ratio[0] 	0.0098270529256993
scalar tree_4_3_u05_r17_network.node[1].core_layer 	interests[1] 	112159
scalar tree_4_3_u05_r17_network.node[1].core_layer 	data[1] 	109037
scalar tree_4_3_u05_r17_network.node[1].content_store 	p_hit[1] 	0.027826567640582
scalar tree_4_3_u05_r17_network.node[1].content_store 	hits[1] 	3121
scalar tree_4_3_u05_r17_network.node[1].content_store 	misses[1] 	109038
scalar tree_4_3_u05_r17_network.node[1].content_store 	decision_yes[1] 	1119
scalar tree_4_3_u05_r17_network.node[1].content_store 	decision_no[1] 	107918
scalar tree_4_3_u05_r17_network.node[1].content_store 	decision_ratio[1] 	0.01026257142071
scalar tree_4_3_u05_r17_network.node[2].core_layer 	interests[2] 	77035
scalar tree_4_3_u05_r17_network.node[2].core_layer 	data[2] 	74673
scalar tree_4_3_u05_r17_network.node[2].content_store 	p_hit[2] 	0.030635425455962
scalar tree_4_3_u05_r17_network.node[2].content_store 	hits[2] 	2360
scalar tree_4_3_u05_r17_network.node[2].content_store 	misses[2] 	74675
scalar tree_4_3_u05_r17_network.node[2].content_store 	decision_yes[2] 	750
scalar tree_4_3_u05_r17_network.node[2].content_store 	decision_no[2] 	73923
scalar tree_4_3_u05_r17_network.node[2].content_store 	decision_ratio[2] 	0.010043790928448
scalar tree_4_3_u05_r17_network.node[3].core_layer 	interests[3] 	42851
scalar tree_4_3_u05_r17_network.node[3].core_layer 	data[3] 	41566
scalar tree_4_3_u05_r17_network.node[3].content_store 	p_hit[3] 	0.029964294882266
scalar tree_4_3_u05_r17_network.node[3].content_store 	hits[3] 	1284
scalar tree_4_3_u05_r17_network.node[3].content_store 	misses[3] 	41567
scalar tree_4_3_u05_r17_network.node[3].content_store 	decision_yes[3] 	433
scalar tree_4_3_u05_r17_network.node[3].content_store 	decision_no[3] 	41133
scalar tree_4_3_u05_r17_network.node[3].content_store 	decision_ratio[3] 	0.010417167877592
scalar tree_4_3_u05_r17_network.node[4].core_layer 	interests[4] 	45784
scalar tree_4_3_u05_r17_network.node[4].core_layer 	data[4] 	43192
scalar tree_4_3_u05_r17_network.node[4].content_store 	p_hit[4] 	0.056591822470732
scalar tree_4_3_u05_r17_network.node[4].content_store 	hits[4] 	2591
scalar tree_4_3_u05_r17_network.node[4].content_store 	misses[4] 	43193
scalar tree_4_3_u05_r17_network.node[4].content_store 	decision_yes[4] 	427
scalar tree_4_3_u05_r17_network.node[4].content_store 	decision_no[4] 	42765
scalar tree_4_3_u05_r17_network.node[4].content_store 	decision_ratio[4] 	0.0098860900166698
scalar tree_4_3_u05_r17_network.node[5].core_layer 	interests[5] 	27542
scalar tree_4_3_u05_r17_network.node[5].core_layer 	data[5] 	26051
scalar tree_4_3_u05_r17_network.node[5].content_store 	p_hit[5] 	0.054135502142183
scalar tree_4_3_u05_r17_network.node[5].content_store 	hits[5] 	1491
scalar tree_4_3_u05_r17_network.node[5].content_store 	misses[5] 	26051
scalar tree_4_3_u05_r17_network.node[5].content_store 	decision_yes[5] 	264
scalar tree_4_3_u05_r17_network.node[5].content_store 	decision_no[5] 	25787
scalar tree_4_3_u05_r17_network.node[5].content_store 	decision_ratio[5] 	0.010133967985874
scalar tree_4_3_u05_r17_network.node[6].core_layer 	interests[6] 	9198
scalar tree_4_3_u05_r17_network.node[6].core_layer 	data[6] 	8630
scalar tree_4_3_u05_r17_network.node[6].content_store 	p_hit[6] 	0.06175255490324
scalar tree_4_3_u05_r17_network.node[6].content_store 	hits[6] 	568
scalar tree_4_3_u05_r17_network.node[6].content_store 	misses[6] 	8630
scalar tree_4_3_u05_r17_network.node[6].content_store 	decision_yes[6] 	86
scalar tree_4_3_u05_r17_network.node[6].content_store 	decision_no[6] 	8544
scalar tree_4_3_u05_r17_network.node[6].content_store 	decision_ratio[6] 	0.0099652375434531
scalar tree_4_3_u05_r17_network.node[7].core_layer 	interests[7] 	36286
scalar tree_4_3_u05_r17_network.node[7].core_layer 	data[7] 	34099
scalar tree_4_3_u05_r17_network.node[7].content_store 	p_hit[7] 	0.060271178967095
scalar tree_4_3_u05_r17_network.node[7].content_store 	hits[7] 	2187
scalar tree_4_3_u05_r17_network.node[7].content_store 	misses[7] 	34099
scalar tree_4_3_u05_r17_network.node[7].content_store 	decision_yes[7] 	359
scalar tree_4_3_u05_r17_network.node[7].content_store 	decision_no[7] 	33740
scalar tree_4_3_u05_r17_network.node[7].content_store 	decision_ratio[7] 	0.010528167981466
scalar tree_4_3_u05_r17_network.node[8].core_layer 	interests[8] 	27283
scalar tree_4_3_u05_r17_network.node[8].core_layer 	data[8] 	25784
scalar tree_4_3_u05_r17_network.node[8].content_store 	p_hit[8] 	0.054942638272917
scalar tree_4_3_u05_r17_network.node[8].content_store 	hits[8] 	1499
scalar tree_4_3_u05_r17_network.node[8].content_store 	misses[8] 	25784
scalar tree_4_3_u05_r17_network.node[8].content_store 	decision_yes[8] 	251
scalar tree_4_3_u05_r17_network.node[8].content_store 	decision_no[8] 	25533
scalar tree_4_3_u05_r17_network.node[8].content_store 	decision_ratio[8] 	0.009734719205709
scalar tree_4_3_u05_r17_network.node[9].core_layer 	interests[9] 	18132
scalar tree_4_3_u05_r17_network.node[9].core_layer 	data[9] 	17153
scalar tree_4_3_u05_r17_network.node[9].content_store 	p_hit[9] 	0.053992940657401
scalar tree_4_3_u05_r17_network.node[9].content_store 	hits[9] 	979
scalar tree_4_3_u05_r17_network.node[9].content_store 	misses[9] 	17153
scalar tree_4_3_u05_r17_network.node[9].content_store 	decision_yes[9] 	185
scalar tree_4_3_u05_r17_network.node[9].content_store 	decision_no[9] 	16968
scalar tree_4_3_u05_r17_network.node[9].content_store 	decision_ratio[9] 	0.010785285372821
scalar tree_4_3_u05_r17_network.node[10].core_layer 	interests[10] 	36390
scalar tree_4_3_u05_r17_network.node[10].core_layer 	data[10] 	34285
scalar tree_4_3_u05_r17_network.node[10].content_store 	p_hit[10] 	0.057790601813685
scalar tree_4_3_u05_r17_network.node[10].content_store 	hits[10] 	2103
scalar tree_4_3_u05_r17_network.node[10].content_store 	misses[10] 	34287
scalar tree_4_3_u05_r17_network.node[10].content_store 	decision_yes[10] 	332
scalar tree_4_3_u05_r17_network.node[10].content_store 	decision_no[10] 	33953
scalar tree_4_3_u05_r17_network.node[10].content_store 	decision_ratio[10] 	0.0096835350736474
scalar tree_4_3_u05_r17_network.node[11].core_layer 	interests[11] 	36509
scalar tree_4_3_u05_r17_network.node[11].core_layer 	data[11] 	34489
scalar tree_4_3_u05_r17_network.node[11].content_store 	p_hit[11] 	0.055301432523487
scalar tree_4_3_u05_r17_network.node[11].content_store 	hits[11] 	2019
scalar tree_4_3_u05_r17_network.node[11].content_store 	misses[11] 	34490
scalar tree_4_3_u05_r17_network.node[11].content_store 	decision_yes[11] 	345
scalar tree_4_3_u05_r17_network.node[11].content_store 	decision_no[11] 	34144
scalar tree_4_3_u05_r17_network.node[11].content_store 	decision_ratio[11] 	0.010003189422714
scalar tree_4_3_u05_r17_network.node[12].core_layer 	interests[12] 	8824
scalar tree_4_3_u05_r17_network.node[12].core_layer 	data[12] 	8362
scalar tree_4_3_u05_r17_network.node[12].content_store 	p_hit[12] 	0.052357207615594
scalar tree_4_3_u05_r17_network.node[12].content_store 	hits[12] 	462
scalar tree_4_3_u05_r17_network.node[12].content_store 	misses[12] 	8362
scalar tree_4_3_u05_r17_network.node[12].content_store 	decision_yes[12] 	77
scalar tree_4_3_u05_r17_network.node[12].content_store 	decision_no[12] 	8285
scalar tree_4_3_u05_r17_network.node[12].content_store 	decision_ratio[12] 	0.0092083233676154
scalar tree_4_3_u05_r17_network.node[13].core_layer 	interests[13] 	12065
scalar tree_4_3_u05_r17_network.node[13].core_layer 	data[13] 	9273
scalar tree_4_3_u05_r17_network.node[13].content_store 	p_hit[13] 	0.23141317861583
scalar tree_4_3_u05_r17_network.node[13].content_store 	hits[13] 	2792
scalar tree_4_3_u05_r17_network.node[13].content_store 	misses[13] 	9273
scalar tree_4_3_u05_r17_network.node[13].content_store 	decision_yes[13] 	101
scalar tree_4_3_u05_r17_network.node[13].content_store 	decision_no[13] 	9172
scalar tree_4_3_u05_r17_network.node[13].content_store 	decision_ratio[13] 	0.010891836514612
scalar tree_4_3_u05_r17_network.node[14].core_layer 	interests[14] 	12094
scalar tree_4_3_u05_r17_network.node[14].core_layer 	data[14] 	9195
scalar tree_4_3_u05_r17_network.node[14].content_store 	p_hit[14] 	0.2394575822722
scalar tree_4_3_u05_r17_network.node[14].content_store 	hits[14] 	2896
scalar tree_4_3_u05_r17_network.node[14].content_store 	misses[14] 	9198
scalar tree_4_3_u05_r17_network.node[14].content_store 	decision_yes[14] 	108
scalar tree_4_3_u05_r17_network.node[14].content_store 	decision_no[14] 	9087
scalar tree_4_3_u05_r17_network.node[14].content_store 	decision_ratio[14] 	0.011745513866232
scalar tree_4_3_u05_r17_network.node[15].core_layer 	interests[15] 	12172
scalar tree_4_3_u05_r17_network.node[15].core_layer 	data[15] 	9117
scalar tree_4_3_u05_r17_network.node[15].content_store 	p_hit[15] 	0.25098586920802
scalar tree_4_3_u05_r17_network.node[15].content_store 	hits[15] 	3055
scalar tree_4_3_u05_r17_network.node[15].content_store 	misses[15] 	9117
scalar tree_4_3_u05_r17_network.node[15].content_store 	decision_yes[15] 	98
scalar tree_4_3_u05_r17_network.node[15].content_store 	decision_no[15] 	9019
scalar tree_4_3_u05_r17_network.node[15].content_store 	decision_ratio[15] 	0.010749149939673
scalar tree_4_3_u05_r17_network.node[16].core_layer 	interests[16] 	12116
scalar tree_4_3_u05_r17_network.node[16].core_layer 	data[16] 	9253
scalar tree_4_3_u05_r17_network.node[16].content_store 	p_hit[16] 	0.23629910861671
scalar tree_4_3_u05_r17_network.node[16].content_store 	hits[16] 	2863
scalar tree_4_3_u05_r17_network.node[16].content_store 	misses[16] 	9253
scalar tree_4_3_u05_r17_network.node[16].content_store 	decision_yes[16] 	97
scalar tree_4_3_u05_r17_network.node[16].content_store 	decision_no[16] 	9156
scalar tree_4_3_u05_r17_network.node[16].content_store 	decision_ratio[16] 	0.010483086566519
scalar tree_4_3_u05_r17_network.node[17].core_layer 	interests[17] 	11915
scalar tree_4_3_u05_r17_network.node[17].core_layer 	data[17] 	9006
scalar tree_4_3_u05_r17_network.node[17].content_store 	p_hit[17] 	0.24414603441041
scalar tree_4_3_u05_r17_network.node[17].content_store 	hits[17] 	2909
scalar tree_4_3_u05_r17_network.node[17].content_store 	misses[17] 	9006
scalar tree_4_3_u05_r17_network.node[17].content_store 	decision_yes[17] 	85
scalar tree_4_3_u05_r17_network.node[17].content_store 	decision_no[17] 	8921
scalar tree_4_3_u05_r17_network.node[17].content_store 	decision_ratio[17] 	0.0094381523428825
scalar tree_4_3_u05_r17_network.node[18].core_layer 	interests[18] 	12158
scalar tree_4_3_u05_r17_network.node[18].core_layer 	data[18] 	9328
scalar tree_4_3_u05_r17_network.node[18].content_store 	p_hit[18] 	0.23276854745846
scalar tree_4_3_u05_r17_network.node[18].content_store 	hits[18] 	2830
scalar tree_4_3_u05_r17_network.node[18].content_store 	misses[18] 	9328
scalar tree_4_3_u05_r17_network.node[18].content_store 	decision_yes[18] 	72
scalar tree_4_3_u05_r17_network.node[18].content_store 	decision_no[18] 	9256
scalar tree_4_3_u05_r17_network.node[18].content_store 	decision_ratio[18] 	0.0077186963979417
scalar tree_4_3_u05_r17_network.node[19].core_layer 	interests[19] 	11769
scalar tree_4_3_u05_r17_network.node[19].core_layer 	data[19] 	8946
scalar tree_4_3_u05_r17_network.node[19].content_store 	p_hit[19] 	0.23986744838134
scalar tree_4_3_u05_r17_network.node[19].content_store 	hits[19] 	2823
scalar tree_4_3_u05_r17_network.node[19].content_store 	misses[19] 	8946
scalar tree_4_3_u05_r17_network.node[19].content_store 	decision_yes[19] 	78
scalar tree_4_3_u05_r17_network.node[19].content_store 	decision_no[19] 	8868
scalar tree_4_3_u05_r17_network.node[19].content_store 	decision_ratio[19] 	0.0087189805499665
scalar tree_4_3_u05_r17_network.node[20].core_layer 	interests[20] 	12054
scalar tree_4_3_u05_r17_network.node[20].core_layer 	data[20] 	9208
scalar tree_4_3_u05_r17_network.node[20].content_store 	p_hit[20] 	0.23610419777667
scalar tree_4_3_u05_r17_network.node[20].content_store 	hits[20] 	2846
scalar tree_4_3_u05_r17_network.node[20].content_store 	misses[20] 	9208
scalar tree_4_3_u05_r17_network.node[20].content_store 	decision_yes[20] 	80
scalar tree_4_3_u05_r17_network.node[20].content_store 	decision_no[20] 	9128
scalar tree_4_3_u05_r17_network.node[20].content_store 	decision_ratio[20] 	0.0086880973066898
scalar tree_4_3_u05_r17_network.node[21].core_layer 	interests[21] 	11977
scalar tree_4_3_u05_r17_network.node[21].core_layer 	data[21] 	9198
scalar tree_4_3_u05_r17_network.node[21].content_store 	p_hit[21] 	0.23202805376973
scalar tree_4_3_u05_r17_network.node[21].content_store 	hits[21] 	2779
scalar tree_4_3_u05_r17_network.node[21].content_store 	misses[21] 	9198
scalar tree_4_3_u05_r17_network.node[21].content_store 	decision_yes[21] 	108
scalar tree_4_3_u05_r17_network.node[21].content_store 	decision_no[21] 	9090
scalar tree_4_3_u05_r17_network.node[21].content_store 	decision_ratio[21] 	0.01174168297456
scalar tree_4_3_u05_r17_network.node[22].core_layer 	interests[22] 	11909
scalar tree_4_3_u05_r17_network.node[22].core_layer 	data[22] 	9074
scalar tree_4_3_u05_r17_network.node[22].content_store 	p_hit[22] 	0.23805525233017
scalar tree_4_3_u05_r17_network.node[22].content_store 	hits[22] 	2835
scalar tree_4_3_u05_r17_network.node[22].content_store 	misses[22] 	9074
scalar tree_4_3_u05_r17_network.node[22].content_store 	decision_yes[22] 	90
scalar tree_4_3_u05_r17_network.node[22].content_store 	decision_no[22] 	8984
scalar tree_4_3_u05_r17_network.node[22].content_store 	decision_ratio[22] 	0.0099184483138638
scalar tree_4_3_u05_r17_network.node[23].core_layer 	interests[23] 	11897
scalar tree_4_3_u05_r17_network.node[23].core_layer 	data[23] 	9046
scalar tree_4_3_u05_r17_network.node[23].content_store 	p_hit[23] 	0.23972430024376
scalar tree_4_3_u05_r17_network.node[23].content_store 	hits[23] 	2852
scalar tree_4_3_u05_r17_network.node[23].content_store 	misses[23] 	9045
scalar tree_4_3_u05_r17_network.node[23].content_store 	decision_yes[23] 	89
scalar tree_4_3_u05_r17_network.node[23].content_store 	decision_no[23] 	8957
scalar tree_4_3_u05_r17_network.node[23].content_store 	decision_ratio[23] 	0.0098386026973248
scalar tree_4_3_u05_r17_network.node[24].core_layer 	interests[24] 	11951
scalar tree_4_3_u05_r17_network.node[24].core_layer 	data[24] 	9111
scalar tree_4_3_u05_r17_network.node[24].content_store 	p_hit[24] 	0.23763701782278
scalar tree_4_3_u05_r17_network.node[24].content_store 	hits[24] 	2840
scalar tree_4_3_u05_r17_network.node[24].content_store 	misses[24] 	9111
scalar tree_4_3_u05_r17_network.node[24].content_store 	decision_yes[24] 	87
scalar tree_4_3_u05_r17_network.node[24].content_store 	decision_no[24] 	9024
scalar tree_4_3_u05_r17_network.node[24].content_store 	decision_ratio[24] 	0.0095488969377675
scalar tree_4_3_u05_r17_network.node[25].core_layer 	interests[25] 	12122
scalar tree_4_3_u05_r17_network.node[25].core_layer 	data[25] 	9236
scalar tree_4_3_u05_r17_network.node[25].content_store 	p_hit[25] 	0.23807952483089
scalar tree_4_3_u05_r17_network.node[25].content_store 	hits[25] 	2886
scalar tree_4_3_u05_r17_network.node[25].content_store 	misses[25] 	9236
scalar tree_4_3_u05_r17_network.node[25].content_store 	decision_yes[25] 	100
scalar tree_4_3_u05_r17_network.node[25].content_store 	decision_no[25] 	9136
scalar tree_4_3_u05_r17_network.node[25].content_store 	decision_ratio[25] 	0.010827197921178
scalar tree_4_3_u05_r17_network.node[26].core_layer 	interests[26] 	11841
scalar tree_4_3_u05_r17_network.node[26].core_layer 	data[26] 	9012
scalar tree_4_3_u05_r17_network.node[26].content_store 	p_hit[26] 	0.23891563212567
scalar tree_4_3_u05_r17_network.node[26].content_store 	hits[26] 	2829
scalar tree_4_3_u05_r17_network.node[26].content_store 	misses[26] 	9012
scalar tree_4_3_u05_r17_network.node[26].content_store 	decision_yes[26] 	98
scalar tree_4_3_u05_r17_network.node[26].content_store 	decision_no[26] 	8914
scalar tree_4_3_u05_r17_network.node[26].content_store 	decision_ratio[26] 	0.010874389702619
scalar tree_4_3_u05_r17_network.node[27].core_layer 	interests[27] 	11967
scalar tree_4_3_u05_r17_network.node[27].core_layer 	data[27] 	9035
scalar tree_4_3_u05_r17_network.node[27].content_store 	p_hit[27] 	0.24500710286622
scalar tree_4_3_u05_r17_network.node[27].content_store 	hits[27] 	2932
scalar tree_4_3_u05_r17_network.node[27].content_store 	misses[27] 	9035
scalar tree_4_3_u05_r17_network.node[27].content_store 	decision_yes[27] 	81
scalar tree_4_3_u05_r17_network.node[27].content_store 	decision_no[27] 	8954
scalar tree_4_3_u05_r17_network.node[27].content_store 	decision_ratio[27] 	0.0089651355838406
scalar tree_4_3_u05_r17_network.node[28].core_layer 	interests[28] 	11926
scalar tree_4_3_u05_r17_network.node[28].core_layer 	data[28] 	9056
scalar tree_4_3_u05_r17_network.node[28].content_store 	p_hit[28] 	0.24065067918833
scalar tree_4_3_u05_r17_network.node[28].content_store 	hits[28] 	2870
scalar tree_4_3_u05_r17_network.node[28].content_store 	misses[28] 	9056
scalar tree_4_3_u05_r17_network.node[28].content_store 	decision_yes[28] 	99
scalar tree_4_3_u05_r17_network.node[28].content_store 	decision_no[28] 	8957
scalar tree_4_3_u05_r17_network.node[28].content_store 	decision_ratio[28] 	0.010931978798587
scalar tree_4_3_u05_r17_network.node[29].core_layer 	interests[29] 	12024
scalar tree_4_3_u05_r17_network.node[29].core_layer 	data[29] 	9087
scalar tree_4_3_u05_r17_network.node[29].content_store 	p_hit[29] 	0.24426147704591
scalar tree_4_3_u05_r17_network.node[29].content_store 	hits[29] 	2937
scalar tree_4_3_u05_r17_network.node[29].content_store 	misses[29] 	9087
scalar tree_4_3_u05_r17_network.node[29].content_store 	decision_yes[29] 	90
scalar tree_4_3_u05_r17_network.node[29].content_store 	decision_no[29] 	8997
scalar tree_4_3_u05_r17_network.node[29].content_store 	decision_ratio[29] 	0.0099042588312975
scalar tree_4_3_u05_r17_network.node[30].core_layer 	interests[30] 	11902
scalar tree_4_3_u05_r17_network.node[30].core_layer 	data[30] 	9045
scalar tree_4_3_u05_r17_network.node[30].content_store 	p_hit[30] 	0.24004369013611
scalar tree_4_3_u05_r17_network.node[30].content_store 	hits[30] 	2857
scalar tree_4_3_u05_r17_network.node[30].content_store 	misses[30] 	9045
scalar tree_4_3_u05_r17_network.node[30].content_store 	decision_yes[30] 	100
scalar tree_4_3_u05_r17_network.node[30].content_store 	decision_no[30] 	8945
scalar tree_4_3_u05_r17_network.node[30].content_store 	decision_ratio[30] 	0.011055831951354
scalar tree_4_3_u05_r17_network.node[31].core_layer 	interests[31] 	11879
scalar tree_4_3_u05_r17_network.node[31].core_layer 	data[31] 	8996
scalar tree_4_3_u05_r17_network.node[31].content_store 	p_hit[31] 	0.24261301456352
scalar tree_4_3_u05_r17_network.node[31].content_store 	hits[31] 	2882
scalar tree_4_3_u05_r17_network.node[31].content_store 	misses[31] 	8997
scalar tree_4_3_u05_r17_network.node[31].content_store 	decision_yes[31] 	107
scalar tree_4_3_u05_r17_network.node[31].content_store 	decision_no[31] 	8889
scalar tree_4_3_u05_r17_network.node[31].content_store 	decision_ratio[31] 	0.011894175188973
scalar tree_4_3_u05_r17_network.node[32].core_layer 	interests[32] 	11920
scalar tree_4_3_u05_r17_network.node[32].core_layer 	data[32] 	9014
scalar tree_4_3_u05_r17_network.node[32].content_store 	p_hit[32] 	0.24379194630872
scalar tree_4_3_u05_r17_network.node[32].content_store 	hits[32] 	2906
scalar tree_4_3_u05_r17_network.node[32].content_store 	misses[32] 	9014
scalar tree_4_3_u05_r17_network.node[32].content_store 	decision_yes[32] 	100
scalar tree_4_3_u05_r17_network.node[32].content_store 	decision_no[32] 	8914
scalar tree_4_3_u05_r17_network.node[32].content_store 	decision_ratio[32] 	0.011093854004881
scalar tree_4_3_u05_r17_network.node[33].core_layer 	interests[33] 	12024
scalar tree_4_3_u05_r17_network.node[33].core_layer 	data[33] 	9126
scalar tree_4_3_u05_r17_network.node[33].content_store 	p_hit[33] 	0.24101796407186
scalar tree_4_3_u05_r17_network.node[33].content_store 	hits[33] 	2898
scalar tree_4_3_u05_r17_network.node[33].content_store 	misses[33] 	9126
scalar tree_4_3_u05_r17_network.node[33].content_store 	decision_yes[33] 	107
scalar tree_4_3_u05_r17_network.node[33].content_store 	decision_no[33] 	9019
scalar tree_4_3_u05_r17_network.node[33].content_store 	decision_ratio[33] 	0.011724742493973
scalar tree_4_3_u05_r17_network.node[34].core_layer 	interests[34] 	12026
scalar tree_4_3_u05_r17_network.node[34].core_layer 	data[34] 	9143
scalar tree_4_3_u05_r17_network.node[34].content_store 	p_hit[34] 	0.23973058373524
scalar tree_4_3_u05_r17_network.node[34].content_store 	hits[34] 	2883
scalar tree_4_3_u05_r17_network.node[34].content_store 	misses[34] 	9143
scalar tree_4_3_u05_r17_network.node[34].content_store 	decision_yes[34] 	95
scalar tree_4_3_u05_r17_network.node[34].content_store 	decision_no[34] 	9048
scalar tree_4_3_u05_r17_network.node[34].content_store 	decision_ratio[34] 	0.010390462649021
scalar tree_4_3_u05_r17_network.node[35].core_layer 	interests[35] 	12024
scalar tree_4_3_u05_r17_network.node[35].core_layer 	data[35] 	9292
scalar tree_4_3_u05_r17_network.node[35].content_store 	p_hit[35] 	0.2272122421823
scalar tree_4_3_u05_r17_network.node[35].content_store 	hits[35] 	2732
scalar tree_4_3_u05_r17_network.node[35].content_store 	misses[35] 	9292
scalar tree_4_3_u05_r17_network.node[35].content_store 	decision_yes[35] 	109
scalar tree_4_3_u05_r17_network.node[35].content_store 	decision_no[35] 	9183
scalar tree_4_3_u05_r17_network.node[35].content_store 	decision_ratio[35] 	0.011730520878175
scalar tree_4_3_u05_r17_network.node[36].core_layer 	interests[36] 	12138
scalar tree_4_3_u05_r17_network.node[36].core_layer 	data[36] 	9081
scalar tree_4_3_u05_r17_network.node[36].content_store 	p_hit[36] 	0.25185368264953
scalar tree_4_3_u05_r17_network.node[36].content_store 	hits[36] 	3057
scalar tree_4_3_u05_r17_network.node[36].content_store 	misses[36] 	9081
scalar tree_4_3_u05_r17_network.node[36].content_store 	decision_yes[36] 	100
scalar tree_4_3_u05_r17_network.node[36].content_store 	decision_no[36] 	8981
scalar tree_4_3_u05_r17_network.node[36].content_store 	decision_ratio[36] 	0.011012003083361
scalar tree_4_3_u05_r17_network.node[37].core_layer 	interests[37] 	12114
scalar tree_4_3_u05_r17_network.node[37].core_layer 	data[37] 	9253
scalar tree_4_3_u05_r17_network.node[37].content_store 	p_hit[37] 	0.23609047383193
scalar tree_4_3_u05_r17_network.node[37].content_store 	hits[37] 	2860
scalar tree_4_3_u05_r17_network.node[37].content_store 	misses[37] 	9254
scalar tree_4_3_u05_r17_network.node[37].content_store 	decision_yes[37] 	93
scalar tree_4_3_u05_r17_network.node[37].content_store 	decision_no[37] 	9160
scalar tree_4_3_u05_r17_network.node[37].content_store 	decision_ratio[37] 	0.010050794336972
scalar tree_4_3_u05_r17_network.node[38].core_layer 	interests[38] 	11896
scalar tree_4_3_u05_r17_network.node[38].core_layer 	data[38] 	8993
scalar tree_4_3_u05_r17_network.node[38].content_store 	p_hit[38] 	0.24403160726295
scalar tree_4_3_u05_r17_network.node[38].content_store 	hits[38] 	2903
scalar tree_4_3_u05_r17_network.node[38].content_store 	misses[38] 	8993
scalar tree_4_3_u05_r17_network.node[38].content_store 	decision_yes[38] 	67
scalar tree_4_3_u05_r17_network.node[38].content_store 	decision_no[38] 	8926
scalar tree_4_3_u05_r17_network.node[38].content_store 	decision_ratio[38] 	0.007450239074836
scalar tree_4_3_u05_r17_network.node[39].core_layer 	interests[39] 	11845
scalar tree_4_3_u05_r17_network.node[39].core_layer 	data[39] 	8824
scalar tree_4_3_u05_r17_network.node[39].content_store 	p_hit[39] 	0.25495989869143
scalar tree_4_3_u05_r17_network.node[39].content_store 	hits[39] 	3020
scalar tree_4_3_u05_r17_network.node[39].content_store 	misses[39] 	8825
scalar tree_4_3_u05_r17_network.node[39].content_store 	decision_yes[39] 	93
scalar tree_4_3_u05_r17_network.node[39].content_store 	decision_no[39] 	8731
scalar tree_4_3_u05_r17_network.node[39].content_store 	decision_ratio[39] 	0.010539437896646
scalar tree_4_3_u05_r17_network.client[13] 	hdistance[13] 	2.8723580605056
scalar tree_4_3_u05_r17_network.client[13] 	downloads[13] 	12065
scalar tree_4_3_u05_r17_network.client[13] 	avg_time[13] 	0.004371650506
scalar tree_4_3_u05_r17_network.client[14] 	hdistance[14] 	2.85716648747
scalar tree_4_3_u05_r17_network.client[14] 	downloads[14] 	12091
scalar tree_4_3_u05_r17_network.client[14] 	avg_time[14] 	0.004350277259
scalar tree_4_3_u05_r17_network.client[15] 	hdistance[15] 	2.8276372001314
scalar tree_4_3_u05_r17_network.client[15] 	downloads[15] 	12172
scalar tree_4_3_u05_r17_network.client[15] 	avg_time[15] 	0.004303480388
scalar tree_4_3_u05_r17_network.client[16] 	hdistance[16] 	2.873720699901
scalar tree_4_3_u05_r17_network.client[16] 	downloads[16] 	12116
scalar tree_4_3_u05_r17_network.client[16] 	avg_time[16] 	0.004372066951
scalar tree_4_3_u05_r17_network.client[17] 	hdistance[17] 	2.8663029794377
scalar tree_4_3_u05_r17_network.client[17] 	downloads[17] 	11915
scalar tree_4_3_u05_r17_network.client[17] 	avg_time[17] 	0.004357361722
scalar tree_4_3_u05_r17_network.client[18] 	hdistance[18] 	2.8733344300049
scalar tree_4_3_u05_r17_network.client[18] 	downloads[18] 	12158
scalar tree_4_3_u05_r17_network.client[18] 	avg_time[18] 	0.00437769067
scalar tree_4_3_u05_r17_network.client[19] 	hdistance[19] 	2.8630299940522
scalar tree_4_3_u05_r17_network.client[19] 	downloads[19] 	11769
scalar tree_4_3_u05_r17_network.client[19] 	avg_time[19] 	0.004354488646
scalar tree_4_3_u05_r17_network.client[20] 	hdistance[20] 	2.8733200597312
scalar tree_4_3_u05_r17_network.client[20] 	downloads[20] 	12054
scalar tree_4_3_u05_r17_network.client[20] 	avg_time[20] 	0.004370164526
scalar tree_4_3_u05_r17_network.client[21] 	hdistance[21] 	2.8726726225265
scalar tree_4_3_u05_r17_network.client[21] 	downloads[21] 	11977
scalar tree_4_3_u05_r17_network.client[21] 	avg_time[21] 	0.004374548276
scalar tree_4_3_u05_r17_network.client[22] 	hdistance[22] 	2.8443194222857
scalar tree_4_3_u05_r17_network.client[22] 	downloads[22] 	11909
scalar tree_4_3_u05_r17_network.client[22] 	avg_time[22] 	0.004332518638
scalar tree_4_3_u05_r17_network.client[23] 	hdistance[23] 	2.8645150445453
scalar tree_4_3_u05_r17_network.client[23] 	downloads[23] 	11898
scalar tree_4_3_u05_r17_network.client[23] 	avg_time[23] 	0.004357368014
scalar tree_4_3_u05_r17_network.client[24] 	hdistance[24] 	2.8474604635595
scalar tree_4_3_u05_r17_network.client[24] 	downloads[24] 	11951
scalar tree_4_3_u05_r17_network.client[24] 	avg_time[24] 	0.004338993497
scalar tree_4_3_u05_r17_network.client[25] 	hdistance[25] 	2.8557168784029
scalar tree_4_3_u05_r17_network.client[25] 	downloads[25] 	12122
scalar tree_4_3_u05_r17_network.client[25] 	avg_time[25] 	0.004350104221
scalar tree_4_3_u05_r17_network.client[26] 	hdistance[26] 	2.867240942488
scalar tree_4_3_u05_r17_network.client[26] 	downloads[26] 	11841
scalar tree_4_3_u05_r17_network.client[26] 	avg_time[26] 	0.004361959708
scalar tree_4_3_u05_r17_network.client[27] 	hdistance[27] 	2.8423163700176
scalar tree_4_3_u05_r17_network.client[27] 	downloads[27] 	11967
scalar tree_4_3_u05_r17_network.client[27] 	avg_time[27] 	0.004324221965
scalar tree_4_3_u05_r17_network.client[28] 	hdistance[28] 	2.844876739896
scalar tree_4_3_u05_r17_network.client[28] 	downloads[28] 	11926
scalar tree_4_3_u05_r17_network.client[28] 	avg_time[28] 	0.004328522915
scalar tree_4_3_u05_r17_network.client[29] 	hdistance[29] 	2.8497172322023
scalar tree_4_3_u05_r17_network.client[29] 	downloads[29] 	12024
scalar tree_4_3_u05_r17_network.client[29] 	avg_time[29] 	0.004336324338
scalar tree_4_3_u05_r17_network.client[30] 	hdistance[30] 	2.8488489329524
scalar tree_4_3_u05_r17_network.client[30] 	downloads[30] 	11902
scalar tree_4_3_u05_r17_network.client[30] 	avg_time[30] 	0.004338877979
scalar tree_4_3_u05_r17_network.client[31] 	hdistance[31] 	2.8619296177808
scalar tree_4_3_u05_r17_network.client[31] 	downloads[31] 	11878
scalar tree_4_3_u05_r17_network.client[31] 	avg_time[31] 	0.004353928662
scalar tree_4_3_u05_r17_network.client[32] 	hdistance[32] 	2.8479026845638
scalar tree_4_3_u05_r17_network.client[32] 	downloads[32] 	11920
scalar tree_4_3_u05_r17_network.client[32] 	avg_time[32] 	0.00433204398
scalar tree_4_3_u05_r17_network.client[33] 	hdistance[33] 	2.853875582169
scalar tree_4_3_u05_r17_network.client[33] 	downloads[33] 	12024
scalar tree_4_3_u05_r17_network.client[33] 	avg_time[33] 	0.004344058962
scalar tree_4_3_u05_r17_network.client[34] 	hdistance[34] 	2.8297023116581
scalar tree_4_3_u05_r17_network.client[34] 	downloads[34] 	12026
scalar tree_4_3_u05_r17_network.client[34] 	avg_time[34] 	0.004310490915
scalar tree_4_3_u05_r17_network.client[35] 	hdistance[35] 	2.8925482368596
scalar tree_4_3_u05_r17_network.client[35] 	downloads[35] 	12024
scalar tree_4_3_u05_r17_network.client[35] 	avg_time[35] 	0.004406849959
scalar tree_4_3_u05_r17_network.client[36] 	hdistance[36] 	2.8484923381117
scalar tree_4_3_u05_r17_network.client[36] 	downloads[36] 	12138
scalar tree_4_3_u05_r17_network.client[36] 	avg_time[36] 	0.004333659868
scalar tree_4_3_u05_r17_network.client[37] 	hdistance[37] 	2.8439692891934
scalar tree_4_3_u05_r17_network.client[37] 	downloads[37] 	12113
scalar tree_4_3_u05_r17_network.client[37] 	avg_time[37] 	0.004331583844
scalar tree_4_3_u05_r17_network.client[38] 	hdistance[38] 	2.8408708809684
scalar tree_4_3_u05_r17_network.client[38] 	downloads[38] 	11896
scalar tree_4_3_u05_r17_network.client[38] 	avg_time[38] 	0.004323562691
scalar tree_4_3_u05_r17_network.client[39] 	hdistance[39] 	2.8112968591692
scalar tree_4_3_u05_r17_network.client[39] 	downloads[39] 	11844
scalar tree_4_3_u05_r17_network.client[39] 	avg_time[39] 	0.00427578784
