version 2
run General-85-20160825-09:49:36-24543
attr D ffc
attr F nrr
attr R lru
attr a 0.9
attr configname General
attr datetime 20160825-09:49:36
attr experiment General
attr inifile hw5115/scenario_C/omnetp.ini
attr iterationvars "$net=dtelecom, $rep=10, $a=0.9, $F=nrr, $D=ffc, $R=lru, $window=60, $variance=0.05, $mytime=600"
attr iterationvars2 "$net=dtelecom, $rep=10, $a=0.9, $F=nrr, $D=ffc, $R=lru, $window=60, $variance=0.05, $mytime=600, $repetition=0"
attr measurement "$net=dtelecom, $rep=10, $a=0.9, $F=nrr, $D=ffc, $R=lru, $window=60, $variance=0.05, $mytime=600"
attr mytime 600
attr net dtelecom
attr network networks.${net=dtelecom}_network
attr processid 24543
attr rep 10
attr repetition 0
attr replication #0
attr resultdir results
attr runnumber 85
attr seedset 10
attr variance 0.05
attr window 60

scalar . 	a 	0.9
scalar . 	mytime 	600
scalar . 	rep 	10
scalar . 	variance 	0.05
scalar . 	window 	60
scalar dtelecom_network.content_distribution 	repo-0 	16
scalar dtelecom_network.content_distribution 	repo-1 	23
scalar dtelecom_network.content_distribution 	repo-2 	58
scalar dtelecom_network.content_distribution 	repo-3 	28
scalar dtelecom_network.content_distribution 	repo-4 	42
scalar dtelecom_network.content_distribution 	repo-5 	46
scalar dtelecom_network.content_distribution 	repo-6 	6
scalar dtelecom_network.content_distribution 	repo-7 	18
scalar dtelecom_network.content_distribution 	repo-8 	25
scalar dtelecom_network.content_distribution 	repo-9 	10
scalar dtelecom_network.content_distribution 	repo-10 	44
scalar dtelecom_network.content_distribution 	repo-11 	54
scalar dtelecom_network.content_distribution 	repo-12 	24
scalar dtelecom_network.content_distribution 	repo-13 	31
scalar dtelecom_network.content_distribution 	repo-14 	65
scalar dtelecom_network.content_distribution 	repo-15 	27
scalar dtelecom_network.content_distribution 	client-0 	46
scalar dtelecom_network.content_distribution 	client-1 	30
scalar dtelecom_network.content_distribution 	client-2 	8
scalar dtelecom_network.content_distribution 	client-3 	49
scalar dtelecom_network.content_distribution 	client-4 	66
scalar dtelecom_network.content_distribution 	client-5 	58
scalar dtelecom_network.content_distribution 	client-6 	32
scalar dtelecom_network.content_distribution 	client-7 	40
scalar dtelecom_network.content_distribution 	client-8 	42
scalar dtelecom_network.content_distribution 	client-9 	45
scalar dtelecom_network.content_distribution 	client-10 	33
scalar dtelecom_network.content_distribution 	client-11 	28
scalar dtelecom_network.content_distribution 	client-12 	3
scalar dtelecom_network.content_distribution 	client-13 	57
scalar dtelecom_network.content_distribution 	client-14 	50
scalar dtelecom_network.content_distribution 	client-15 	17
scalar dtelecom_network.content_distribution 	client-16 	59
scalar dtelecom_network.content_distribution 	client-17 	48
scalar dtelecom_network.content_distribution 	client-18 	23
scalar dtelecom_network.content_distribution 	client-19 	22
scalar dtelecom_network.content_distribution 	client-20 	67
scalar dtelecom_network.content_distribution 	client-21 	62
scalar dtelecom_network.content_distribution 	client-22 	56
scalar dtelecom_network.content_distribution 	client-23 	55
scalar dtelecom_network.content_distribution 	client-24 	53
scalar dtelecom_network.content_distribution 	client-25 	36
scalar dtelecom_network.content_distribution 	client-26 	51
scalar dtelecom_network.content_distribution 	client-27 	37
scalar dtelecom_network.content_distribution 	client-28 	54
scalar dtelecom_network.content_distribution 	client-29 	4
scalar dtelecom_network.content_distribution 	client-30 	31
scalar dtelecom_network.content_distribution 	client-31 	9
scalar dtelecom_network.content_distribution 	repo-0_card 	6240
scalar dtelecom_network.content_distribution 	repo-0_price 	0
scalar dtelecom_network.content_distribution 	repo-1_card 	6300
scalar dtelecom_network.content_distribution 	repo-1_price 	0
scalar dtelecom_network.content_distribution 	repo-2_card 	6351
scalar dtelecom_network.content_distribution 	repo-2_price 	0
scalar dtelecom_network.content_distribution 	repo-3_card 	6069
scalar dtelecom_network.content_distribution 	repo-3_price 	0
scalar dtelecom_network.content_distribution 	repo-4_card 	6322
scalar dtelecom_network.content_distribution 	repo-4_price 	0
scalar dtelecom_network.content_distribution 	repo-5_card 	6183
scalar dtelecom_network.content_distribution 	repo-5_price 	0
scalar dtelecom_network.content_distribution 	repo-6_card 	6236
scalar dtelecom_network.content_distribution 	repo-6_price 	0
scalar dtelecom_network.content_distribution 	repo-7_card 	6223
scalar dtelecom_network.content_distribution 	repo-7_price 	0
scalar dtelecom_network.content_distribution 	repo-8_card 	6295
scalar dtelecom_network.content_distribution 	repo-8_price 	0
scalar dtelecom_network.content_distribution 	repo-9_card 	6273
scalar dtelecom_network.content_distribution 	repo-9_price 	0
scalar dtelecom_network.content_distribution 	repo-10_card 	6196
scalar dtelecom_network.content_distribution 	repo-10_price 	0
scalar dtelecom_network.content_distribution 	repo-11_card 	6130
scalar dtelecom_network.content_distribution 	repo-11_price 	0
scalar dtelecom_network.content_distribution 	repo-12_card 	6287
scalar dtelecom_network.content_distribution 	repo-12_price 	0
scalar dtelecom_network.content_distribution 	repo-13_card 	6300
scalar dtelecom_network.content_distribution 	repo-13_price 	0
scalar dtelecom_network.content_distribution 	repo-14_card 	6333
scalar dtelecom_network.content_distribution 	repo-14_price 	0
scalar dtelecom_network.content_distribution 	repo-15_card 	6262
scalar dtelecom_network.content_distribution 	repo-15_price 	0
scalar dtelecom_network.statistics 	stabilization_time 	2262.5
scalar dtelecom_network.statistics 	p_hit 	0.29533462606854
scalar dtelecom_network.statistics 	interests 	13012.088235294
scalar dtelecom_network.statistics 	data 	7348.9411764706
scalar dtelecom_network.statistics 	hdistance 	1.7843932085377
scalar dtelecom_network.statistics 	avg_time 	0.020376056666
scalar dtelecom_network.statistics 	downloads 	385054
scalar dtelecom_network.statistics 	total_cost 	0
scalar dtelecom_network.statistics 	total_replicas 	100000
scalar dtelecom_network.statistics 	inner_hit 	0.51345265858815
scalar dtelecom_network.node[0].core_layer 	interests[0] 	3479
scalar dtelecom_network.node[0].core_layer 	data[0] 	1172
scalar dtelecom_network.node[0].core_layer 	repo_int[0] 	187347
scalar dtelecom_network.node[0].content_store 	p_hit[0] 	0.66312158666283
scalar dtelecom_network.node[0].content_store 	hits[0] 	2307
scalar dtelecom_network.node[0].content_store 	misses[0] 	1172
scalar dtelecom_network.node[0].content_store 	decision_yes[0] 	48
scalar dtelecom_network.node[0].content_store 	decision_no[0] 	1124
scalar dtelecom_network.node[0].content_store 	decision_ratio[0] 	0.040955631399317
scalar dtelecom_network.node[1].core_layer 	interests[1] 	177048
scalar dtelecom_network.node[1].core_layer 	data[1] 	169337
scalar dtelecom_network.node[1].content_store 	p_hit[1] 	0.043451493380326
scalar dtelecom_network.node[1].content_store 	hits[1] 	7693
scalar dtelecom_network.node[1].content_store 	misses[1] 	169355
scalar dtelecom_network.node[1].content_store 	decision_yes[1] 	1257
scalar dtelecom_network.node[1].content_store 	decision_no[1] 	168080
scalar dtelecom_network.node[1].content_store 	decision_ratio[1] 	0.0074230676107407
scalar dtelecom_network.node[2].core_layer 	interests[2] 	4645
scalar dtelecom_network.node[2].core_layer 	data[2] 	859
scalar dtelecom_network.node[2].content_store 	p_hit[2] 	0.81506996770721
scalar dtelecom_network.node[2].content_store 	hits[2] 	3786
scalar dtelecom_network.node[2].content_store 	misses[2] 	859
scalar dtelecom_network.node[2].content_store 	decision_yes[2] 	97
scalar dtelecom_network.node[2].content_store 	decision_no[2] 	762
scalar dtelecom_network.node[2].content_store 	decision_ratio[2] 	0.11292200232829
scalar dtelecom_network.node[3].core_layer 	interests[3] 	21957
scalar dtelecom_network.node[3].core_layer 	data[3] 	8894
scalar dtelecom_network.node[3].content_store 	p_hit[3] 	0.59489001229676
scalar dtelecom_network.node[3].content_store 	hits[3] 	13062
scalar dtelecom_network.node[3].content_store 	misses[3] 	8895
scalar dtelecom_network.node[3].content_store 	decision_yes[3] 	191
scalar dtelecom_network.node[3].content_store 	decision_no[3] 	8703
scalar dtelecom_network.node[3].content_store 	decision_ratio[3] 	0.021475151787722
scalar dtelecom_network.node[4].core_layer 	interests[4] 	51355
scalar dtelecom_network.node[4].core_layer 	data[4] 	39244
scalar dtelecom_network.node[4].content_store 	p_hit[4] 	0.23543958718723
scalar dtelecom_network.node[4].content_store 	hits[4] 	12091
scalar dtelecom_network.node[4].content_store 	misses[4] 	39264
scalar dtelecom_network.node[4].content_store 	decision_yes[4] 	689
scalar dtelecom_network.node[4].content_store 	decision_no[4] 	38555
scalar dtelecom_network.node[4].content_store 	decision_ratio[4] 	0.017556823973091
scalar dtelecom_network.node[5].core_layer 	interests[5] 	0
scalar dtelecom_network.node[5].core_layer 	data[5] 	0
scalar dtelecom_network.node[5].content_store 	p_hit[5] 	-nan
scalar dtelecom_network.node[5].content_store 	hits[5] 	0
scalar dtelecom_network.node[5].content_store 	misses[5] 	0
scalar dtelecom_network.node[5].content_store 	decision_yes[5] 	0
scalar dtelecom_network.node[5].content_store 	decision_no[5] 	0
scalar dtelecom_network.node[5].content_store 	decision_ratio[5] 	0
scalar dtelecom_network.node[6].core_layer 	interests[6] 	12785
scalar dtelecom_network.node[6].core_layer 	repo_load[6] 	10507
scalar dtelecom_network.node[6].core_layer 	data[6] 	0
scalar dtelecom_network.node[6].content_store 	p_hit[6] 	0.17817755181854
scalar dtelecom_network.node[6].content_store 	hits[6] 	2278
scalar dtelecom_network.node[6].content_store 	misses[6] 	10507
scalar dtelecom_network.node[6].content_store 	decision_yes[6] 	432
scalar dtelecom_network.node[6].content_store 	decision_no[6] 	10075
scalar dtelecom_network.node[6].content_store 	decision_ratio[6] 	0.041115446844961
scalar dtelecom_network.node[7].core_layer 	interests[7] 	0
scalar dtelecom_network.node[7].core_layer 	data[7] 	0
scalar dtelecom_network.node[7].content_store 	p_hit[7] 	-nan
scalar dtelecom_network.node[7].content_store 	hits[7] 	0
scalar dtelecom_network.node[7].content_store 	misses[7] 	0
scalar dtelecom_network.node[7].content_store 	decision_yes[7] 	0
scalar dtelecom_network.node[7].content_store 	decision_no[7] 	0
scalar dtelecom_network.node[7].content_store 	decision_ratio[7] 	0
scalar dtelecom_network.node[8].core_layer 	interests[8] 	13397
scalar dtelecom_network.node[8].core_layer 	data[8] 	8949
scalar dtelecom_network.node[8].content_store 	p_hit[8] 	0.33201463014108
scalar dtelecom_network.node[8].content_store 	hits[8] 	4448
scalar dtelecom_network.node[8].content_store 	misses[8] 	8949
scalar dtelecom_network.node[8].content_store 	decision_yes[8] 	147
scalar dtelecom_network.node[8].content_store 	decision_no[8] 	8802
scalar dtelecom_network.node[8].content_store 	decision_ratio[8] 	0.01642641635937
scalar dtelecom_network.node[9].core_layer 	interests[9] 	14757
scalar dtelecom_network.node[9].core_layer 	data[9] 	9520
scalar dtelecom_network.node[9].content_store 	p_hit[9] 	0.35467913532561
scalar dtelecom_network.node[9].content_store 	hits[9] 	5234
scalar dtelecom_network.node[9].content_store 	misses[9] 	9523
scalar dtelecom_network.node[9].content_store 	decision_yes[9] 	199
scalar dtelecom_network.node[9].content_store 	decision_no[9] 	9321
scalar dtelecom_network.node[9].content_store 	decision_ratio[9] 	0.020903361344538
scalar dtelecom_network.node[10].core_layer 	interests[10] 	12949
scalar dtelecom_network.node[10].core_layer 	repo_load[10] 	11085
scalar dtelecom_network.node[10].core_layer 	data[10] 	0
scalar dtelecom_network.node[10].content_store 	p_hit[10] 	0.14394933971735
scalar dtelecom_network.node[10].content_store 	hits[10] 	1864
scalar dtelecom_network.node[10].content_store 	misses[10] 	11085
scalar dtelecom_network.node[10].content_store 	decision_yes[10] 	488
scalar dtelecom_network.node[10].content_store 	decision_no[10] 	10597
scalar dtelecom_network.node[10].content_store 	decision_ratio[10] 	0.044023455119531
scalar dtelecom_network.node[11].core_layer 	interests[11] 	0
scalar dtelecom_network.node[11].core_layer 	data[11] 	0
scalar dtelecom_network.node[11].content_store 	p_hit[11] 	-nan
scalar dtelecom_network.node[11].content_store 	hits[11] 	0
scalar dtelecom_network.node[11].content_store 	misses[11] 	0
scalar dtelecom_network.node[11].content_store 	decision_yes[11] 	0
scalar dtelecom_network.node[11].content_store 	decision_no[11] 	0
scalar dtelecom_network.node[11].content_store 	decision_ratio[11] 	0
scalar dtelecom_network.node[12].core_layer 	interests[12] 	0
scalar dtelecom_network.node[12].core_layer 	data[12] 	0
scalar dtelecom_network.node[12].content_store 	p_hit[12] 	-nan
scalar dtelecom_network.node[12].content_store 	hits[12] 	0
scalar dtelecom_network.node[12].content_store 	misses[12] 	0
scalar dtelecom_network.node[12].content_store 	decision_yes[12] 	0
scalar dtelecom_network.node[12].content_store 	decision_no[12] 	0
scalar dtelecom_network.node[12].content_store 	decision_ratio[12] 	0
scalar dtelecom_network.node[13].core_layer 	interests[13] 	0
scalar dtelecom_network.node[13].core_layer 	data[13] 	0
scalar dtelecom_network.node[13].content_store 	p_hit[13] 	-nan
scalar dtelecom_network.node[13].content_store 	hits[13] 	0
scalar dtelecom_network.node[13].content_store 	misses[13] 	0
scalar dtelecom_network.node[13].content_store 	decision_yes[13] 	0
scalar dtelecom_network.node[13].content_store 	decision_no[13] 	0
scalar dtelecom_network.node[13].content_store 	decision_ratio[13] 	0
scalar dtelecom_network.node[14].core_layer 	interests[14] 	0
scalar dtelecom_network.node[14].core_layer 	data[14] 	0
scalar dtelecom_network.node[14].content_store 	p_hit[14] 	-nan
scalar dtelecom_network.node[14].content_store 	hits[14] 	0
scalar dtelecom_network.node[14].content_store 	misses[14] 	0
scalar dtelecom_network.node[14].content_store 	decision_yes[14] 	0
scalar dtelecom_network.node[14].content_store 	decision_no[14] 	0
scalar dtelecom_network.node[14].content_store 	decision_ratio[14] 	0
scalar dtelecom_network.node[15].core_layer 	interests[15] 	0
scalar dtelecom_network.node[15].core_layer 	data[15] 	0
scalar dtelecom_network.node[15].content_store 	p_hit[15] 	-nan
scalar dtelecom_network.node[15].content_store 	hits[15] 	0
scalar dtelecom_network.node[15].content_store 	misses[15] 	0
scalar dtelecom_network.node[15].content_store 	decision_yes[15] 	0
scalar dtelecom_network.node[15].content_store 	decision_no[15] 	0
scalar dtelecom_network.node[15].content_store 	decision_ratio[15] 	0
scalar dtelecom_network.node[16].core_layer 	interests[16] 	13227
scalar dtelecom_network.node[16].core_layer 	repo_load[16] 	11061
scalar dtelecom_network.node[16].core_layer 	data[16] 	0
scalar dtelecom_network.node[16].content_store 	p_hit[16] 	0.163755953731
scalar dtelecom_network.node[16].content_store 	hits[16] 	2166
scalar dtelecom_network.node[16].content_store 	misses[16] 	11061
scalar dtelecom_network.node[16].content_store 	decision_yes[16] 	481
scalar dtelecom_network.node[16].content_store 	decision_no[16] 	10580
scalar dtelecom_network.node[16].content_store 	decision_ratio[16] 	0.043486122412078
scalar dtelecom_network.node[17].core_layer 	interests[17] 	13373
scalar dtelecom_network.node[17].core_layer 	data[17] 	8974
scalar dtelecom_network.node[17].content_store 	p_hit[17] 	0.32894638450609
scalar dtelecom_network.node[17].content_store 	hits[17] 	4399
scalar dtelecom_network.node[17].content_store 	misses[17] 	8974
scalar dtelecom_network.node[17].content_store 	decision_yes[17] 	171
scalar dtelecom_network.node[17].content_store 	decision_no[17] 	8803
scalar dtelecom_network.node[17].content_store 	decision_ratio[17] 	0.019055047916202
scalar dtelecom_network.node[18].core_layer 	interests[18] 	12939
scalar dtelecom_network.node[18].core_layer 	repo_load[18] 	11177
scalar dtelecom_network.node[18].core_layer 	data[18] 	0
scalar dtelecom_network.node[18].content_store 	p_hit[18] 	0.13617744802535
scalar dtelecom_network.node[18].content_store 	hits[18] 	1762
scalar dtelecom_network.node[18].content_store 	misses[18] 	11177
scalar dtelecom_network.node[18].content_store 	decision_yes[18] 	514
scalar dtelecom_network.node[18].content_store 	decision_no[18] 	10663
scalar dtelecom_network.node[18].content_store 	decision_ratio[18] 	0.045987295338642
scalar dtelecom_network.node[19].core_layer 	interests[19] 	0
scalar dtelecom_network.node[19].core_layer 	data[19] 	0
scalar dtelecom_network.node[19].content_store 	p_hit[19] 	-nan
scalar dtelecom_network.node[19].content_store 	hits[19] 	0
scalar dtelecom_network.node[19].content_store 	misses[19] 	0
scalar dtelecom_network.node[19].content_store 	decision_yes[19] 	0
scalar dtelecom_network.node[19].content_store 	decision_no[19] 	0
scalar dtelecom_network.node[19].content_store 	decision_ratio[19] 	0
scalar dtelecom_network.node[20].core_layer 	interests[20] 	0
scalar dtelecom_network.node[20].core_layer 	data[20] 	0
scalar dtelecom_network.node[20].content_store 	p_hit[20] 	-nan
scalar dtelecom_network.node[20].content_store 	hits[20] 	0
scalar dtelecom_network.node[20].content_store 	misses[20] 	0
scalar dtelecom_network.node[20].content_store 	decision_yes[20] 	0
scalar dtelecom_network.node[20].content_store 	decision_no[20] 	0
scalar dtelecom_network.node[20].content_store 	decision_ratio[20] 	0
scalar dtelecom_network.node[21].core_layer 	interests[21] 	0
scalar dtelecom_network.node[21].core_layer 	data[21] 	0
scalar dtelecom_network.node[21].content_store 	p_hit[21] 	-nan
scalar dtelecom_network.node[21].content_store 	hits[21] 	0
scalar dtelecom_network.node[21].content_store 	misses[21] 	0
scalar dtelecom_network.node[21].content_store 	decision_yes[21] 	0
scalar dtelecom_network.node[21].content_store 	decision_no[21] 	0
scalar dtelecom_network.node[21].content_store 	decision_ratio[21] 	0
scalar dtelecom_network.node[22].core_layer 	interests[22] 	13171
scalar dtelecom_network.node[22].core_layer 	data[22] 	8879
scalar dtelecom_network.node[22].content_store 	p_hit[22] 	0.32594336041303
scalar dtelecom_network.node[22].content_store 	hits[22] 	4293
scalar dtelecom_network.node[22].content_store 	misses[22] 	8878
scalar dtelecom_network.node[22].content_store 	decision_yes[22] 	172
scalar dtelecom_network.node[22].content_store 	decision_no[22] 	8707
scalar dtelecom_network.node[22].content_store 	decision_ratio[22] 	0.019371550850321
scalar dtelecom_network.node[23].core_layer 	interests[23] 	37733
scalar dtelecom_network.node[23].core_layer 	repo_load[23] 	13123
scalar dtelecom_network.node[23].core_layer 	data[23] 	18329
scalar dtelecom_network.node[23].content_store 	p_hit[23] 	0.1663265576551
scalar dtelecom_network.node[23].content_store 	hits[23] 	6276
scalar dtelecom_network.node[23].content_store 	misses[23] 	31457
scalar dtelecom_network.node[23].content_store 	decision_yes[23] 	543
scalar dtelecom_network.node[23].content_store 	decision_no[23] 	30909
scalar dtelecom_network.node[23].content_store 	decision_ratio[23] 	0.017264402899657
scalar dtelecom_network.node[24].core_layer 	interests[24] 	13924
scalar dtelecom_network.node[24].core_layer 	repo_load[24] 	11734
scalar dtelecom_network.node[24].core_layer 	data[24] 	0
scalar dtelecom_network.node[24].content_store 	p_hit[24] 	0.15728239011778
scalar dtelecom_network.node[24].content_store 	hits[24] 	2190
scalar dtelecom_network.node[24].content_store 	misses[24] 	11734
scalar dtelecom_network.node[24].content_store 	decision_yes[24] 	522
scalar dtelecom_network.node[24].content_store 	decision_no[24] 	11212
scalar dtelecom_network.node[24].content_store 	decision_ratio[24] 	0.044486108743821
scalar dtelecom_network.node[25].core_layer 	interests[25] 	13202
scalar dtelecom_network.node[25].core_layer 	repo_load[25] 	11289
scalar dtelecom_network.node[25].core_layer 	data[25] 	0
scalar dtelecom_network.node[25].content_store 	p_hit[25] 	0.14490228753219
scalar dtelecom_network.node[25].content_store 	hits[25] 	1913
scalar dtelecom_network.node[25].content_store 	misses[25] 	11289
scalar dtelecom_network.node[25].content_store 	decision_yes[25] 	488
scalar dtelecom_network.node[25].content_store 	decision_no[25] 	10801
scalar dtelecom_network.node[25].content_store 	decision_ratio[25] 	0.04322792098503
scalar dtelecom_network.node[26].core_layer 	interests[26] 	4500
scalar dtelecom_network.node[26].core_layer 	data[26] 	1643
scalar dtelecom_network.node[26].content_store 	p_hit[26] 	0.63488888888889
scalar dtelecom_network.node[26].content_store 	hits[26] 	2857
scalar dtelecom_network.node[26].content_store 	misses[26] 	1643
scalar dtelecom_network.node[26].content_store 	decision_yes[26] 	23
scalar dtelecom_network.node[26].content_store 	decision_no[26] 	1620
scalar dtelecom_network.node[26].content_store 	decision_ratio[26] 	0.013998782714547
scalar dtelecom_network.node[27].core_layer 	interests[27] 	13781
scalar dtelecom_network.node[27].core_layer 	repo_load[27] 	11607
scalar dtelecom_network.node[27].core_layer 	data[27] 	0
scalar dtelecom_network.node[27].content_store 	p_hit[27] 	0.15775342863363
scalar dtelecom_network.node[27].content_store 	hits[27] 	2174
scalar dtelecom_network.node[27].content_store 	misses[27] 	11607
scalar dtelecom_network.node[27].content_store 	decision_yes[27] 	543
scalar dtelecom_network.node[27].content_store 	decision_no[27] 	11064
scalar dtelecom_network.node[27].content_store 	decision_ratio[27] 	0.046782114241406
scalar dtelecom_network.node[28].core_layer 	interests[28] 	24999
scalar dtelecom_network.node[28].core_layer 	repo_load[28] 	11958
scalar dtelecom_network.node[28].core_layer 	data[28] 	8751
scalar dtelecom_network.node[28].content_store 	p_hit[28] 	0.17156686267451
scalar dtelecom_network.node[28].content_store 	hits[28] 	4289
scalar dtelecom_network.node[28].content_store 	misses[28] 	20710
scalar dtelecom_network.node[28].content_store 	decision_yes[28] 	469
scalar dtelecom_network.node[28].content_store 	decision_no[28] 	20240
scalar dtelecom_network.node[28].content_store 	decision_ratio[28] 	0.022647158240379
scalar dtelecom_network.node[29].core_layer 	interests[29] 	0
scalar dtelecom_network.node[29].core_layer 	data[29] 	0
scalar dtelecom_network.node[29].content_store 	p_hit[29] 	-nan
scalar dtelecom_network.node[29].content_store 	hits[29] 	0
scalar dtelecom_network.node[29].content_store 	misses[29] 	0
scalar dtelecom_network.node[29].content_store 	decision_yes[29] 	0
scalar dtelecom_network.node[29].content_store 	decision_no[29] 	0
scalar dtelecom_network.node[29].content_store 	decision_ratio[29] 	0
scalar dtelecom_network.node[30].core_layer 	interests[30] 	12850
scalar dtelecom_network.node[30].core_layer 	data[30] 	8834
scalar dtelecom_network.node[30].content_store 	p_hit[30] 	0.31252918287938
scalar dtelecom_network.node[30].content_store 	hits[30] 	4016
scalar dtelecom_network.node[30].content_store 	misses[30] 	8834
scalar dtelecom_network.node[30].content_store 	decision_yes[30] 	177
scalar dtelecom_network.node[30].content_store 	decision_no[30] 	8657
scalar dtelecom_network.node[30].content_store 	decision_ratio[30] 	0.020036223681232
scalar dtelecom_network.node[31].core_layer 	interests[31] 	25103
scalar dtelecom_network.node[31].core_layer 	repo_load[31] 	12008
scalar dtelecom_network.node[31].core_layer 	data[31] 	8796
scalar dtelecom_network.node[31].content_store 	p_hit[31] 	0.17117475998885
scalar dtelecom_network.node[31].content_store 	hits[31] 	4297
scalar dtelecom_network.node[31].content_store 	misses[31] 	20806
scalar dtelecom_network.node[31].content_store 	decision_yes[31] 	442
scalar dtelecom_network.node[31].content_store 	decision_no[31] 	20362
scalar dtelecom_network.node[31].content_store 	decision_ratio[31] 	0.02124591424726
scalar dtelecom_network.node[32].core_layer 	interests[32] 	13487
scalar dtelecom_network.node[32].core_layer 	data[32] 	9146
scalar dtelecom_network.node[32].content_store 	p_hit[32] 	0.32186550011122
scalar dtelecom_network.node[32].content_store 	hits[32] 	4341
scalar dtelecom_network.node[32].content_store 	misses[32] 	9146
scalar dtelecom_network.node[32].content_store 	decision_yes[32] 	187
scalar dtelecom_network.node[32].content_store 	decision_no[32] 	8959
scalar dtelecom_network.node[32].content_store 	decision_ratio[32] 	0.020446096654275
scalar dtelecom_network.node[33].core_layer 	interests[33] 	13750
scalar dtelecom_network.node[33].core_layer 	data[33] 	8761
scalar dtelecom_network.node[33].content_store 	p_hit[33] 	0.36283636363636
scalar dtelecom_network.node[33].content_store 	hits[33] 	4989
scalar dtelecom_network.node[33].content_store 	misses[33] 	8761
scalar dtelecom_network.node[33].content_store 	decision_yes[33] 	140
scalar dtelecom_network.node[33].content_store 	decision_no[33] 	8621
scalar dtelecom_network.node[33].content_store 	decision_ratio[33] 	0.015979910969067
scalar dtelecom_network.node[34].core_layer 	interests[34] 	0
scalar dtelecom_network.node[34].core_layer 	data[34] 	0
scalar dtelecom_network.node[34].content_store 	p_hit[34] 	-nan
scalar dtelecom_network.node[34].content_store 	hits[34] 	0
scalar dtelecom_network.node[34].content_store 	misses[34] 	0
scalar dtelecom_network.node[34].content_store 	decision_yes[34] 	0
scalar dtelecom_network.node[34].content_store 	decision_no[34] 	0
scalar dtelecom_network.node[34].content_store 	decision_ratio[34] 	0
scalar dtelecom_network.node[35].core_layer 	interests[35] 	0
scalar dtelecom_network.node[35].core_layer 	data[35] 	0
scalar dtelecom_network.node[35].content_store 	p_hit[35] 	-nan
scalar dtelecom_network.node[35].content_store 	hits[35] 	0
scalar dtelecom_network.node[35].content_store 	misses[35] 	0
scalar dtelecom_network.node[35].content_store 	decision_yes[35] 	0
scalar dtelecom_network.node[35].content_store 	decision_no[35] 	0
scalar dtelecom_network.node[35].content_store 	decision_ratio[35] 	0
scalar dtelecom_network.node[36].core_layer 	interests[36] 	13607
scalar dtelecom_network.node[36].core_layer 	data[36] 	8991
scalar dtelecom_network.node[36].content_store 	p_hit[36] 	0.33916366576027
scalar dtelecom_network.node[36].content_store 	hits[36] 	4615
scalar dtelecom_network.node[36].content_store 	misses[36] 	8992
scalar dtelecom_network.node[36].content_store 	decision_yes[36] 	169
scalar dtelecom_network.node[36].content_store 	decision_no[36] 	8822
scalar dtelecom_network.node[36].content_store 	decision_ratio[36] 	0.01879657435213
scalar dtelecom_network.node[37].core_layer 	interests[37] 	13661
scalar dtelecom_network.node[37].core_layer 	data[37] 	9092
scalar dtelecom_network.node[37].content_store 	p_hit[37] 	0.33438254886172
scalar dtelecom_network.node[37].content_store 	hits[37] 	4568
scalar dtelecom_network.node[37].content_store 	misses[37] 	9093
scalar dtelecom_network.node[37].content_store 	decision_yes[37] 	163
scalar dtelecom_network.node[37].content_store 	decision_no[37] 	8929
scalar dtelecom_network.node[37].content_store 	decision_ratio[37] 	0.017927848658161
scalar dtelecom_network.node[38].core_layer 	interests[38] 	0
scalar dtelecom_network.node[38].core_layer 	data[38] 	0
scalar dtelecom_network.node[38].content_store 	p_hit[38] 	-nan
scalar dtelecom_network.node[38].content_store 	hits[38] 	0
scalar dtelecom_network.node[38].content_store 	misses[38] 	0
scalar dtelecom_network.node[38].content_store 	decision_yes[38] 	0
scalar dtelecom_network.node[38].content_store 	decision_no[38] 	0
scalar dtelecom_network.node[38].content_store 	decision_ratio[38] 	0
scalar dtelecom_network.node[39].core_layer 	interests[39] 	0
scalar dtelecom_network.node[39].core_layer 	data[39] 	0
scalar dtelecom_network.node[39].content_store 	p_hit[39] 	-nan
scalar dtelecom_network.node[39].content_store 	hits[39] 	0
scalar dtelecom_network.node[39].content_store 	misses[39] 	0
scalar dtelecom_network.node[39].content_store 	decision_yes[39] 	0
scalar dtelecom_network.node[39].content_store 	decision_no[39] 	0
scalar dtelecom_network.node[39].content_store 	decision_ratio[39] 	0
scalar dtelecom_network.node[40].core_layer 	interests[40] 	14820
scalar dtelecom_network.node[40].core_layer 	data[40] 	9002
scalar dtelecom_network.node[40].content_store 	p_hit[40] 	0.39257759784076
scalar dtelecom_network.node[40].content_store 	hits[40] 	5818
scalar dtelecom_network.node[40].content_store 	misses[40] 	9002
scalar dtelecom_network.node[40].content_store 	decision_yes[40] 	147
scalar dtelecom_network.node[40].content_store 	decision_no[40] 	8855
scalar dtelecom_network.node[40].content_store 	decision_ratio[40] 	0.016329704510109
scalar dtelecom_network.node[41].core_layer 	interests[41] 	0
scalar dtelecom_network.node[41].core_layer 	data[41] 	0
scalar dtelecom_network.node[41].content_store 	p_hit[41] 	-nan
scalar dtelecom_network.node[41].content_store 	hits[41] 	0
scalar dtelecom_network.node[41].content_store 	misses[41] 	0
scalar dtelecom_network.node[41].content_store 	decision_yes[41] 	0
scalar dtelecom_network.node[41].content_store 	decision_no[41] 	0
scalar dtelecom_network.node[41].content_store 	decision_ratio[41] 	0
scalar dtelecom_network.node[42].core_layer 	interests[42] 	25415
scalar dtelecom_network.node[42].core_layer 	repo_load[42] 	12206
scalar dtelecom_network.node[42].core_layer 	data[42] 	9037
scalar dtelecom_network.node[42].content_store 	p_hit[42] 	0.16407633287429
scalar dtelecom_network.node[42].content_store 	hits[42] 	4170
scalar dtelecom_network.node[42].content_store 	misses[42] 	21245
scalar dtelecom_network.node[42].content_store 	decision_yes[42] 	476
scalar dtelecom_network.node[42].content_store 	decision_no[42] 	20767
scalar dtelecom_network.node[42].content_store 	decision_ratio[42] 	0.022407381255002
scalar dtelecom_network.node[43].core_layer 	interests[43] 	0
scalar dtelecom_network.node[43].core_layer 	data[43] 	0
scalar dtelecom_network.node[43].content_store 	p_hit[43] 	-nan
scalar dtelecom_network.node[43].content_store 	hits[43] 	0
scalar dtelecom_network.node[43].content_store 	misses[43] 	0
scalar dtelecom_network.node[43].content_store 	decision_yes[43] 	0
scalar dtelecom_network.node[43].content_store 	decision_no[43] 	0
scalar dtelecom_network.node[43].content_store 	decision_ratio[43] 	0
scalar dtelecom_network.node[44].core_layer 	interests[44] 	12740
scalar dtelecom_network.node[44].core_layer 	repo_load[44] 	10839
scalar dtelecom_network.node[44].core_layer 	data[44] 	0
scalar dtelecom_network.node[44].content_store 	p_hit[44] 	0.14921507064364
scalar dtelecom_network.node[44].content_store 	hits[44] 	1901
scalar dtelecom_network.node[44].content_store 	misses[44] 	10839
scalar dtelecom_network.node[44].content_store 	decision_yes[44] 	411
scalar dtelecom_network.node[44].content_store 	decision_no[44] 	10428
scalar dtelecom_network.node[44].content_store 	decision_ratio[44] 	0.037918627179629
scalar dtelecom_network.node[45].core_layer 	interests[45] 	13795
scalar dtelecom_network.node[45].core_layer 	data[45] 	8927
scalar dtelecom_network.node[45].content_store 	p_hit[45] 	0.35288147879667
scalar dtelecom_network.node[45].content_store 	hits[45] 	4868
scalar dtelecom_network.node[45].content_store 	misses[45] 	8927
scalar dtelecom_network.node[45].content_store 	decision_yes[45] 	182
scalar dtelecom_network.node[45].content_store 	decision_no[45] 	8745
scalar dtelecom_network.node[45].content_store 	decision_ratio[45] 	0.020387588215526
scalar dtelecom_network.node[46].core_layer 	interests[46] 	25961
scalar dtelecom_network.node[46].core_layer 	repo_load[46] 	12572
scalar dtelecom_network.node[46].core_layer 	data[46] 	9051
scalar dtelecom_network.node[46].content_store 	p_hit[46] 	0.16694272177497
scalar dtelecom_network.node[46].content_store 	hits[46] 	4334
scalar dtelecom_network.node[46].content_store 	misses[46] 	21627
scalar dtelecom_network.node[46].content_store 	decision_yes[46] 	477
scalar dtelecom_network.node[46].content_store 	decision_no[46] 	21146
scalar dtelecom_network.node[46].content_store 	decision_ratio[46] 	0.022059843684965
scalar dtelecom_network.node[47].core_layer 	interests[47] 	0
scalar dtelecom_network.node[47].core_layer 	data[47] 	0
scalar dtelecom_network.node[47].content_store 	p_hit[47] 	-nan
scalar dtelecom_network.node[47].content_store 	hits[47] 	0
scalar dtelecom_network.node[47].content_store 	misses[47] 	0
scalar dtelecom_network.node[47].content_store 	decision_yes[47] 	0
scalar dtelecom_network.node[47].content_store 	decision_no[47] 	0
scalar dtelecom_network.node[47].content_store 	decision_ratio[47] 	0
scalar dtelecom_network.node[48].core_layer 	interests[48] 	13465
scalar dtelecom_network.node[48].core_layer 	data[48] 	9011
scalar dtelecom_network.node[48].content_store 	p_hit[48] 	0.33078351281099
scalar dtelecom_network.node[48].content_store 	hits[48] 	4454
scalar dtelecom_network.node[48].content_store 	misses[48] 	9011
scalar dtelecom_network.node[48].content_store 	decision_yes[48] 	158
scalar dtelecom_network.node[48].content_store 	decision_no[48] 	8853
scalar dtelecom_network.node[48].content_store 	decision_ratio[48] 	0.017534124958384
scalar dtelecom_network.node[49].core_layer 	interests[49] 	13459
scalar dtelecom_network.node[49].core_layer 	data[49] 	8950
scalar dtelecom_network.node[49].content_store 	p_hit[49] 	0.33494316071031
scalar dtelecom_network.node[49].content_store 	hits[49] 	4508
scalar dtelecom_network.node[49].content_store 	misses[49] 	8951
scalar dtelecom_network.node[49].content_store 	decision_yes[49] 	163
scalar dtelecom_network.node[49].content_store 	decision_no[49] 	8787
scalar dtelecom_network.node[49].content_store 	decision_ratio[49] 	0.018212290502793
scalar dtelecom_network.node[50].core_layer 	interests[50] 	13537
scalar dtelecom_network.node[50].core_layer 	data[50] 	9116
scalar dtelecom_network.node[50].content_store 	p_hit[50] 	0.32658639284923
scalar dtelecom_network.node[50].content_store 	hits[50] 	4421
scalar dtelecom_network.node[50].content_store 	misses[50] 	9116
scalar dtelecom_network.node[50].content_store 	decision_yes[50] 	163
scalar dtelecom_network.node[50].content_store 	decision_no[50] 	8953
scalar dtelecom_network.node[50].content_store 	decision_ratio[50] 	0.017880649407635
scalar dtelecom_network.node[51].core_layer 	interests[51] 	13755
scalar dtelecom_network.node[51].core_layer 	data[51] 	8914
scalar dtelecom_network.node[51].content_store 	p_hit[51] 	0.35194474736459
scalar dtelecom_network.node[51].content_store 	hits[51] 	4841
scalar dtelecom_network.node[51].content_store 	misses[51] 	8914
scalar dtelecom_network.node[51].content_store 	decision_yes[51] 	181
scalar dtelecom_network.node[51].content_store 	decision_no[51] 	8733
scalar dtelecom_network.node[51].content_store 	decision_ratio[51] 	0.020305137985192
scalar dtelecom_network.node[52].core_layer 	interests[52] 	0
scalar dtelecom_network.node[52].core_layer 	data[52] 	0
scalar dtelecom_network.node[52].content_store 	p_hit[52] 	-nan
scalar dtelecom_network.node[52].content_store 	hits[52] 	0
scalar dtelecom_network.node[52].content_store 	misses[52] 	0
scalar dtelecom_network.node[52].content_store 	decision_yes[52] 	0
scalar dtelecom_network.node[52].content_store 	decision_no[52] 	0
scalar dtelecom_network.node[52].content_store 	decision_ratio[52] 	0
scalar dtelecom_network.node[53].core_layer 	interests[53] 	13676
scalar dtelecom_network.node[53].core_layer 	data[53] 	9133
scalar dtelecom_network.node[53].content_store 	p_hit[53] 	0.33226089499854
scalar dtelecom_network.node[53].content_store 	hits[53] 	4544
scalar dtelecom_network.node[53].content_store 	misses[53] 	9132
scalar dtelecom_network.node[53].content_store 	decision_yes[53] 	159
scalar dtelecom_network.node[53].content_store 	decision_no[53] 	8974
scalar dtelecom_network.node[53].content_store 	decision_ratio[53] 	0.017409394503449
scalar dtelecom_network.node[54].core_layer 	interests[54] 	25652
scalar dtelecom_network.node[54].core_layer 	repo_load[54] 	12417
scalar dtelecom_network.node[54].core_layer 	data[54] 	8786
scalar dtelecom_network.node[54].content_store 	p_hit[54] 	0.17343676906284
scalar dtelecom_network.node[54].content_store 	hits[54] 	4449
scalar dtelecom_network.node[54].content_store 	misses[54] 	21203
scalar dtelecom_network.node[54].content_store 	decision_yes[54] 	493
scalar dtelecom_network.node[54].content_store 	decision_no[54] 	20710
scalar dtelecom_network.node[54].content_store 	decision_ratio[54] 	0.023251426684903
scalar dtelecom_network.node[55].core_layer 	interests[55] 	13563
scalar dtelecom_network.node[55].core_layer 	data[55] 	8985
scalar dtelecom_network.node[55].content_store 	p_hit[55] 	0.33746221337462
scalar dtelecom_network.node[55].content_store 	hits[55] 	4577
scalar dtelecom_network.node[55].content_store 	misses[55] 	8986
scalar dtelecom_network.node[55].content_store 	decision_yes[55] 	196
scalar dtelecom_network.node[55].content_store 	decision_no[55] 	8789
scalar dtelecom_network.node[55].content_store 	decision_ratio[55] 	0.021814134668893
scalar dtelecom_network.node[56].core_layer 	interests[56] 	13629
scalar dtelecom_network.node[56].core_layer 	data[56] 	9069
scalar dtelecom_network.node[56].content_store 	p_hit[56] 	0.33443392765427
scalar dtelecom_network.node[56].content_store 	hits[56] 	4558
scalar dtelecom_network.node[56].content_store 	misses[56] 	9071
scalar dtelecom_network.node[56].content_store 	decision_yes[56] 	146
scalar dtelecom_network.node[56].content_store 	decision_no[56] 	8923
scalar dtelecom_network.node[56].content_store 	decision_ratio[56] 	0.016098798103429
scalar dtelecom_network.node[57].core_layer 	interests[57] 	13031
scalar dtelecom_network.node[57].core_layer 	data[57] 	9042
scalar dtelecom_network.node[57].content_store 	p_hit[57] 	0.30603944440181
scalar dtelecom_network.node[57].content_store 	hits[57] 	3988
scalar dtelecom_network.node[57].content_store 	misses[57] 	9043
scalar dtelecom_network.node[57].content_store 	decision_yes[57] 	170
scalar dtelecom_network.node[57].content_store 	decision_no[57] 	8872
scalar dtelecom_network.node[57].content_store 	decision_ratio[57] 	0.018801150188012
scalar dtelecom_network.node[58].core_layer 	interests[58] 	25366
scalar dtelecom_network.node[58].core_layer 	repo_load[58] 	12104
scalar dtelecom_network.node[58].core_layer 	data[58] 	9018
scalar dtelecom_network.node[58].content_store 	p_hit[58] 	0.16734999605772
scalar dtelecom_network.node[58].content_store 	hits[58] 	4245
scalar dtelecom_network.node[58].content_store 	misses[58] 	21121
scalar dtelecom_network.node[58].content_store 	decision_yes[58] 	477
scalar dtelecom_network.node[58].content_store 	decision_no[58] 	20645
scalar dtelecom_network.node[58].content_store 	decision_ratio[58] 	0.022583088722659
scalar dtelecom_network.node[59].core_layer 	interests[59] 	15246
scalar dtelecom_network.node[59].core_layer 	data[59] 	8760
scalar dtelecom_network.node[59].content_store 	p_hit[59] 	0.42535747081202
scalar dtelecom_network.node[59].content_store 	hits[59] 	6485
scalar dtelecom_network.node[59].content_store 	misses[59] 	8761
scalar dtelecom_network.node[59].content_store 	decision_yes[59] 	155
scalar dtelecom_network.node[59].content_store 	decision_no[59] 	8605
scalar dtelecom_network.node[59].content_store 	decision_ratio[59] 	0.017694063926941
scalar dtelecom_network.node[60].core_layer 	interests[60] 	0
scalar dtelecom_network.node[60].core_layer 	data[60] 	0
scalar dtelecom_network.node[60].content_store 	p_hit[60] 	-nan
scalar dtelecom_network.node[60].content_store 	hits[60] 	0
scalar dtelecom_network.node[60].content_store 	misses[60] 	0
scalar dtelecom_network.node[60].content_store 	decision_yes[60] 	0
scalar dtelecom_network.node[60].content_store 	decision_no[60] 	0
scalar dtelecom_network.node[60].content_store 	decision_ratio[60] 	0
scalar dtelecom_network.node[61].core_layer 	interests[61] 	0
scalar dtelecom_network.node[61].core_layer 	data[61] 	0
scalar dtelecom_network.node[61].content_store 	p_hit[61] 	-nan
scalar dtelecom_network.node[61].content_store 	hits[61] 	0
scalar dtelecom_network.node[61].content_store 	misses[61] 	0
scalar dtelecom_network.node[61].content_store 	decision_yes[61] 	0
scalar dtelecom_network.node[61].content_store 	decision_no[61] 	0
scalar dtelecom_network.node[61].content_store 	decision_ratio[61] 	0
scalar dtelecom_network.node[62].core_layer 	interests[62] 	12649
scalar dtelecom_network.node[62].core_layer 	data[62] 	8869
scalar dtelecom_network.node[62].content_store 	p_hit[62] 	0.29860067989564
scalar dtelecom_network.node[62].content_store 	hits[62] 	3777
scalar dtelecom_network.node[62].content_store 	misses[62] 	8872
scalar dtelecom_network.node[62].content_store 	decision_yes[62] 	144
scalar dtelecom_network.node[62].content_store 	decision_no[62] 	8725
scalar dtelecom_network.node[62].content_store 	decision_ratio[62] 	0.016236328785658
scalar dtelecom_network.node[63].core_layer 	interests[63] 	0
scalar dtelecom_network.node[63].core_layer 	data[63] 	0
scalar dtelecom_network.node[63].content_store 	p_hit[63] 	-nan
scalar dtelecom_network.node[63].content_store 	hits[63] 	0
scalar dtelecom_network.node[63].content_store 	misses[63] 	0
scalar dtelecom_network.node[63].content_store 	decision_yes[63] 	0
scalar dtelecom_network.node[63].content_store 	decision_no[63] 	0
scalar dtelecom_network.node[63].content_store 	decision_ratio[63] 	0
scalar dtelecom_network.node[64].core_layer 	interests[64] 	0
scalar dtelecom_network.node[64].core_layer 	data[64] 	0
scalar dtelecom_network.node[64].content_store 	p_hit[64] 	-nan
scalar dtelecom_network.node[64].content_store 	hits[64] 	0
scalar dtelecom_network.node[64].content_store 	misses[64] 	0
scalar dtelecom_network.node[64].content_store 	decision_yes[64] 	0
scalar dtelecom_network.node[64].content_store 	decision_no[64] 	0
scalar dtelecom_network.node[64].content_store 	decision_ratio[64] 	0
scalar dtelecom_network.node[65].core_layer 	interests[65] 	13578
scalar dtelecom_network.node[65].core_layer 	repo_load[65] 	11660
scalar dtelecom_network.node[65].core_layer 	data[65] 	82
scalar dtelecom_network.node[65].content_store 	p_hit[65] 	0.1352187361909
scalar dtelecom_network.node[65].content_store 	hits[65] 	1836
scalar dtelecom_network.node[65].content_store 	misses[65] 	11742
scalar dtelecom_network.node[65].content_store 	decision_yes[65] 	526
scalar dtelecom_network.node[65].content_store 	decision_no[65] 	11216
scalar dtelecom_network.node[65].content_store 	decision_ratio[65] 	0.044796457162323
scalar dtelecom_network.node[66].core_layer 	interests[66] 	12860
scalar dtelecom_network.node[66].core_layer 	data[66] 	8954
scalar dtelecom_network.node[66].content_store 	p_hit[66] 	0.30342146189736
scalar dtelecom_network.node[66].content_store 	hits[66] 	3902
scalar dtelecom_network.node[66].content_store 	misses[66] 	8958
scalar dtelecom_network.node[66].content_store 	decision_yes[66] 	119
scalar dtelecom_network.node[66].content_store 	decision_no[66] 	8835
scalar dtelecom_network.node[66].content_store 	decision_ratio[66] 	0.013290149653786
scalar dtelecom_network.node[67].core_layer 	interests[67] 	12946
scalar dtelecom_network.node[67].core_layer 	data[67] 	8851
scalar dtelecom_network.node[67].content_store 	p_hit[67] 	0.31623667542098
scalar dtelecom_network.node[67].content_store 	hits[67] 	4094
scalar dtelecom_network.node[67].content_store 	misses[67] 	8852
scalar dtelecom_network.node[67].content_store 	decision_yes[67] 	134
scalar dtelecom_network.node[67].content_store 	decision_no[67] 	8717
scalar dtelecom_network.node[67].content_store 	decision_ratio[67] 	0.015139532256242
scalar dtelecom_network.client[3] 	hdistance[3] 	1.262657435983
scalar dtelecom_network.client[3] 	downloads[3] 	11989
scalar dtelecom_network.client[3] 	avg_time[3] 	0.008047808311
scalar dtelecom_network.client[4] 	hdistance[4] 	1.3138337936229
scalar dtelecom_network.client[4] 	downloads[4] 	11949
scalar dtelecom_network.client[4] 	avg_time[4] 	0.049647344587
scalar dtelecom_network.client[8] 	hdistance[8] 	1.8602417618811
scalar dtelecom_network.client[8] 	downloads[8] 	12078
scalar dtelecom_network.client[8] 	avg_time[8] 	0.012637996136
scalar dtelecom_network.client[9] 	hdistance[9] 	1.7806092803188
scalar dtelecom_network.client[9] 	downloads[9] 	12047
scalar dtelecom_network.client[9] 	avg_time[9] 	0.012647807603
scalar dtelecom_network.client[17] 	hdistance[17] 	1.8663710149778
scalar dtelecom_network.client[17] 	downloads[17] 	11951
scalar dtelecom_network.client[17] 	avg_time[17] 	0.011361285593
scalar dtelecom_network.client[22] 	hdistance[22] 	1.844632531635
scalar dtelecom_network.client[22] 	downloads[22] 	11933
scalar dtelecom_network.client[22] 	avg_time[22] 	0.012105724164
scalar dtelecom_network.client[23] 	hdistance[23] 	1.6255947497949
scalar dtelecom_network.client[23] 	downloads[23] 	12190
scalar dtelecom_network.client[23] 	avg_time[23] 	0.010226981515
scalar dtelecom_network.client[28] 	hdistance[28] 	1.8072075120548
scalar dtelecom_network.client[28] 	downloads[28] 	11821
scalar dtelecom_network.client[28] 	avg_time[28] 	0.015297422505
scalar dtelecom_network.client[30] 	hdistance[30] 	1.8269311591157
scalar dtelecom_network.client[30] 	downloads[30] 	11897
scalar dtelecom_network.client[30] 	avg_time[30] 	0.012393587596
scalar dtelecom_network.client[31] 	hdistance[31] 	1.7711367821865
scalar dtelecom_network.client[31] 	downloads[31] 	11946
scalar dtelecom_network.client[31] 	avg_time[31] 	0.014515955902
scalar dtelecom_network.client[32] 	hdistance[32] 	1.8435268040391
scalar dtelecom_network.client[32] 	downloads[32] 	12181
scalar dtelecom_network.client[32] 	avg_time[32] 	0.010558254747
scalar dtelecom_network.client[33] 	hdistance[33] 	1.7453605626642
scalar dtelecom_network.client[33] 	downloads[33] 	11801
scalar dtelecom_network.client[33] 	avg_time[33] 	0.011116426698
scalar dtelecom_network.client[36] 	hdistance[36] 	1.8217150417597
scalar dtelecom_network.client[36] 	downloads[36] 	12093
scalar dtelecom_network.client[36] 	avg_time[36] 	0.012142195287
scalar dtelecom_network.client[37] 	hdistance[37] 	1.8168143072037
scalar dtelecom_network.client[37] 	downloads[37] 	11966
scalar dtelecom_network.client[37] 	avg_time[37] 	0.01249706235
scalar dtelecom_network.client[40] 	hdistance[40] 	1.6857400870208
scalar dtelecom_network.client[40] 	downloads[40] 	12181
scalar dtelecom_network.client[40] 	avg_time[40] 	0.012354857334
scalar dtelecom_network.client[42] 	hdistance[42] 	1.8180851933611
scalar dtelecom_network.client[42] 	downloads[42] 	12231
scalar dtelecom_network.client[42] 	avg_time[42] 	0.013813954307
scalar dtelecom_network.client[45] 	hdistance[45] 	1.7835876907681
scalar dtelecom_network.client[45] 	downloads[45] 	11991
scalar dtelecom_network.client[45] 	avg_time[45] 	0.012949292753
scalar dtelecom_network.client[46] 	hdistance[46] 	1.7974528532941
scalar dtelecom_network.client[46] 	downloads[46] 	12249
scalar dtelecom_network.client[46] 	avg_time[46] 	0.013512634844
scalar dtelecom_network.client[48] 	hdistance[48] 	1.8825789209955
scalar dtelecom_network.client[48] 	downloads[48] 	11974
scalar dtelecom_network.client[48] 	avg_time[48] 	0.012780078284
scalar dtelecom_network.client[49] 	hdistance[49] 	1.8443439671774
scalar dtelecom_network.client[49] 	downloads[49] 	11943
scalar dtelecom_network.client[49] 	avg_time[49] 	0.011662629601
scalar dtelecom_network.client[50] 	hdistance[50] 	1.8232882328823
scalar dtelecom_network.client[50] 	downloads[50] 	12195
scalar dtelecom_network.client[50] 	avg_time[50] 	0.011429103275
scalar dtelecom_network.client[51] 	hdistance[51] 	1.7086974615064
scalar dtelecom_network.client[51] 	downloads[51] 	12015
scalar dtelecom_network.client[51] 	avg_time[51] 	0.011718003978
scalar dtelecom_network.client[53] 	hdistance[53] 	1.8445481335953
scalar dtelecom_network.client[53] 	downloads[53] 	12216
scalar dtelecom_network.client[53] 	avg_time[53] 	0.010721741541
scalar dtelecom_network.client[54] 	hdistance[54] 	1.7211675169357
scalar dtelecom_network.client[54] 	downloads[54] 	11957
scalar dtelecom_network.client[54] 	avg_time[54] 	0.012274686009
scalar dtelecom_network.client[55] 	hdistance[55] 	1.8285189514109
scalar dtelecom_network.client[55] 	downloads[55] 	11978
scalar dtelecom_network.client[55] 	avg_time[55] 	0.016096505787
scalar dtelecom_network.client[56] 	hdistance[56] 	1.8112172829248
scalar dtelecom_network.client[56] 	downloads[56] 	12035
scalar dtelecom_network.client[56] 	avg_time[56] 	0.011372281172
scalar dtelecom_network.client[57] 	hdistance[57] 	1.8414279784143
scalar dtelecom_network.client[57] 	downloads[57] 	12045
scalar dtelecom_network.client[57] 	avg_time[57] 	0.010599947735
scalar dtelecom_network.client[58] 	hdistance[58] 	1.8062355276216
scalar dtelecom_network.client[58] 	downloads[58] 	12092
scalar dtelecom_network.client[58] 	avg_time[58] 	0.014828669949
scalar dtelecom_network.client[59] 	hdistance[59] 	1.6463252411041
scalar dtelecom_network.client[59] 	downloads[59] 	12028
scalar dtelecom_network.client[59] 	avg_time[59] 	0.054195817969
scalar dtelecom_network.client[62] 	hdistance[62] 	2.1523140011716
scalar dtelecom_network.client[62] 	downloads[62] 	11949
scalar dtelecom_network.client[62] 	avg_time[62] 	0.052380034649
scalar dtelecom_network.client[66] 	hdistance[66] 	1.968806883998
scalar dtelecom_network.client[66] 	downloads[66] 	12086
scalar dtelecom_network.client[66] 	avg_time[66] 	0.089871467396
scalar dtelecom_network.client[67] 	hdistance[67] 	1.9496140117872
scalar dtelecom_network.client[67] 	downloads[67] 	12047
scalar dtelecom_network.client[67] 	avg_time[67] 	0.074276253741
