version 2
run General-110-20160820-04:32:34-14346
attr a 0.9
attr cd fix0.1
attr configname General
attr cr lru
attr datetime 20160820-04:32:34
attr experiment General
attr fsize 1
attr inifile hw5115/scenario_A/SPR-FIX0.1.ini
attr iterationvars "$name=tree_4_3, $un=05, $rep=11, $cd=fix0.1, $cr=lru, $fsize=1, $a=0.9, $sl=spr, $ttl=1000, $variance=0.05"
attr iterationvars2 "$name=tree_4_3, $un=05, $rep=11, $cd=fix0.1, $cr=lru, $fsize=1, $a=0.9, $sl=spr, $ttl=1000, $variance=0.05, $repetition=0"
attr measurement "$name=tree_4_3, $un=05, $rep=11, $cd=fix0.1, $cr=lru, $fsize=1, $a=0.9, $sl=spr, $ttl=1000, $variance=0.05"
attr name tree_4_3
attr network networks.${name}_u${un}_r${rep}_network
attr processid 14346
attr rep 11
attr repetition 0
attr replication #0
attr resultdir results
attr runnumber 110
attr seedset 11
attr sl spr
attr ttl 1000
attr un 05
attr variance 0.05

scalar . 	a 	0.9
scalar . 	fsize 	1
scalar . 	rep 	11
scalar . 	ttl 	1000
scalar . 	un 	05
scalar . 	variance 	0.05
scalar tree_4_3_u05_r11_network.content_distribution 	repo-0 	0
scalar tree_4_3_u05_r11_network.content_distribution 	client-0 	13
scalar tree_4_3_u05_r11_network.content_distribution 	client-1 	14
scalar tree_4_3_u05_r11_network.content_distribution 	client-2 	15
scalar tree_4_3_u05_r11_network.content_distribution 	client-3 	16
scalar tree_4_3_u05_r11_network.content_distribution 	client-4 	17
scalar tree_4_3_u05_r11_network.content_distribution 	client-5 	18
scalar tree_4_3_u05_r11_network.content_distribution 	client-6 	19
scalar tree_4_3_u05_r11_network.content_distribution 	client-7 	20
scalar tree_4_3_u05_r11_network.content_distribution 	client-8 	21
scalar tree_4_3_u05_r11_network.content_distribution 	client-9 	22
scalar tree_4_3_u05_r11_network.content_distribution 	client-10 	23
scalar tree_4_3_u05_r11_network.content_distribution 	client-11 	24
scalar tree_4_3_u05_r11_network.content_distribution 	client-12 	25
scalar tree_4_3_u05_r11_network.content_distribution 	client-13 	26
scalar tree_4_3_u05_r11_network.content_distribution 	client-14 	27
scalar tree_4_3_u05_r11_network.content_distribution 	client-15 	28
scalar tree_4_3_u05_r11_network.content_distribution 	client-16 	29
scalar tree_4_3_u05_r11_network.content_distribution 	client-17 	30
scalar tree_4_3_u05_r11_network.content_distribution 	client-18 	31
scalar tree_4_3_u05_r11_network.content_distribution 	client-19 	32
scalar tree_4_3_u05_r11_network.content_distribution 	client-20 	33
scalar tree_4_3_u05_r11_network.content_distribution 	client-21 	34
scalar tree_4_3_u05_r11_network.content_distribution 	client-22 	35
scalar tree_4_3_u05_r11_network.content_distribution 	client-23 	36
scalar tree_4_3_u05_r11_network.content_distribution 	client-24 	37
scalar tree_4_3_u05_r11_network.content_distribution 	client-25 	38
scalar tree_4_3_u05_r11_network.content_distribution 	client-26 	39
scalar tree_4_3_u05_r11_network.content_distribution 	repo-0_card 	100000
scalar tree_4_3_u05_r11_network.content_distribution 	repo-0_price 	0
scalar tree_4_3_u05_r11_network.statistics 	stabilization_time 	914.7
scalar tree_4_3_u05_r11_network.statistics 	p_hit 	0.14956500413862
scalar tree_4_3_u05_r11_network.statistics 	interests 	26749.925
scalar tree_4_3_u05_r11_network.statistics 	data 	18662.8
scalar tree_4_3_u05_r11_network.statistics 	hdistance 	3.0430466003036
scalar tree_4_3_u05_r11_network.statistics 	avg_time 	0.00461563684
scalar tree_4_3_u05_r11_network.statistics 	downloads 	323477
scalar tree_4_3_u05_r11_network.statistics 	total_cost 	0
scalar tree_4_3_u05_r11_network.statistics 	total_replicas 	100000
scalar tree_4_3_u05_r11_network.statistics 	inner_hit 	0.26487200017312
scalar tree_4_3_u05_r11_network.node[0].core_layer 	interests[0] 	242182
scalar tree_4_3_u05_r11_network.node[0].core_layer 	repo_load[0] 	237797
scalar tree_4_3_u05_r11_network.node[0].core_layer 	data[0] 	0
scalar tree_4_3_u05_r11_network.node[0].core_layer 	repo_int[0] 	237797
scalar tree_4_3_u05_r11_network.node[0].content_store 	p_hit[0] 	0.018106217637975
scalar tree_4_3_u05_r11_network.node[0].content_store 	hits[0] 	4385
scalar tree_4_3_u05_r11_network.node[0].content_store 	misses[0] 	237797
scalar tree_4_3_u05_r11_network.node[0].content_store 	decision_yes[0] 	23597
scalar tree_4_3_u05_r11_network.node[0].content_store 	decision_no[0] 	214200
scalar tree_4_3_u05_r11_network.node[0].content_store 	decision_ratio[0] 	0.099231697624444
scalar tree_4_3_u05_r11_network.node[1].core_layer 	interests[1] 	146880
scalar tree_4_3_u05_r11_network.node[1].core_layer 	data[1] 	143565
scalar tree_4_3_u05_r11_network.node[1].content_store 	p_hit[1] 	0.022501361655773
scalar tree_4_3_u05_r11_network.node[1].content_store 	hits[1] 	3305
scalar tree_4_3_u05_r11_network.node[1].content_store 	misses[1] 	143575
scalar tree_4_3_u05_r11_network.node[1].content_store 	decision_yes[1] 	14236
scalar tree_4_3_u05_r11_network.node[1].content_store 	decision_no[1] 	129329
scalar tree_4_3_u05_r11_network.node[1].content_store 	decision_ratio[1] 	0.099160658934977
scalar tree_4_3_u05_r11_network.node[2].core_layer 	interests[2] 	73291
scalar tree_4_3_u05_r11_network.node[2].core_layer 	data[2] 	71763
scalar tree_4_3_u05_r11_network.node[2].content_store 	p_hit[2] 	0.020821110368258
scalar tree_4_3_u05_r11_network.node[2].content_store 	hits[2] 	1526
scalar tree_4_3_u05_r11_network.node[2].content_store 	misses[2] 	71765
scalar tree_4_3_u05_r11_network.node[2].content_store 	decision_yes[2] 	7269
scalar tree_4_3_u05_r11_network.node[2].content_store 	decision_no[2] 	64494
scalar tree_4_3_u05_r11_network.node[2].content_store 	decision_ratio[2] 	0.10129175201706
scalar tree_4_3_u05_r11_network.node[3].core_layer 	interests[3] 	27554
scalar tree_4_3_u05_r11_network.node[3].core_layer 	data[3] 	26854
scalar tree_4_3_u05_r11_network.node[3].content_store 	p_hit[3] 	0.025404659940481
scalar tree_4_3_u05_r11_network.node[3].content_store 	hits[3] 	700
scalar tree_4_3_u05_r11_network.node[3].content_store 	misses[3] 	26854
scalar tree_4_3_u05_r11_network.node[3].content_store 	decision_yes[3] 	2708
scalar tree_4_3_u05_r11_network.node[3].content_store 	decision_no[3] 	24146
scalar tree_4_3_u05_r11_network.node[3].content_store 	decision_ratio[3] 	0.10084158784539
scalar tree_4_3_u05_r11_network.node[4].core_layer 	interests[4] 	38334
scalar tree_4_3_u05_r11_network.node[4].core_layer 	data[4] 	36970
scalar tree_4_3_u05_r11_network.node[4].content_store 	p_hit[4] 	0.035581989878437
scalar tree_4_3_u05_r11_network.node[4].content_store 	hits[4] 	1364
scalar tree_4_3_u05_r11_network.node[4].content_store 	misses[4] 	36970
scalar tree_4_3_u05_r11_network.node[4].content_store 	decision_yes[4] 	3756
scalar tree_4_3_u05_r11_network.node[4].content_store 	decision_no[4] 	33214
scalar tree_4_3_u05_r11_network.node[4].content_store 	decision_ratio[4] 	0.10159588855829
scalar tree_4_3_u05_r11_network.node[5].core_layer 	interests[5] 	38005
scalar tree_4_3_u05_r11_network.node[5].core_layer 	data[5] 	36652
scalar tree_4_3_u05_r11_network.node[5].content_store 	p_hit[5] 	0.03554795421655
scalar tree_4_3_u05_r11_network.node[5].content_store 	hits[5] 	1351
scalar tree_4_3_u05_r11_network.node[5].content_store 	misses[5] 	36654
scalar tree_4_3_u05_r11_network.node[5].content_store 	decision_yes[5] 	3654
scalar tree_4_3_u05_r11_network.node[5].content_store 	decision_no[5] 	32998
scalar tree_4_3_u05_r11_network.node[5].content_store 	decision_ratio[5] 	0.099694423223835
scalar tree_4_3_u05_r11_network.node[6].core_layer 	interests[6] 	9471
scalar tree_4_3_u05_r11_network.node[6].core_layer 	data[6] 	9125
scalar tree_4_3_u05_r11_network.node[6].content_store 	p_hit[6] 	0.036532573117939
scalar tree_4_3_u05_r11_network.node[6].content_store 	hits[6] 	346
scalar tree_4_3_u05_r11_network.node[6].content_store 	misses[6] 	9125
scalar tree_4_3_u05_r11_network.node[6].content_store 	decision_yes[6] 	918
scalar tree_4_3_u05_r11_network.node[6].content_store 	decision_no[6] 	8207
scalar tree_4_3_u05_r11_network.node[6].content_store 	decision_ratio[6] 	0.10060273972603
scalar tree_4_3_u05_r11_network.node[7].core_layer 	interests[7] 	37706
scalar tree_4_3_u05_r11_network.node[7].core_layer 	data[7] 	36491
scalar tree_4_3_u05_r11_network.node[7].content_store 	p_hit[7] 	0.032169946427624
scalar tree_4_3_u05_r11_network.node[7].content_store 	hits[7] 	1213
scalar tree_4_3_u05_r11_network.node[7].content_store 	misses[7] 	36493
scalar tree_4_3_u05_r11_network.node[7].content_store 	decision_yes[7] 	3710
scalar tree_4_3_u05_r11_network.node[7].content_store 	decision_no[7] 	32781
scalar tree_4_3_u05_r11_network.node[7].content_store 	decision_ratio[7] 	0.10166890466142
scalar tree_4_3_u05_r11_network.node[8].core_layer 	interests[8] 	38007
scalar tree_4_3_u05_r11_network.node[8].core_layer 	data[8] 	36729
scalar tree_4_3_u05_r11_network.node[8].content_store 	p_hit[8] 	0.033651695740258
scalar tree_4_3_u05_r11_network.node[8].content_store 	hits[8] 	1279
scalar tree_4_3_u05_r11_network.node[8].content_store 	misses[8] 	36728
scalar tree_4_3_u05_r11_network.node[8].content_store 	decision_yes[8] 	3677
scalar tree_4_3_u05_r11_network.node[8].content_store 	decision_no[8] 	33052
scalar tree_4_3_u05_r11_network.node[8].content_store 	decision_ratio[8] 	0.10011162841352
scalar tree_4_3_u05_r11_network.node[9].core_layer 	interests[9] 	9268
scalar tree_4_3_u05_r11_network.node[9].core_layer 	data[9] 	8928
scalar tree_4_3_u05_r11_network.node[9].content_store 	p_hit[9] 	0.036685369011653
scalar tree_4_3_u05_r11_network.node[9].content_store 	hits[9] 	340
scalar tree_4_3_u05_r11_network.node[9].content_store 	misses[9] 	8928
scalar tree_4_3_u05_r11_network.node[9].content_store 	decision_yes[9] 	905
scalar tree_4_3_u05_r11_network.node[9].content_store 	decision_no[9] 	8023
scalar tree_4_3_u05_r11_network.node[9].content_store 	decision_ratio[9] 	0.1013664874552
scalar tree_4_3_u05_r11_network.node[10].core_layer 	interests[10] 	28677
scalar tree_4_3_u05_r11_network.node[10].core_layer 	data[10] 	27641
scalar tree_4_3_u05_r11_network.node[10].content_store 	p_hit[10] 	0.036091641385082
scalar tree_4_3_u05_r11_network.node[10].content_store 	hits[10] 	1035
scalar tree_4_3_u05_r11_network.node[10].content_store 	misses[10] 	27642
scalar tree_4_3_u05_r11_network.node[10].content_store 	decision_yes[10] 	2738
scalar tree_4_3_u05_r11_network.node[10].content_store 	decision_no[10] 	24903
scalar tree_4_3_u05_r11_network.node[10].content_store 	decision_ratio[10] 	0.099055750515539
scalar tree_4_3_u05_r11_network.node[11].core_layer 	interests[11] 	28593
scalar tree_4_3_u05_r11_network.node[11].core_layer 	data[11] 	27634
scalar tree_4_3_u05_r11_network.node[11].content_store 	p_hit[11] 	0.033539677543455
scalar tree_4_3_u05_r11_network.node[11].content_store 	hits[11] 	959
scalar tree_4_3_u05_r11_network.node[11].content_store 	misses[11] 	27634
scalar tree_4_3_u05_r11_network.node[11].content_store 	decision_yes[11] 	2860
scalar tree_4_3_u05_r11_network.node[11].content_store 	decision_no[11] 	24774
scalar tree_4_3_u05_r11_network.node[11].content_store 	decision_ratio[11] 	0.10349569371065
scalar tree_4_3_u05_r11_network.node[12].core_layer 	interests[12] 	28544
scalar tree_4_3_u05_r11_network.node[12].core_layer 	data[12] 	27554
scalar tree_4_3_u05_r11_network.node[12].content_store 	p_hit[12] 	0.034683295964126
scalar tree_4_3_u05_r11_network.node[12].content_store 	hits[12] 	990
scalar tree_4_3_u05_r11_network.node[12].content_store 	misses[12] 	27554
scalar tree_4_3_u05_r11_network.node[12].content_store 	decision_yes[12] 	2678
scalar tree_4_3_u05_r11_network.node[12].content_store 	decision_no[12] 	24876
scalar tree_4_3_u05_r11_network.node[12].content_store 	decision_ratio[12] 	0.09719097045801
scalar tree_4_3_u05_r11_network.node[13].core_layer 	interests[13] 	12120
scalar tree_4_3_u05_r11_network.node[13].core_layer 	data[13] 	9639
scalar tree_4_3_u05_r11_network.node[13].content_store 	p_hit[13] 	0.20470297029703
scalar tree_4_3_u05_r11_network.node[13].content_store 	hits[13] 	2481
scalar tree_4_3_u05_r11_network.node[13].content_store 	misses[13] 	9639
scalar tree_4_3_u05_r11_network.node[13].content_store 	decision_yes[13] 	1048
scalar tree_4_3_u05_r11_network.node[13].content_store 	decision_no[13] 	8591
scalar tree_4_3_u05_r11_network.node[13].content_store 	decision_ratio[13] 	0.10872497147007
scalar tree_4_3_u05_r11_network.node[14].core_layer 	interests[14] 	11884
scalar tree_4_3_u05_r11_network.node[14].core_layer 	data[14] 	9546
scalar tree_4_3_u05_r11_network.node[14].content_store 	p_hit[14] 	0.19673510602491
scalar tree_4_3_u05_r11_network.node[14].content_store 	hits[14] 	2338
scalar tree_4_3_u05_r11_network.node[14].content_store 	misses[14] 	9546
scalar tree_4_3_u05_r11_network.node[14].content_store 	decision_yes[14] 	922
scalar tree_4_3_u05_r11_network.node[14].content_store 	decision_no[14] 	8624
scalar tree_4_3_u05_r11_network.node[14].content_store 	decision_ratio[14] 	0.096584957050073
scalar tree_4_3_u05_r11_network.node[15].core_layer 	interests[15] 	12170
scalar tree_4_3_u05_r11_network.node[15].core_layer 	data[15] 	9695
scalar tree_4_3_u05_r11_network.node[15].content_store 	p_hit[15] 	0.20328677074774
scalar tree_4_3_u05_r11_network.node[15].content_store 	hits[15] 	2474
scalar tree_4_3_u05_r11_network.node[15].content_store 	misses[15] 	9696
scalar tree_4_3_u05_r11_network.node[15].content_store 	decision_yes[15] 	930
scalar tree_4_3_u05_r11_network.node[15].content_store 	decision_no[15] 	8765
scalar tree_4_3_u05_r11_network.node[15].content_store 	decision_ratio[15] 	0.095925734914905
scalar tree_4_3_u05_r11_network.node[16].core_layer 	interests[16] 	11748
scalar tree_4_3_u05_r11_network.node[16].core_layer 	data[16] 	9347
scalar tree_4_3_u05_r11_network.node[16].content_store 	p_hit[16] 	0.20437521280218
scalar tree_4_3_u05_r11_network.node[16].content_store 	hits[16] 	2401
scalar tree_4_3_u05_r11_network.node[16].content_store 	misses[16] 	9347
scalar tree_4_3_u05_r11_network.node[16].content_store 	decision_yes[16] 	949
scalar tree_4_3_u05_r11_network.node[16].content_store 	decision_no[16] 	8398
scalar tree_4_3_u05_r11_network.node[16].content_store 	decision_ratio[16] 	0.10152990264256
scalar tree_4_3_u05_r11_network.node[17].core_layer 	interests[17] 	11960
scalar tree_4_3_u05_r11_network.node[17].core_layer 	data[17] 	9467
scalar tree_4_3_u05_r11_network.node[17].content_store 	p_hit[17] 	0.20852842809365
scalar tree_4_3_u05_r11_network.node[17].content_store 	hits[17] 	2494
scalar tree_4_3_u05_r11_network.node[17].content_store 	misses[17] 	9466
scalar tree_4_3_u05_r11_network.node[17].content_store 	decision_yes[17] 	901
scalar tree_4_3_u05_r11_network.node[17].content_store 	decision_no[17] 	8566
scalar tree_4_3_u05_r11_network.node[17].content_store 	decision_ratio[17] 	0.095172705186437
scalar tree_4_3_u05_r11_network.node[18].core_layer 	interests[18] 	12149
scalar tree_4_3_u05_r11_network.node[18].core_layer 	data[18] 	9633
scalar tree_4_3_u05_r11_network.node[18].content_store 	p_hit[18] 	0.20701292287431
scalar tree_4_3_u05_r11_network.node[18].content_store 	hits[18] 	2515
scalar tree_4_3_u05_r11_network.node[18].content_store 	misses[18] 	9634
scalar tree_4_3_u05_r11_network.node[18].content_store 	decision_yes[18] 	953
scalar tree_4_3_u05_r11_network.node[18].content_store 	decision_no[18] 	8680
scalar tree_4_3_u05_r11_network.node[18].content_store 	decision_ratio[18] 	0.098930758849787
scalar tree_4_3_u05_r11_network.node[19].core_layer 	interests[19] 	11857
scalar tree_4_3_u05_r11_network.node[19].core_layer 	data[19] 	9454
scalar tree_4_3_u05_r11_network.node[19].content_store 	p_hit[19] 	0.20266509235051
scalar tree_4_3_u05_r11_network.node[19].content_store 	hits[19] 	2403
scalar tree_4_3_u05_r11_network.node[19].content_store 	misses[19] 	9454
scalar tree_4_3_u05_r11_network.node[19].content_store 	decision_yes[19] 	966
scalar tree_4_3_u05_r11_network.node[19].content_store 	decision_no[19] 	8488
scalar tree_4_3_u05_r11_network.node[19].content_store 	decision_ratio[19] 	0.10217897186376
scalar tree_4_3_u05_r11_network.node[20].core_layer 	interests[20] 	11969
scalar tree_4_3_u05_r11_network.node[20].core_layer 	data[20] 	9559
scalar tree_4_3_u05_r11_network.node[20].content_store 	p_hit[20] 	0.20126994736402
scalar tree_4_3_u05_r11_network.node[20].content_store 	hits[20] 	2409
scalar tree_4_3_u05_r11_network.node[20].content_store 	misses[20] 	9560
scalar tree_4_3_u05_r11_network.node[20].content_store 	decision_yes[20] 	938
scalar tree_4_3_u05_r11_network.node[20].content_store 	decision_no[20] 	8621
scalar tree_4_3_u05_r11_network.node[20].content_store 	decision_ratio[20] 	0.098127419186107
scalar tree_4_3_u05_r11_network.node[21].core_layer 	interests[21] 	11954
scalar tree_4_3_u05_r11_network.node[21].core_layer 	data[21] 	9471
scalar tree_4_3_u05_r11_network.node[21].content_store 	p_hit[21] 	0.20771289944788
scalar tree_4_3_u05_r11_network.node[21].content_store 	hits[21] 	2483
scalar tree_4_3_u05_r11_network.node[21].content_store 	misses[21] 	9471
scalar tree_4_3_u05_r11_network.node[21].content_store 	decision_yes[21] 	919
scalar tree_4_3_u05_r11_network.node[21].content_store 	decision_no[21] 	8552
scalar tree_4_3_u05_r11_network.node[21].content_store 	decision_ratio[21] 	0.09703304825256
scalar tree_4_3_u05_r11_network.node[22].core_layer 	interests[22] 	11816
scalar tree_4_3_u05_r11_network.node[22].core_layer 	data[22] 	9343
scalar tree_4_3_u05_r11_network.node[22].content_store 	p_hit[22] 	0.20929248476642
scalar tree_4_3_u05_r11_network.node[22].content_store 	hits[22] 	2473
scalar tree_4_3_u05_r11_network.node[22].content_store 	misses[22] 	9343
scalar tree_4_3_u05_r11_network.node[22].content_store 	decision_yes[22] 	935
scalar tree_4_3_u05_r11_network.node[22].content_store 	decision_no[22] 	8408
scalar tree_4_3_u05_r11_network.node[22].content_store 	decision_ratio[22] 	0.1000749224018
scalar tree_4_3_u05_r11_network.node[23].core_layer 	interests[23] 	11903
scalar tree_4_3_u05_r11_network.node[23].core_layer 	data[23] 	9437
scalar tree_4_3_u05_r11_network.node[23].content_store 	p_hit[23] 	0.20709064941611
scalar tree_4_3_u05_r11_network.node[23].content_store 	hits[23] 	2465
scalar tree_4_3_u05_r11_network.node[23].content_store 	misses[23] 	9438
scalar tree_4_3_u05_r11_network.node[23].content_store 	decision_yes[23] 	929
scalar tree_4_3_u05_r11_network.node[23].content_store 	decision_no[23] 	8508
scalar tree_4_3_u05_r11_network.node[23].content_store 	decision_ratio[23] 	0.098442301578892
scalar tree_4_3_u05_r11_network.node[24].core_layer 	interests[24] 	11987
scalar tree_4_3_u05_r11_network.node[24].core_layer 	data[24] 	9451
scalar tree_4_3_u05_r11_network.node[24].content_store 	p_hit[24] 	0.21156252606991
scalar tree_4_3_u05_r11_network.node[24].content_store 	hits[24] 	2536
scalar tree_4_3_u05_r11_network.node[24].content_store 	misses[24] 	9451
scalar tree_4_3_u05_r11_network.node[24].content_store 	decision_yes[24] 	886
scalar tree_4_3_u05_r11_network.node[24].content_store 	decision_no[24] 	8565
scalar tree_4_3_u05_r11_network.node[24].content_store 	decision_ratio[24] 	0.09374669347159
scalar tree_4_3_u05_r11_network.node[25].core_layer 	interests[25] 	12133
scalar tree_4_3_u05_r11_network.node[25].core_layer 	data[25] 	9565
scalar tree_4_3_u05_r11_network.node[25].content_store 	p_hit[25] 	0.21148932662985
scalar tree_4_3_u05_r11_network.node[25].content_store 	hits[25] 	2566
scalar tree_4_3_u05_r11_network.node[25].content_store 	misses[25] 	9567
scalar tree_4_3_u05_r11_network.node[25].content_store 	decision_yes[25] 	921
scalar tree_4_3_u05_r11_network.node[25].content_store 	decision_no[25] 	8644
scalar tree_4_3_u05_r11_network.node[25].content_store 	decision_ratio[25] 	0.096288552012546
scalar tree_4_3_u05_r11_network.node[26].core_layer 	interests[26] 	11975
scalar tree_4_3_u05_r11_network.node[26].core_layer 	data[26] 	9420
scalar tree_4_3_u05_r11_network.node[26].content_store 	p_hit[26] 	0.21352818371608
scalar tree_4_3_u05_r11_network.node[26].content_store 	hits[26] 	2557
scalar tree_4_3_u05_r11_network.node[26].content_store 	misses[26] 	9418
scalar tree_4_3_u05_r11_network.node[26].content_store 	decision_yes[26] 	911
scalar tree_4_3_u05_r11_network.node[26].content_store 	decision_no[26] 	8509
scalar tree_4_3_u05_r11_network.node[26].content_store 	decision_ratio[26] 	0.096709129511677
scalar tree_4_3_u05_r11_network.node[27].core_layer 	interests[27] 	12047
scalar tree_4_3_u05_r11_network.node[27].core_layer 	data[27] 	9552
scalar tree_4_3_u05_r11_network.node[27].content_store 	p_hit[27] 	0.20702249522703
scalar tree_4_3_u05_r11_network.node[27].content_store 	hits[27] 	2494
scalar tree_4_3_u05_r11_network.node[27].content_store 	misses[27] 	9553
scalar tree_4_3_u05_r11_network.node[27].content_store 	decision_yes[27] 	919
scalar tree_4_3_u05_r11_network.node[27].content_store 	decision_no[27] 	8633
scalar tree_4_3_u05_r11_network.node[27].content_store 	decision_ratio[27] 	0.096210217755444
scalar tree_4_3_u05_r11_network.node[28].core_layer 	interests[28] 	12006
scalar tree_4_3_u05_r11_network.node[28].core_layer 	data[28] 	9474
scalar tree_4_3_u05_r11_network.node[28].content_store 	p_hit[28] 	0.21089455272364
scalar tree_4_3_u05_r11_network.node[28].content_store 	hits[28] 	2532
scalar tree_4_3_u05_r11_network.node[28].content_store 	misses[28] 	9474
scalar tree_4_3_u05_r11_network.node[28].content_store 	decision_yes[28] 	1003
scalar tree_4_3_u05_r11_network.node[28].content_store 	decision_no[28] 	8471
scalar tree_4_3_u05_r11_network.node[28].content_store 	decision_ratio[28] 	0.10586869326578
scalar tree_4_3_u05_r11_network.node[29].core_layer 	interests[29] 	11840
scalar tree_4_3_u05_r11_network.node[29].core_layer 	data[29] 	9471
scalar tree_4_3_u05_r11_network.node[29].content_store 	p_hit[29] 	0.20008445945946
scalar tree_4_3_u05_r11_network.node[29].content_store 	hits[29] 	2369
scalar tree_4_3_u05_r11_network.node[29].content_store 	misses[29] 	9471
scalar tree_4_3_u05_r11_network.node[29].content_store 	decision_yes[29] 	956
scalar tree_4_3_u05_r11_network.node[29].content_store 	decision_no[29] 	8515
scalar tree_4_3_u05_r11_network.node[29].content_store 	decision_ratio[29] 	0.10093971069581
scalar tree_4_3_u05_r11_network.node[30].core_layer 	interests[30] 	11796
scalar tree_4_3_u05_r11_network.node[30].core_layer 	data[30] 	9268
scalar tree_4_3_u05_r11_network.node[30].content_store 	p_hit[30] 	0.21430993557138
scalar tree_4_3_u05_r11_network.node[30].content_store 	hits[30] 	2528
scalar tree_4_3_u05_r11_network.node[30].content_store 	misses[30] 	9268
scalar tree_4_3_u05_r11_network.node[30].content_store 	decision_yes[30] 	950
scalar tree_4_3_u05_r11_network.node[30].content_store 	decision_no[30] 	8318
scalar tree_4_3_u05_r11_network.node[30].content_store 	decision_ratio[30] 	0.10250323694432
scalar tree_4_3_u05_r11_network.node[31].core_layer 	interests[31] 	12011
scalar tree_4_3_u05_r11_network.node[31].core_layer 	data[31] 	9572
scalar tree_4_3_u05_r11_network.node[31].content_store 	p_hit[31] 	0.20298060111564
scalar tree_4_3_u05_r11_network.node[31].content_store 	hits[31] 	2438
scalar tree_4_3_u05_r11_network.node[31].content_store 	misses[31] 	9573
scalar tree_4_3_u05_r11_network.node[31].content_store 	decision_yes[31] 	941
scalar tree_4_3_u05_r11_network.node[31].content_store 	decision_no[31] 	8631
scalar tree_4_3_u05_r11_network.node[31].content_store 	decision_ratio[31] 	0.098307563727539
scalar tree_4_3_u05_r11_network.node[32].core_layer 	interests[32] 	12099
scalar tree_4_3_u05_r11_network.node[32].core_layer 	data[32] 	9667
scalar tree_4_3_u05_r11_network.node[32].content_store 	p_hit[32] 	0.20092569633854
scalar tree_4_3_u05_r11_network.node[32].content_store 	hits[32] 	2431
scalar tree_4_3_u05_r11_network.node[32].content_store 	misses[32] 	9668
scalar tree_4_3_u05_r11_network.node[32].content_store 	decision_yes[32] 	1022
scalar tree_4_3_u05_r11_network.node[32].content_store 	decision_no[32] 	8645
scalar tree_4_3_u05_r11_network.node[32].content_store 	decision_ratio[32] 	0.10572049239681
scalar tree_4_3_u05_r11_network.node[33].core_layer 	interests[33] 	12088
scalar tree_4_3_u05_r11_network.node[33].core_layer 	data[33] 	9438
scalar tree_4_3_u05_r11_network.node[33].content_store 	p_hit[33] 	0.2192256783587
scalar tree_4_3_u05_r11_network.node[33].content_store 	hits[33] 	2650
scalar tree_4_3_u05_r11_network.node[33].content_store 	misses[33] 	9438
scalar tree_4_3_u05_r11_network.node[33].content_store 	decision_yes[33] 	969
scalar tree_4_3_u05_r11_network.node[33].content_store 	decision_no[33] 	8469
scalar tree_4_3_u05_r11_network.node[33].content_store 	decision_ratio[33] 	0.10267005721551
scalar tree_4_3_u05_r11_network.node[34].core_layer 	interests[34] 	12091
scalar tree_4_3_u05_r11_network.node[34].core_layer 	data[34] 	9568
scalar tree_4_3_u05_r11_network.node[34].content_store 	p_hit[34] 	0.20866760400298
scalar tree_4_3_u05_r11_network.node[34].content_store 	hits[34] 	2523
scalar tree_4_3_u05_r11_network.node[34].content_store 	misses[34] 	9568
scalar tree_4_3_u05_r11_network.node[34].content_store 	decision_yes[34] 	959
scalar tree_4_3_u05_r11_network.node[34].content_store 	decision_no[34] 	8609
scalar tree_4_3_u05_r11_network.node[34].content_store 	decision_ratio[34] 	0.10022993311037
scalar tree_4_3_u05_r11_network.node[35].core_layer 	interests[35] 	11902
scalar tree_4_3_u05_r11_network.node[35].core_layer 	data[35] 	9456
scalar tree_4_3_u05_r11_network.node[35].content_store 	p_hit[35] 	0.20542765921694
scalar tree_4_3_u05_r11_network.node[35].content_store 	hits[35] 	2445
scalar tree_4_3_u05_r11_network.node[35].content_store 	misses[35] 	9457
scalar tree_4_3_u05_r11_network.node[35].content_store 	decision_yes[35] 	919
scalar tree_4_3_u05_r11_network.node[35].content_store 	decision_no[35] 	8537
scalar tree_4_3_u05_r11_network.node[35].content_store 	decision_ratio[35] 	0.097186971235195
scalar tree_4_3_u05_r11_network.node[36].core_layer 	interests[36] 	12041
scalar tree_4_3_u05_r11_network.node[36].core_layer 	data[36] 	9569
scalar tree_4_3_u05_r11_network.node[36].content_store 	p_hit[36] 	0.20529856324226
scalar tree_4_3_u05_r11_network.node[36].content_store 	hits[36] 	2472
scalar tree_4_3_u05_r11_network.node[36].content_store 	misses[36] 	9569
scalar tree_4_3_u05_r11_network.node[36].content_store 	decision_yes[36] 	922
scalar tree_4_3_u05_r11_network.node[36].content_store 	decision_no[36] 	8647
scalar tree_4_3_u05_r11_network.node[36].content_store 	decision_ratio[36] 	0.096352805935834
scalar tree_4_3_u05_r11_network.node[37].core_layer 	interests[37] 	12034
scalar tree_4_3_u05_r11_network.node[37].core_layer 	data[37] 	9563
scalar tree_4_3_u05_r11_network.node[37].content_store 	p_hit[37] 	0.20533488449393
scalar tree_4_3_u05_r11_network.node[37].content_store 	hits[37] 	2471
scalar tree_4_3_u05_r11_network.node[37].content_store 	misses[37] 	9563
scalar tree_4_3_u05_r11_network.node[37].content_store 	decision_yes[37] 	969
scalar tree_4_3_u05_r11_network.node[37].content_store 	decision_no[37] 	8594
scalar tree_4_3_u05_r11_network.node[37].content_store 	decision_ratio[37] 	0.10132803513542
scalar tree_4_3_u05_r11_network.node[38].core_layer 	interests[38] 	12007
scalar tree_4_3_u05_r11_network.node[38].core_layer 	data[38] 	9505
scalar tree_4_3_u05_r11_network.node[38].content_store 	p_hit[38] 	0.20837844590655
scalar tree_4_3_u05_r11_network.node[38].content_store 	hits[38] 	2502
scalar tree_4_3_u05_r11_network.node[38].content_store 	misses[38] 	9505
scalar tree_4_3_u05_r11_network.node[38].content_store 	decision_yes[38] 	973
scalar tree_4_3_u05_r11_network.node[38].content_store 	decision_no[38] 	8532
scalar tree_4_3_u05_r11_network.node[38].content_store 	decision_ratio[38] 	0.10236717517096
scalar tree_4_3_u05_r11_network.node[39].core_layer 	interests[39] 	11898
scalar tree_4_3_u05_r11_network.node[39].core_layer 	data[39] 	9476
scalar tree_4_3_u05_r11_network.node[39].content_store 	p_hit[39] 	0.20347957639939
scalar tree_4_3_u05_r11_network.node[39].content_store 	hits[39] 	2421
scalar tree_4_3_u05_r11_network.node[39].content_store 	misses[39] 	9477
scalar tree_4_3_u05_r11_network.node[39].content_store 	decision_yes[39] 	961
scalar tree_4_3_u05_r11_network.node[39].content_store 	decision_no[39] 	8515
scalar tree_4_3_u05_r11_network.node[39].content_store 	decision_ratio[39] 	0.10141409877585
scalar tree_4_3_u05_r11_network.client[13] 	hdistance[13] 	3.0449669966997
scalar tree_4_3_u05_r11_network.client[13] 	downloads[13] 	12120
scalar tree_4_3_u05_r11_network.client[13] 	avg_time[13] 	0.004620624016
scalar tree_4_3_u05_r11_network.client[14] 	hdistance[14] 	3.0785089195557
scalar tree_4_3_u05_r11_network.client[14] 	downloads[14] 	11884
scalar tree_4_3_u05_r11_network.client[14] 	avg_time[14] 	0.004668542913
scalar tree_4_3_u05_r11_network.client[15] 	hdistance[15] 	3.0555509902211
scalar tree_4_3_u05_r11_network.client[15] 	downloads[15] 	12169
scalar tree_4_3_u05_r11_network.client[15] 	avg_time[15] 	0.00463595327
scalar tree_4_3_u05_r11_network.client[16] 	hdistance[16] 	3.0465611167858
scalar tree_4_3_u05_r11_network.client[16] 	downloads[16] 	11748
scalar tree_4_3_u05_r11_network.client[16] 	avg_time[16] 	0.004624110604
scalar tree_4_3_u05_r11_network.client[17] 	hdistance[17] 	3.0329403895995
scalar tree_4_3_u05_r11_network.client[17] 	downloads[17] 	11961
scalar tree_4_3_u05_r11_network.client[17] 	avg_time[17] 	0.004601451751
scalar tree_4_3_u05_r11_network.client[18] 	hdistance[18] 	3.0377016792888
scalar tree_4_3_u05_r11_network.client[18] 	downloads[18] 	12148
scalar tree_4_3_u05_r11_network.client[18] 	avg_time[18] 	0.004607183426
scalar tree_4_3_u05_r11_network.client[19] 	hdistance[19] 	3.0556633212448
scalar tree_4_3_u05_r11_network.client[19] 	downloads[19] 	11857
scalar tree_4_3_u05_r11_network.client[19] 	avg_time[19] 	0.004636575489
scalar tree_4_3_u05_r11_network.client[20] 	hdistance[20] 	3.0606617647059
scalar tree_4_3_u05_r11_network.client[20] 	downloads[20] 	11968
scalar tree_4_3_u05_r11_network.client[20] 	avg_time[20] 	0.004643894539
scalar tree_4_3_u05_r11_network.client[21] 	hdistance[21] 	3.0365568010708
scalar tree_4_3_u05_r11_network.client[21] 	downloads[21] 	11954
scalar tree_4_3_u05_r11_network.client[21] 	avg_time[21] 	0.0046044809
scalar tree_4_3_u05_r11_network.client[22] 	hdistance[22] 	3.0379993229519
scalar tree_4_3_u05_r11_network.client[22] 	downloads[22] 	11816
scalar tree_4_3_u05_r11_network.client[22] 	avg_time[22] 	0.004608166193
scalar tree_4_3_u05_r11_network.client[23] 	hdistance[23] 	3.0514199294236
scalar tree_4_3_u05_r11_network.client[23] 	downloads[23] 	11902
scalar tree_4_3_u05_r11_network.client[23] 	avg_time[23] 	0.004627071989
scalar tree_4_3_u05_r11_network.client[24] 	hdistance[24] 	3.0264453157587
scalar tree_4_3_u05_r11_network.client[24] 	downloads[24] 	11987
scalar tree_4_3_u05_r11_network.client[24] 	avg_time[24] 	0.004592001632
scalar tree_4_3_u05_r11_network.client[25] 	hdistance[25] 	3.0288517022504
scalar tree_4_3_u05_r11_network.client[25] 	downloads[25] 	12131
scalar tree_4_3_u05_r11_network.client[25] 	avg_time[25] 	0.004592296208
scalar tree_4_3_u05_r11_network.client[26] 	hdistance[26] 	3.0178675795274
scalar tree_4_3_u05_r11_network.client[26] 	downloads[26] 	11977
scalar tree_4_3_u05_r11_network.client[26] 	avg_time[26] 	0.004576171347
scalar tree_4_3_u05_r11_network.client[27] 	hdistance[27] 	3.0456583098124
scalar tree_4_3_u05_r11_network.client[27] 	downloads[27] 	12046
scalar tree_4_3_u05_r11_network.client[27] 	avg_time[27] 	0.004617147223
scalar tree_4_3_u05_r11_network.client[28] 	hdistance[28] 	3.0304014659337
scalar tree_4_3_u05_r11_network.client[28] 	downloads[28] 	12006
scalar tree_4_3_u05_r11_network.client[28] 	avg_time[28] 	0.004594982063
scalar tree_4_3_u05_r11_network.client[29] 	hdistance[29] 	3.0786317567568
scalar tree_4_3_u05_r11_network.client[29] 	downloads[29] 	11840
scalar tree_4_3_u05_r11_network.client[29] 	avg_time[29] 	0.004665875411
scalar tree_4_3_u05_r11_network.client[30] 	hdistance[30] 	3.013479145473
scalar tree_4_3_u05_r11_network.client[30] 	downloads[30] 	11796
scalar tree_4_3_u05_r11_network.client[30] 	avg_time[30] 	0.004569003519
scalar tree_4_3_u05_r11_network.client[31] 	hdistance[31] 	3.0525395503747
scalar tree_4_3_u05_r11_network.client[31] 	downloads[31] 	12010
scalar tree_4_3_u05_r11_network.client[31] 	avg_time[31] 	0.004627698012
scalar tree_4_3_u05_r11_network.client[32] 	hdistance[32] 	3.0616630848074
scalar tree_4_3_u05_r11_network.client[32] 	downloads[32] 	12098
scalar tree_4_3_u05_r11_network.client[32] 	avg_time[32] 	0.004645334719
scalar tree_4_3_u05_r11_network.client[33] 	hdistance[33] 	2.9980145598941
scalar tree_4_3_u05_r11_network.client[33] 	downloads[33] 	12088
scalar tree_4_3_u05_r11_network.client[33] 	avg_time[33] 	0.004546469474
scalar tree_4_3_u05_r11_network.client[34] 	hdistance[34] 	3.0387064758912
scalar tree_4_3_u05_r11_network.client[34] 	downloads[34] 	12091
scalar tree_4_3_u05_r11_network.client[34] 	avg_time[34] 	0.00460706012
scalar tree_4_3_u05_r11_network.client[35] 	hdistance[35] 	3.0620956222166
scalar tree_4_3_u05_r11_network.client[35] 	downloads[35] 	11901
scalar tree_4_3_u05_r11_network.client[35] 	avg_time[35] 	0.004640549808
scalar tree_4_3_u05_r11_network.client[36] 	hdistance[36] 	3.0470060626194
scalar tree_4_3_u05_r11_network.client[36] 	downloads[36] 	12041
scalar tree_4_3_u05_r11_network.client[36] 	avg_time[36] 	0.004620377362
scalar tree_4_3_u05_r11_network.client[37] 	hdistance[37] 	3.0379757354163
scalar tree_4_3_u05_r11_network.client[37] 	downloads[37] 	12034
scalar tree_4_3_u05_r11_network.client[37] 	avg_time[37] 	0.00461359181
scalar tree_4_3_u05_r11_network.client[38] 	hdistance[38] 	3.0273173981844
scalar tree_4_3_u05_r11_network.client[38] 	downloads[38] 	12007
scalar tree_4_3_u05_r11_network.client[38] 	avg_time[38] 	0.004597481766
scalar tree_4_3_u05_r11_network.client[39] 	hdistance[39] 	3.0570732117341
scalar tree_4_3_u05_r11_network.client[39] 	downloads[39] 	11897
scalar tree_4_3_u05_r11_network.client[39] 	avg_time[39] 	0.004638099136
