version 2
run General-117-20160820-04:40:10-14346
attr a 0.9
attr cd fix0.1
attr configname General
attr cr lru
attr datetime 20160820-04:40:10
attr experiment General
attr fsize 1
attr inifile hw5115/scenario_A/SPR-FIX0.1.ini
attr iterationvars "$name=tree_4_3, $un=05, $rep=18, $cd=fix0.1, $cr=lru, $fsize=1, $a=0.9, $sl=spr, $ttl=1000, $variance=0.05"
attr iterationvars2 "$name=tree_4_3, $un=05, $rep=18, $cd=fix0.1, $cr=lru, $fsize=1, $a=0.9, $sl=spr, $ttl=1000, $variance=0.05, $repetition=0"
attr measurement "$name=tree_4_3, $un=05, $rep=18, $cd=fix0.1, $cr=lru, $fsize=1, $a=0.9, $sl=spr, $ttl=1000, $variance=0.05"
attr name tree_4_3
attr network networks.${name}_u${un}_r${rep}_network
attr processid 14346
attr rep 18
attr repetition 0
attr replication #0
attr resultdir results
attr runnumber 117
attr seedset 18
attr sl spr
attr ttl 1000
attr un 05
attr variance 0.05

scalar . 	a 	0.9
scalar . 	fsize 	1
scalar . 	rep 	18
scalar . 	ttl 	1000
scalar . 	un 	05
scalar . 	variance 	0.05
scalar tree_4_3_u05_r18_network.content_distribution 	repo-0 	0
scalar tree_4_3_u05_r18_network.content_distribution 	client-0 	13
scalar tree_4_3_u05_r18_network.content_distribution 	client-1 	14
scalar tree_4_3_u05_r18_network.content_distribution 	client-2 	15
scalar tree_4_3_u05_r18_network.content_distribution 	client-3 	16
scalar tree_4_3_u05_r18_network.content_distribution 	client-4 	17
scalar tree_4_3_u05_r18_network.content_distribution 	client-5 	18
scalar tree_4_3_u05_r18_network.content_distribution 	client-6 	19
scalar tree_4_3_u05_r18_network.content_distribution 	client-7 	20
scalar tree_4_3_u05_r18_network.content_distribution 	client-8 	21
scalar tree_4_3_u05_r18_network.content_distribution 	client-9 	22
scalar tree_4_3_u05_r18_network.content_distribution 	client-10 	23
scalar tree_4_3_u05_r18_network.content_distribution 	client-11 	24
scalar tree_4_3_u05_r18_network.content_distribution 	client-12 	25
scalar tree_4_3_u05_r18_network.content_distribution 	client-13 	26
scalar tree_4_3_u05_r18_network.content_distribution 	client-14 	27
scalar tree_4_3_u05_r18_network.content_distribution 	client-15 	28
scalar tree_4_3_u05_r18_network.content_distribution 	client-16 	29
scalar tree_4_3_u05_r18_network.content_distribution 	client-17 	30
scalar tree_4_3_u05_r18_network.content_distribution 	client-18 	31
scalar tree_4_3_u05_r18_network.content_distribution 	client-19 	32
scalar tree_4_3_u05_r18_network.content_distribution 	client-20 	33
scalar tree_4_3_u05_r18_network.content_distribution 	client-21 	34
scalar tree_4_3_u05_r18_network.content_distribution 	client-22 	35
scalar tree_4_3_u05_r18_network.content_distribution 	client-23 	36
scalar tree_4_3_u05_r18_network.content_distribution 	client-24 	37
scalar tree_4_3_u05_r18_network.content_distribution 	client-25 	38
scalar tree_4_3_u05_r18_network.content_distribution 	client-26 	39
scalar tree_4_3_u05_r18_network.content_distribution 	repo-0_card 	100000
scalar tree_4_3_u05_r18_network.content_distribution 	repo-0_price 	0
scalar tree_4_3_u05_r18_network.statistics 	stabilization_time 	759.5
scalar tree_4_3_u05_r18_network.statistics 	p_hit 	0.14958615944248
scalar tree_4_3_u05_r18_network.statistics 	interests 	26808.2
scalar tree_4_3_u05_r18_network.statistics 	data 	18700.425
scalar tree_4_3_u05_r18_network.statistics 	hdistance 	3.0404994492269
scalar tree_4_3_u05_r18_network.statistics 	avg_time 	0.00461319402
scalar tree_4_3_u05_r18_network.statistics 	downloads 	324302
scalar tree_4_3_u05_r18_network.statistics 	total_cost 	0
scalar tree_4_3_u05_r18_network.statistics 	total_replicas 	100000
scalar tree_4_3_u05_r18_network.statistics 	inner_hit 	0.26622099154492
scalar tree_4_3_u05_r18_network.node[0].core_layer 	interests[0] 	242344
scalar tree_4_3_u05_r18_network.node[0].core_layer 	repo_load[0] 	237966
scalar tree_4_3_u05_r18_network.node[0].core_layer 	data[0] 	0
scalar tree_4_3_u05_r18_network.node[0].core_layer 	repo_int[0] 	237966
scalar tree_4_3_u05_r18_network.node[0].content_store 	p_hit[0] 	0.018065229590995
scalar tree_4_3_u05_r18_network.node[0].content_store 	hits[0] 	4378
scalar tree_4_3_u05_r18_network.node[0].content_store 	misses[0] 	237966
scalar tree_4_3_u05_r18_network.node[0].content_store 	decision_yes[0] 	24021
scalar tree_4_3_u05_r18_network.node[0].content_store 	decision_no[0] 	213945
scalar tree_4_3_u05_r18_network.node[0].content_store 	decision_ratio[0] 	0.10094299185598
scalar tree_4_3_u05_r18_network.node[1].core_layer 	interests[1] 	156217
scalar tree_4_3_u05_r18_network.node[1].core_layer 	data[1] 	152432
scalar tree_4_3_u05_r18_network.node[1].content_store 	p_hit[1] 	0.024145899613998
scalar tree_4_3_u05_r18_network.node[1].content_store 	hits[1] 	3772
scalar tree_4_3_u05_r18_network.node[1].content_store 	misses[1] 	152445
scalar tree_4_3_u05_r18_network.node[1].content_store 	decision_yes[1] 	15235
scalar tree_4_3_u05_r18_network.node[1].content_store 	decision_no[1] 	137197
scalar tree_4_3_u05_r18_network.node[1].content_store 	decision_ratio[1] 	0.09994620552115
scalar tree_4_3_u05_r18_network.node[2].core_layer 	interests[2] 	73506
scalar tree_4_3_u05_r18_network.node[2].core_layer 	data[2] 	71783
scalar tree_4_3_u05_r18_network.node[2].content_store 	p_hit[2] 	0.023345033058526
scalar tree_4_3_u05_r18_network.node[2].content_store 	hits[2] 	1716
scalar tree_4_3_u05_r18_network.node[2].content_store 	misses[2] 	71790
scalar tree_4_3_u05_r18_network.node[2].content_store 	decision_yes[2] 	7173
scalar tree_4_3_u05_r18_network.node[2].content_store 	decision_no[2] 	64610
scalar tree_4_3_u05_r18_network.node[2].content_store 	decision_ratio[2] 	0.099926166362509
scalar tree_4_3_u05_r18_network.node[3].core_layer 	interests[3] 	18609
scalar tree_4_3_u05_r18_network.node[3].core_layer 	data[3] 	18128
scalar tree_4_3_u05_r18_network.node[3].content_store 	p_hit[3] 	0.025847708098232
scalar tree_4_3_u05_r18_network.node[3].content_store 	hits[3] 	481
scalar tree_4_3_u05_r18_network.node[3].content_store 	misses[3] 	18128
scalar tree_4_3_u05_r18_network.node[3].content_store 	decision_yes[3] 	1748
scalar tree_4_3_u05_r18_network.node[3].content_store 	decision_no[3] 	16380
scalar tree_4_3_u05_r18_network.node[3].content_store 	decision_ratio[3] 	0.096425419240953
scalar tree_4_3_u05_r18_network.node[4].core_layer 	interests[4] 	28550
scalar tree_4_3_u05_r18_network.node[4].core_layer 	data[4] 	27567
scalar tree_4_3_u05_r18_network.node[4].content_store 	p_hit[4] 	0.034395796847636
scalar tree_4_3_u05_r18_network.node[4].content_store 	hits[4] 	982
scalar tree_4_3_u05_r18_network.node[4].content_store 	misses[4] 	27568
scalar tree_4_3_u05_r18_network.node[4].content_store 	decision_yes[4] 	2744
scalar tree_4_3_u05_r18_network.node[4].content_store 	decision_no[4] 	24823
scalar tree_4_3_u05_r18_network.node[4].content_store 	decision_ratio[4] 	0.099539304240577
scalar tree_4_3_u05_r18_network.node[5].core_layer 	interests[5] 	29010
scalar tree_4_3_u05_r18_network.node[5].core_layer 	data[5] 	27944
scalar tree_4_3_u05_r18_network.node[5].content_store 	p_hit[5] 	0.036745949672527
scalar tree_4_3_u05_r18_network.node[5].content_store 	hits[5] 	1066
scalar tree_4_3_u05_r18_network.node[5].content_store 	misses[5] 	27944
scalar tree_4_3_u05_r18_network.node[5].content_store 	decision_yes[5] 	2754
scalar tree_4_3_u05_r18_network.node[5].content_store 	decision_no[5] 	25190
scalar tree_4_3_u05_r18_network.node[5].content_store 	decision_ratio[5] 	0.098554251359863
scalar tree_4_3_u05_r18_network.node[6].core_layer 	interests[6] 	28548
scalar tree_4_3_u05_r18_network.node[6].core_layer 	data[6] 	27522
scalar tree_4_3_u05_r18_network.node[6].content_store 	p_hit[6] 	0.035904441642147
scalar tree_4_3_u05_r18_network.node[6].content_store 	hits[6] 	1025
scalar tree_4_3_u05_r18_network.node[6].content_store 	misses[6] 	27523
scalar tree_4_3_u05_r18_network.node[6].content_store 	decision_yes[6] 	2706
scalar tree_4_3_u05_r18_network.node[6].content_store 	decision_no[6] 	24816
scalar tree_4_3_u05_r18_network.node[6].content_store 	decision_ratio[6] 	0.098321342925659
scalar tree_4_3_u05_r18_network.node[7].core_layer 	interests[7] 	28533
scalar tree_4_3_u05_r18_network.node[7].core_layer 	data[7] 	27546
scalar tree_4_3_u05_r18_network.node[7].content_store 	p_hit[7] 	0.034591525601935
scalar tree_4_3_u05_r18_network.node[7].content_store 	hits[7] 	987
scalar tree_4_3_u05_r18_network.node[7].content_store 	misses[7] 	27546
scalar tree_4_3_u05_r18_network.node[7].content_store 	decision_yes[7] 	2809
scalar tree_4_3_u05_r18_network.node[7].content_store 	decision_no[7] 	24737
scalar tree_4_3_u05_r18_network.node[7].content_store 	decision_ratio[7] 	0.10197487838525
scalar tree_4_3_u05_r18_network.node[8].core_layer 	interests[8] 	28614
scalar tree_4_3_u05_r18_network.node[8].core_layer 	data[8] 	27588
scalar tree_4_3_u05_r18_network.node[8].content_store 	p_hit[8] 	0.035821625777591
scalar tree_4_3_u05_r18_network.node[8].content_store 	hits[8] 	1025
scalar tree_4_3_u05_r18_network.node[8].content_store 	misses[8] 	27589
scalar tree_4_3_u05_r18_network.node[8].content_store 	decision_yes[8] 	2771
scalar tree_4_3_u05_r18_network.node[8].content_store 	decision_no[8] 	24817
scalar tree_4_3_u05_r18_network.node[8].content_store 	decision_ratio[8] 	0.10044222125562
scalar tree_4_3_u05_r18_network.node[9].core_layer 	interests[9] 	28577
scalar tree_4_3_u05_r18_network.node[9].core_layer 	data[9] 	27511
scalar tree_4_3_u05_r18_network.node[9].content_store 	p_hit[9] 	0.037267732792106
scalar tree_4_3_u05_r18_network.node[9].content_store 	hits[9] 	1065
scalar tree_4_3_u05_r18_network.node[9].content_store 	misses[9] 	27512
scalar tree_4_3_u05_r18_network.node[9].content_store 	decision_yes[9] 	2698
scalar tree_4_3_u05_r18_network.node[9].content_store 	decision_no[9] 	24813
scalar tree_4_3_u05_r18_network.node[9].content_store 	decision_ratio[9] 	0.098069862963905
scalar tree_4_3_u05_r18_network.node[10].core_layer 	interests[10] 	47127
scalar tree_4_3_u05_r18_network.node[10].core_layer 	data[10] 	45639
scalar tree_4_3_u05_r18_network.node[10].content_store 	p_hit[10] 	0.031595476054067
scalar tree_4_3_u05_r18_network.node[10].content_store 	hits[10] 	1489
scalar tree_4_3_u05_r18_network.node[10].content_store 	misses[10] 	45638
scalar tree_4_3_u05_r18_network.node[10].content_store 	decision_yes[10] 	4643
scalar tree_4_3_u05_r18_network.node[10].content_store 	decision_no[10] 	40996
scalar tree_4_3_u05_r18_network.node[10].content_store 	decision_ratio[10] 	0.10173316680909
scalar tree_4_3_u05_r18_network.node[11].core_layer 	interests[11] 	19026
scalar tree_4_3_u05_r18_network.node[11].core_layer 	data[11] 	18406
scalar tree_4_3_u05_r18_network.node[11].content_store 	p_hit[11] 	0.03258698622937
scalar tree_4_3_u05_r18_network.node[11].content_store 	hits[11] 	620
scalar tree_4_3_u05_r18_network.node[11].content_store 	misses[11] 	18406
scalar tree_4_3_u05_r18_network.node[11].content_store 	decision_yes[11] 	1842
scalar tree_4_3_u05_r18_network.node[11].content_store 	decision_no[11] 	16564
scalar tree_4_3_u05_r18_network.node[11].content_store 	decision_ratio[11] 	0.10007606215365
scalar tree_4_3_u05_r18_network.node[12].core_layer 	interests[12] 	19356
scalar tree_4_3_u05_r18_network.node[12].core_layer 	data[12] 	18609
scalar tree_4_3_u05_r18_network.node[12].content_store 	p_hit[12] 	0.038592684438934
scalar tree_4_3_u05_r18_network.node[12].content_store 	hits[12] 	747
scalar tree_4_3_u05_r18_network.node[12].content_store 	misses[12] 	18609
scalar tree_4_3_u05_r18_network.node[12].content_store 	decision_yes[12] 	1887
scalar tree_4_3_u05_r18_network.node[12].content_store 	decision_no[12] 	16722
scalar tree_4_3_u05_r18_network.node[12].content_store 	decision_ratio[12] 	0.1014025471546
scalar tree_4_3_u05_r18_network.node[13].core_layer 	interests[13] 	11920
scalar tree_4_3_u05_r18_network.node[13].core_layer 	data[13] 	9386
scalar tree_4_3_u05_r18_network.node[13].content_store 	p_hit[13] 	0.2125
scalar tree_4_3_u05_r18_network.node[13].content_store 	hits[13] 	2533
scalar tree_4_3_u05_r18_network.node[13].content_store 	misses[13] 	9387
scalar tree_4_3_u05_r18_network.node[13].content_store 	decision_yes[13] 	925
scalar tree_4_3_u05_r18_network.node[13].content_store 	decision_no[13] 	8461
scalar tree_4_3_u05_r18_network.node[13].content_store 	decision_ratio[13] 	0.098551033454081
scalar tree_4_3_u05_r18_network.node[14].core_layer 	interests[14] 	12026
scalar tree_4_3_u05_r18_network.node[14].core_layer 	data[14] 	9606
scalar tree_4_3_u05_r18_network.node[14].content_store 	p_hit[14] 	0.20123066688841
scalar tree_4_3_u05_r18_network.node[14].content_store 	hits[14] 	2420
scalar tree_4_3_u05_r18_network.node[14].content_store 	misses[14] 	9606
scalar tree_4_3_u05_r18_network.node[14].content_store 	decision_yes[14] 	972
scalar tree_4_3_u05_r18_network.node[14].content_store 	decision_no[14] 	8634
scalar tree_4_3_u05_r18_network.node[14].content_store 	decision_ratio[14] 	0.10118675827608
scalar tree_4_3_u05_r18_network.node[15].core_layer 	interests[15] 	12038
scalar tree_4_3_u05_r18_network.node[15].core_layer 	data[15] 	9558
scalar tree_4_3_u05_r18_network.node[15].content_store 	p_hit[15] 	0.20601428808772
scalar tree_4_3_u05_r18_network.node[15].content_store 	hits[15] 	2480
scalar tree_4_3_u05_r18_network.node[15].content_store 	misses[15] 	9558
scalar tree_4_3_u05_r18_network.node[15].content_store 	decision_yes[15] 	965
scalar tree_4_3_u05_r18_network.node[15].content_store 	decision_no[15] 	8593
scalar tree_4_3_u05_r18_network.node[15].content_store 	decision_ratio[15] 	0.10096254446537
scalar tree_4_3_u05_r18_network.node[16].core_layer 	interests[16] 	12245
scalar tree_4_3_u05_r18_network.node[16].core_layer 	data[16] 	9817
scalar tree_4_3_u05_r18_network.node[16].content_store 	p_hit[16] 	0.19828501429155
scalar tree_4_3_u05_r18_network.node[16].content_store 	hits[16] 	2428
scalar tree_4_3_u05_r18_network.node[16].content_store 	misses[16] 	9817
scalar tree_4_3_u05_r18_network.node[16].content_store 	decision_yes[16] 	997
scalar tree_4_3_u05_r18_network.node[16].content_store 	decision_no[16] 	8820
scalar tree_4_3_u05_r18_network.node[16].content_store 	decision_ratio[16] 	0.10155852093308
scalar tree_4_3_u05_r18_network.node[17].core_layer 	interests[17] 	12089
scalar tree_4_3_u05_r18_network.node[17].core_layer 	data[17] 	9617
scalar tree_4_3_u05_r18_network.node[17].content_store 	p_hit[17] 	0.2044834146745
scalar tree_4_3_u05_r18_network.node[17].content_store 	hits[17] 	2472
scalar tree_4_3_u05_r18_network.node[17].content_store 	misses[17] 	9617
scalar tree_4_3_u05_r18_network.node[17].content_store 	decision_yes[17] 	945
scalar tree_4_3_u05_r18_network.node[17].content_store 	decision_no[17] 	8672
scalar tree_4_3_u05_r18_network.node[17].content_store 	decision_ratio[17] 	0.098263491733389
scalar tree_4_3_u05_r18_network.node[18].core_layer 	interests[18] 	12167
scalar tree_4_3_u05_r18_network.node[18].core_layer 	data[18] 	9576
scalar tree_4_3_u05_r18_network.node[18].content_store 	p_hit[18] 	0.21295306977891
scalar tree_4_3_u05_r18_network.node[18].content_store 	hits[18] 	2591
scalar tree_4_3_u05_r18_network.node[18].content_store 	misses[18] 	9576
scalar tree_4_3_u05_r18_network.node[18].content_store 	decision_yes[18] 	961
scalar tree_4_3_u05_r18_network.node[18].content_store 	decision_no[18] 	8615
scalar tree_4_3_u05_r18_network.node[18].content_store 	decision_ratio[18] 	0.10035505430242
scalar tree_4_3_u05_r18_network.node[19].core_layer 	interests[19] 	11864
scalar tree_4_3_u05_r18_network.node[19].core_layer 	data[19] 	9445
scalar tree_4_3_u05_r18_network.node[19].content_store 	p_hit[19] 	0.20380984490897
scalar tree_4_3_u05_r18_network.node[19].content_store 	hits[19] 	2418
scalar tree_4_3_u05_r18_network.node[19].content_store 	misses[19] 	9446
scalar tree_4_3_u05_r18_network.node[19].content_store 	decision_yes[19] 	920
scalar tree_4_3_u05_r18_network.node[19].content_store 	decision_no[19] 	8525
scalar tree_4_3_u05_r18_network.node[19].content_store 	decision_ratio[19] 	0.097406034939121
scalar tree_4_3_u05_r18_network.node[20].core_layer 	interests[20] 	12041
scalar tree_4_3_u05_r18_network.node[20].core_layer 	data[20] 	9577
scalar tree_4_3_u05_r18_network.node[20].content_store 	p_hit[20] 	0.20463416659746
scalar tree_4_3_u05_r18_network.node[20].content_store 	hits[20] 	2464
scalar tree_4_3_u05_r18_network.node[20].content_store 	misses[20] 	9577
scalar tree_4_3_u05_r18_network.node[20].content_store 	decision_yes[20] 	929
scalar tree_4_3_u05_r18_network.node[20].content_store 	decision_no[20] 	8648
scalar tree_4_3_u05_r18_network.node[20].content_store 	decision_ratio[20] 	0.097003236921792
scalar tree_4_3_u05_r18_network.node[21].core_layer 	interests[21] 	11976
scalar tree_4_3_u05_r18_network.node[21].core_layer 	data[21] 	9526
scalar tree_4_3_u05_r18_network.node[21].content_store 	p_hit[21] 	0.20457581830327
scalar tree_4_3_u05_r18_network.node[21].content_store 	hits[21] 	2450
scalar tree_4_3_u05_r18_network.node[21].content_store 	misses[21] 	9526
scalar tree_4_3_u05_r18_network.node[21].content_store 	decision_yes[21] 	949
scalar tree_4_3_u05_r18_network.node[21].content_store 	decision_no[21] 	8577
scalar tree_4_3_u05_r18_network.node[21].content_store 	decision_ratio[21] 	0.099622086920008
scalar tree_4_3_u05_r18_network.node[22].core_layer 	interests[22] 	12131
scalar tree_4_3_u05_r18_network.node[22].core_layer 	data[22] 	9607
scalar tree_4_3_u05_r18_network.node[22].content_store 	p_hit[22] 	0.20806198994312
scalar tree_4_3_u05_r18_network.node[22].content_store 	hits[22] 	2524
scalar tree_4_3_u05_r18_network.node[22].content_store 	misses[22] 	9607
scalar tree_4_3_u05_r18_network.node[22].content_store 	decision_yes[22] 	961
scalar tree_4_3_u05_r18_network.node[22].content_store 	decision_no[22] 	8646
scalar tree_4_3_u05_r18_network.node[22].content_store 	decision_ratio[22] 	0.10003122723014
scalar tree_4_3_u05_r18_network.node[23].core_layer 	interests[23] 	11929
scalar tree_4_3_u05_r18_network.node[23].core_layer 	data[23] 	9429
scalar tree_4_3_u05_r18_network.node[23].content_store 	p_hit[23] 	0.2094894794199
scalar tree_4_3_u05_r18_network.node[23].content_store 	hits[23] 	2499
scalar tree_4_3_u05_r18_network.node[23].content_store 	misses[23] 	9430
scalar tree_4_3_u05_r18_network.node[23].content_store 	decision_yes[23] 	960
scalar tree_4_3_u05_r18_network.node[23].content_store 	decision_no[23] 	8469
scalar tree_4_3_u05_r18_network.node[23].content_store 	decision_ratio[23] 	0.10181355392937
scalar tree_4_3_u05_r18_network.node[24].core_layer 	interests[24] 	11959
scalar tree_4_3_u05_r18_network.node[24].core_layer 	data[24] 	9497
scalar tree_4_3_u05_r18_network.node[24].content_store 	p_hit[24] 	0.20578643699306
scalar tree_4_3_u05_r18_network.node[24].content_store 	hits[24] 	2461
scalar tree_4_3_u05_r18_network.node[24].content_store 	misses[24] 	9498
scalar tree_4_3_u05_r18_network.node[24].content_store 	decision_yes[24] 	1007
scalar tree_4_3_u05_r18_network.node[24].content_store 	decision_no[24] 	8490
scalar tree_4_3_u05_r18_network.node[24].content_store 	decision_ratio[24] 	0.10603348425819
scalar tree_4_3_u05_r18_network.node[25].core_layer 	interests[25] 	12109
scalar tree_4_3_u05_r18_network.node[25].core_layer 	data[25] 	9521
scalar tree_4_3_u05_r18_network.node[25].content_store 	p_hit[25] 	0.21364274506565
scalar tree_4_3_u05_r18_network.node[25].content_store 	hits[25] 	2587
scalar tree_4_3_u05_r18_network.node[25].content_store 	misses[25] 	9522
scalar tree_4_3_u05_r18_network.node[25].content_store 	decision_yes[25] 	951
scalar tree_4_3_u05_r18_network.node[25].content_store 	decision_no[25] 	8570
scalar tree_4_3_u05_r18_network.node[25].content_store 	decision_ratio[25] 	0.099884465917446
scalar tree_4_3_u05_r18_network.node[26].core_layer 	interests[26] 	11976
scalar tree_4_3_u05_r18_network.node[26].core_layer 	data[26] 	9521
scalar tree_4_3_u05_r18_network.node[26].content_store 	p_hit[26] 	0.20482631930528
scalar tree_4_3_u05_r18_network.node[26].content_store 	hits[26] 	2453
scalar tree_4_3_u05_r18_network.node[26].content_store 	misses[26] 	9523
scalar tree_4_3_u05_r18_network.node[26].content_store 	decision_yes[26] 	941
scalar tree_4_3_u05_r18_network.node[26].content_store 	decision_no[26] 	8580
scalar tree_4_3_u05_r18_network.node[26].content_store 	decision_ratio[26] 	0.098834156076042
scalar tree_4_3_u05_r18_network.node[27].core_layer 	interests[27] 	11969
scalar tree_4_3_u05_r18_network.node[27].core_layer 	data[27] 	9571
scalar tree_4_3_u05_r18_network.node[27].content_store 	p_hit[27] 	0.20026735733979
scalar tree_4_3_u05_r18_network.node[27].content_store 	hits[27] 	2397
scalar tree_4_3_u05_r18_network.node[27].content_store 	misses[27] 	9572
scalar tree_4_3_u05_r18_network.node[27].content_store 	decision_yes[27] 	968
scalar tree_4_3_u05_r18_network.node[27].content_store 	decision_no[27] 	8603
scalar tree_4_3_u05_r18_network.node[27].content_store 	decision_ratio[27] 	0.10113885696374
scalar tree_4_3_u05_r18_network.node[28].core_layer 	interests[28] 	11875
scalar tree_4_3_u05_r18_network.node[28].core_layer 	data[28] 	9535
scalar tree_4_3_u05_r18_network.node[28].content_store 	p_hit[28] 	0.19705263157895
scalar tree_4_3_u05_r18_network.node[28].content_store 	hits[28] 	2340
scalar tree_4_3_u05_r18_network.node[28].content_store 	misses[28] 	9535
scalar tree_4_3_u05_r18_network.node[28].content_store 	decision_yes[28] 	958
scalar tree_4_3_u05_r18_network.node[28].content_store 	decision_no[28] 	8577
scalar tree_4_3_u05_r18_network.node[28].content_store 	decision_ratio[28] 	0.10047194546408
scalar tree_4_3_u05_r18_network.node[29].core_layer 	interests[29] 	11919
scalar tree_4_3_u05_r18_network.node[29].core_layer 	data[29] 	9447
scalar tree_4_3_u05_r18_network.node[29].content_store 	p_hit[29] 	0.20748384931622
scalar tree_4_3_u05_r18_network.node[29].content_store 	hits[29] 	2473
scalar tree_4_3_u05_r18_network.node[29].content_store 	misses[29] 	9446
scalar tree_4_3_u05_r18_network.node[29].content_store 	decision_yes[29] 	1011
scalar tree_4_3_u05_r18_network.node[29].content_store 	decision_no[29] 	8436
scalar tree_4_3_u05_r18_network.node[29].content_store 	decision_ratio[29] 	0.10701810098444
scalar tree_4_3_u05_r18_network.node[30].core_layer 	interests[30] 	12011
scalar tree_4_3_u05_r18_network.node[30].core_layer 	data[30] 	9596
scalar tree_4_3_u05_r18_network.node[30].content_store 	p_hit[30] 	0.20106568978436
scalar tree_4_3_u05_r18_network.node[30].content_store 	hits[30] 	2415
scalar tree_4_3_u05_r18_network.node[30].content_store 	misses[30] 	9596
scalar tree_4_3_u05_r18_network.node[30].content_store 	decision_yes[30] 	967
scalar tree_4_3_u05_r18_network.node[30].content_store 	decision_no[30] 	8629
scalar tree_4_3_u05_r18_network.node[30].content_store 	decision_ratio[30] 	0.10077115464777
scalar tree_4_3_u05_r18_network.node[31].core_layer 	interests[31] 	11939
scalar tree_4_3_u05_r18_network.node[31].core_layer 	data[31] 	9372
scalar tree_4_3_u05_r18_network.node[31].content_store 	p_hit[31] 	0.21492587318871
scalar tree_4_3_u05_r18_network.node[31].content_store 	hits[31] 	2566
scalar tree_4_3_u05_r18_network.node[31].content_store 	misses[31] 	9373
scalar tree_4_3_u05_r18_network.node[31].content_store 	decision_yes[31] 	863
scalar tree_4_3_u05_r18_network.node[31].content_store 	decision_no[31] 	8509
scalar tree_4_3_u05_r18_network.node[31].content_store 	decision_ratio[31] 	0.092082799829279
scalar tree_4_3_u05_r18_network.node[32].core_layer 	interests[32] 	11825
scalar tree_4_3_u05_r18_network.node[32].core_layer 	data[32] 	9360
scalar tree_4_3_u05_r18_network.node[32].content_store 	p_hit[32] 	0.20854122621564
scalar tree_4_3_u05_r18_network.node[32].content_store 	hits[32] 	2466
scalar tree_4_3_u05_r18_network.node[32].content_store 	misses[32] 	9359
scalar tree_4_3_u05_r18_network.node[32].content_store 	decision_yes[32] 	886
scalar tree_4_3_u05_r18_network.node[32].content_store 	decision_no[32] 	8474
scalar tree_4_3_u05_r18_network.node[32].content_store 	decision_ratio[32] 	0.09465811965812
scalar tree_4_3_u05_r18_network.node[33].core_layer 	interests[33] 	12032
scalar tree_4_3_u05_r18_network.node[33].core_layer 	data[33] 	9378
scalar tree_4_3_u05_r18_network.node[33].content_store 	p_hit[33] 	0.22057845744681
scalar tree_4_3_u05_r18_network.node[33].content_store 	hits[33] 	2654
scalar tree_4_3_u05_r18_network.node[33].content_store 	misses[33] 	9378
scalar tree_4_3_u05_r18_network.node[33].content_store 	decision_yes[33] 	932
scalar tree_4_3_u05_r18_network.node[33].content_store 	decision_no[33] 	8446
scalar tree_4_3_u05_r18_network.node[33].content_store 	decision_ratio[33] 	0.099381531243335
scalar tree_4_3_u05_r18_network.node[34].core_layer 	interests[34] 	11987
scalar tree_4_3_u05_r18_network.node[34].core_layer 	data[34] 	9508
scalar tree_4_3_u05_r18_network.node[34].content_store 	p_hit[34] 	0.20680737465588
scalar tree_4_3_u05_r18_network.node[34].content_store 	hits[34] 	2479
scalar tree_4_3_u05_r18_network.node[34].content_store 	misses[34] 	9508
scalar tree_4_3_u05_r18_network.node[34].content_store 	decision_yes[34] 	927
scalar tree_4_3_u05_r18_network.node[34].content_store 	decision_no[34] 	8581
scalar tree_4_3_u05_r18_network.node[34].content_store 	decision_ratio[34] 	0.097496844762305
scalar tree_4_3_u05_r18_network.node[35].core_layer 	interests[35] 	12022
scalar tree_4_3_u05_r18_network.node[35].core_layer 	data[35] 	9522
scalar tree_4_3_u05_r18_network.node[35].content_store 	p_hit[35] 	0.20786890700383
scalar tree_4_3_u05_r18_network.node[35].content_store 	hits[35] 	2499
scalar tree_4_3_u05_r18_network.node[35].content_store 	misses[35] 	9523
scalar tree_4_3_u05_r18_network.node[35].content_store 	decision_yes[35] 	975
scalar tree_4_3_u05_r18_network.node[35].content_store 	decision_no[35] 	8547
scalar tree_4_3_u05_r18_network.node[35].content_store 	decision_ratio[35] 	0.10239445494644
scalar tree_4_3_u05_r18_network.node[36].core_layer 	interests[36] 	11994
scalar tree_4_3_u05_r18_network.node[36].core_layer 	data[36] 	9504
scalar tree_4_3_u05_r18_network.node[36].content_store 	p_hit[36] 	0.20752042688011
scalar tree_4_3_u05_r18_network.node[36].content_store 	hits[36] 	2489
scalar tree_4_3_u05_r18_network.node[36].content_store 	misses[36] 	9505
scalar tree_4_3_u05_r18_network.node[36].content_store 	decision_yes[36] 	967
scalar tree_4_3_u05_r18_network.node[36].content_store 	decision_no[36] 	8537
scalar tree_4_3_u05_r18_network.node[36].content_store 	decision_ratio[36] 	0.10174663299663
scalar tree_4_3_u05_r18_network.node[37].core_layer 	interests[37] 	11865
scalar tree_4_3_u05_r18_network.node[37].core_layer 	data[37] 	9510
scalar tree_4_3_u05_r18_network.node[37].content_store 	p_hit[37] 	0.19848293299621
scalar tree_4_3_u05_r18_network.node[37].content_store 	hits[37] 	2355
scalar tree_4_3_u05_r18_network.node[37].content_store 	misses[37] 	9510
scalar tree_4_3_u05_r18_network.node[37].content_store 	decision_yes[37] 	973
scalar tree_4_3_u05_r18_network.node[37].content_store 	decision_no[37] 	8537
scalar tree_4_3_u05_r18_network.node[37].content_store 	decision_ratio[37] 	0.10231335436383
scalar tree_4_3_u05_r18_network.node[38].core_layer 	interests[38] 	12141
scalar tree_4_3_u05_r18_network.node[38].core_layer 	data[38] 	9612
scalar tree_4_3_u05_r18_network.node[38].content_store 	p_hit[38] 	0.20830244625649
scalar tree_4_3_u05_r18_network.node[38].content_store 	hits[38] 	2529
scalar tree_4_3_u05_r18_network.node[38].content_store 	misses[38] 	9612
scalar tree_4_3_u05_r18_network.node[38].content_store 	decision_yes[38] 	1026
scalar tree_4_3_u05_r18_network.node[38].content_store 	decision_no[38] 	8586
scalar tree_4_3_u05_r18_network.node[38].content_store 	decision_ratio[38] 	0.10674157303371
scalar tree_4_3_u05_r18_network.node[39].core_layer 	interests[39] 	12262
scalar tree_4_3_u05_r18_network.node[39].core_layer 	data[39] 	9744
scalar tree_4_3_u05_r18_network.node[39].content_store 	p_hit[39] 	0.2053498613603
scalar tree_4_3_u05_r18_network.node[39].content_store 	hits[39] 	2518
scalar tree_4_3_u05_r18_network.node[39].content_store 	misses[39] 	9744
scalar tree_4_3_u05_r18_network.node[39].content_store 	decision_yes[39] 	991
scalar tree_4_3_u05_r18_network.node[39].content_store 	decision_no[39] 	8753
scalar tree_4_3_u05_r18_network.node[39].content_store 	decision_ratio[39] 	0.10170361247947
scalar tree_4_3_u05_r18_network.client[13] 	hdistance[13] 	3.0151019380821
scalar tree_4_3_u05_r18_network.client[13] 	downloads[13] 	11919
scalar tree_4_3_u05_r18_network.client[13] 	avg_time[13] 	0.004575632571
scalar tree_4_3_u05_r18_network.client[14] 	hdistance[14] 	3.0645268584733
scalar tree_4_3_u05_r18_network.client[14] 	downloads[14] 	12026
scalar tree_4_3_u05_r18_network.client[14] 	avg_time[14] 	0.004647511775
scalar tree_4_3_u05_r18_network.client[15] 	hdistance[15] 	3.0505897989699
scalar tree_4_3_u05_r18_network.client[15] 	downloads[15] 	12038
scalar tree_4_3_u05_r18_network.client[15] 	avg_time[15] 	0.004626346874
scalar tree_4_3_u05_r18_network.client[16] 	hdistance[16] 	3.0717027358105
scalar tree_4_3_u05_r18_network.client[16] 	downloads[16] 	12245
scalar tree_4_3_u05_r18_network.client[16] 	avg_time[16] 	0.004662750494
scalar tree_4_3_u05_r18_network.client[17] 	hdistance[17] 	3.0351559268757
scalar tree_4_3_u05_r18_network.client[17] 	downloads[17] 	12089
scalar tree_4_3_u05_r18_network.client[17] 	avg_time[17] 	0.004607478521
scalar tree_4_3_u05_r18_network.client[18] 	hdistance[18] 	3.0124106188872
scalar tree_4_3_u05_r18_network.client[18] 	downloads[18] 	12167
scalar tree_4_3_u05_r18_network.client[18] 	avg_time[18] 	0.004571542972
scalar tree_4_3_u05_r18_network.client[19] 	hdistance[19] 	3.0466155272697
scalar tree_4_3_u05_r18_network.client[19] 	downloads[19] 	11863
scalar tree_4_3_u05_r18_network.client[19] 	avg_time[19] 	0.004622850161
scalar tree_4_3_u05_r18_network.client[20] 	hdistance[20] 	3.0472552113612
scalar tree_4_3_u05_r18_network.client[20] 	downloads[20] 	12041
scalar tree_4_3_u05_r18_network.client[20] 	avg_time[20] 	0.004626024737
scalar tree_4_3_u05_r18_network.client[21] 	hdistance[21] 	3.0434201736807
scalar tree_4_3_u05_r18_network.client[21] 	downloads[21] 	11976
scalar tree_4_3_u05_r18_network.client[21] 	avg_time[21] 	0.004618236452
scalar tree_4_3_u05_r18_network.client[22] 	hdistance[22] 	3.0342098755255
scalar tree_4_3_u05_r18_network.client[22] 	downloads[22] 	12131
scalar tree_4_3_u05_r18_network.client[22] 	avg_time[22] 	0.004602847988
scalar tree_4_3_u05_r18_network.client[23] 	hdistance[23] 	3.0361334674715
scalar tree_4_3_u05_r18_network.client[23] 	downloads[23] 	11928
scalar tree_4_3_u05_r18_network.client[23] 	avg_time[23] 	0.004603727089
scalar tree_4_3_u05_r18_network.client[24] 	hdistance[24] 	3.0426492724536
scalar tree_4_3_u05_r18_network.client[24] 	downloads[24] 	11958
scalar tree_4_3_u05_r18_network.client[24] 	avg_time[24] 	0.004616989807
scalar tree_4_3_u05_r18_network.client[25] 	hdistance[25] 	3.0083415923356
scalar tree_4_3_u05_r18_network.client[25] 	downloads[25] 	12108
scalar tree_4_3_u05_r18_network.client[25] 	avg_time[25] 	0.004563009005
scalar tree_4_3_u05_r18_network.client[26] 	hdistance[26] 	3.0499415400033
scalar tree_4_3_u05_r18_network.client[26] 	downloads[26] 	11974
scalar tree_4_3_u05_r18_network.client[26] 	avg_time[26] 	0.004625246411
scalar tree_4_3_u05_r18_network.client[27] 	hdistance[27] 	3.067179144385
scalar tree_4_3_u05_r18_network.client[27] 	downloads[27] 	11968
scalar tree_4_3_u05_r18_network.client[27] 	avg_time[27] 	0.004652403412
scalar tree_4_3_u05_r18_network.client[28] 	hdistance[28] 	3.064
scalar tree_4_3_u05_r18_network.client[28] 	downloads[28] 	11875
scalar tree_4_3_u05_r18_network.client[28] 	avg_time[28] 	0.004654012217
scalar tree_4_3_u05_r18_network.client[29] 	hdistance[29] 	3.0318791946309
scalar tree_4_3_u05_r18_network.client[29] 	downloads[29] 	11920
scalar tree_4_3_u05_r18_network.client[29] 	avg_time[29] 	0.004603314279
scalar tree_4_3_u05_r18_network.client[30] 	hdistance[30] 	3.05861293814
scalar tree_4_3_u05_r18_network.client[30] 	downloads[30] 	12011
scalar tree_4_3_u05_r18_network.client[30] 	avg_time[30] 	0.00464109978
scalar tree_4_3_u05_r18_network.client[31] 	hdistance[31] 	3.0133188138717
scalar tree_4_3_u05_r18_network.client[31] 	downloads[31] 	11938
scalar tree_4_3_u05_r18_network.client[31] 	avg_time[31] 	0.004573281618
scalar tree_4_3_u05_r18_network.client[32] 	hdistance[32] 	3.0323017081008
scalar tree_4_3_u05_r18_network.client[32] 	downloads[32] 	11826
scalar tree_4_3_u05_r18_network.client[32] 	avg_time[32] 	0.004601552945
scalar tree_4_3_u05_r18_network.client[33] 	hdistance[33] 	2.9952626329787
scalar tree_4_3_u05_r18_network.client[33] 	downloads[33] 	12032
scalar tree_4_3_u05_r18_network.client[33] 	avg_time[33] 	0.00454165803
scalar tree_4_3_u05_r18_network.client[34] 	hdistance[34] 	3.0545591056978
scalar tree_4_3_u05_r18_network.client[34] 	downloads[34] 	11987
scalar tree_4_3_u05_r18_network.client[34] 	avg_time[34] 	0.004629846002
scalar tree_4_3_u05_r18_network.client[35] 	hdistance[35] 	3.0390982447384
scalar tree_4_3_u05_r18_network.client[35] 	downloads[35] 	12021
scalar tree_4_3_u05_r18_network.client[35] 	avg_time[35] 	0.004609633477
scalar tree_4_3_u05_r18_network.client[36] 	hdistance[36] 	3.0473609605603
scalar tree_4_3_u05_r18_network.client[36] 	downloads[36] 	11993
scalar tree_4_3_u05_r18_network.client[36] 	avg_time[36] 	0.004620196636
scalar tree_4_3_u05_r18_network.client[37] 	hdistance[37] 	3.0745891276865
scalar tree_4_3_u05_r18_network.client[37] 	downloads[37] 	11865
scalar tree_4_3_u05_r18_network.client[37] 	avg_time[37] 	0.004664644505
scalar tree_4_3_u05_r18_network.client[38] 	hdistance[38] 	3.0266864343958
scalar tree_4_3_u05_r18_network.client[38] 	downloads[38] 	12141
scalar tree_4_3_u05_r18_network.client[38] 	avg_time[38] 	0.004593523061
scalar tree_4_3_u05_r18_network.client[39] 	hdistance[39] 	3.0305822867395
scalar tree_4_3_u05_r18_network.client[39] 	downloads[39] 	12262
scalar tree_4_3_u05_r18_network.client[39] 	avg_time[39] 	0.004600877725
