version 2
run General-112-20160820-04:34:43-14346
attr a 0.9
attr cd fix0.1
attr configname General
attr cr lru
attr datetime 20160820-04:34:43
attr experiment General
attr fsize 1
attr inifile hw5115/scenario_A/SPR-FIX0.1.ini
attr iterationvars "$name=tree_4_3, $un=05, $rep=13, $cd=fix0.1, $cr=lru, $fsize=1, $a=0.9, $sl=spr, $ttl=1000, $variance=0.05"
attr iterationvars2 "$name=tree_4_3, $un=05, $rep=13, $cd=fix0.1, $cr=lru, $fsize=1, $a=0.9, $sl=spr, $ttl=1000, $variance=0.05, $repetition=0"
attr measurement "$name=tree_4_3, $un=05, $rep=13, $cd=fix0.1, $cr=lru, $fsize=1, $a=0.9, $sl=spr, $ttl=1000, $variance=0.05"
attr name tree_4_3
attr network networks.${name}_u${un}_r${rep}_network
attr processid 14346
attr rep 13
attr repetition 0
attr replication #0
attr resultdir results
attr runnumber 112
attr seedset 13
attr sl spr
attr ttl 1000
attr un 05
attr variance 0.05

scalar . 	a 	0.9
scalar . 	fsize 	1
scalar . 	rep 	13
scalar . 	ttl 	1000
scalar . 	un 	05
scalar . 	variance 	0.05
scalar tree_4_3_u05_r13_network.content_distribution 	repo-0 	0
scalar tree_4_3_u05_r13_network.content_distribution 	client-0 	13
scalar tree_4_3_u05_r13_network.content_distribution 	client-1 	14
scalar tree_4_3_u05_r13_network.content_distribution 	client-2 	15
scalar tree_4_3_u05_r13_network.content_distribution 	client-3 	16
scalar tree_4_3_u05_r13_network.content_distribution 	client-4 	17
scalar tree_4_3_u05_r13_network.content_distribution 	client-5 	18
scalar tree_4_3_u05_r13_network.content_distribution 	client-6 	19
scalar tree_4_3_u05_r13_network.content_distribution 	client-7 	20
scalar tree_4_3_u05_r13_network.content_distribution 	client-8 	21
scalar tree_4_3_u05_r13_network.content_distribution 	client-9 	22
scalar tree_4_3_u05_r13_network.content_distribution 	client-10 	23
scalar tree_4_3_u05_r13_network.content_distribution 	client-11 	24
scalar tree_4_3_u05_r13_network.content_distribution 	client-12 	25
scalar tree_4_3_u05_r13_network.content_distribution 	client-13 	26
scalar tree_4_3_u05_r13_network.content_distribution 	client-14 	27
scalar tree_4_3_u05_r13_network.content_distribution 	client-15 	28
scalar tree_4_3_u05_r13_network.content_distribution 	client-16 	29
scalar tree_4_3_u05_r13_network.content_distribution 	client-17 	30
scalar tree_4_3_u05_r13_network.content_distribution 	client-18 	31
scalar tree_4_3_u05_r13_network.content_distribution 	client-19 	32
scalar tree_4_3_u05_r13_network.content_distribution 	client-20 	33
scalar tree_4_3_u05_r13_network.content_distribution 	client-21 	34
scalar tree_4_3_u05_r13_network.content_distribution 	client-22 	35
scalar tree_4_3_u05_r13_network.content_distribution 	client-23 	36
scalar tree_4_3_u05_r13_network.content_distribution 	client-24 	37
scalar tree_4_3_u05_r13_network.content_distribution 	client-25 	38
scalar tree_4_3_u05_r13_network.content_distribution 	client-26 	39
scalar tree_4_3_u05_r13_network.content_distribution 	repo-0_card 	100000
scalar tree_4_3_u05_r13_network.content_distribution 	repo-0_price 	0
scalar tree_4_3_u05_r13_network.statistics 	stabilization_time 	903.3
scalar tree_4_3_u05_r13_network.statistics 	p_hit 	0.15139475914681
scalar tree_4_3_u05_r13_network.statistics 	interests 	26737.95
scalar tree_4_3_u05_r13_network.statistics 	data 	18634.725
scalar tree_4_3_u05_r13_network.statistics 	hdistance 	3.0322480224233
scalar tree_4_3_u05_r13_network.statistics 	avg_time 	0.004599522543
scalar tree_4_3_u05_r13_network.statistics 	downloads 	324119
scalar tree_4_3_u05_r13_network.statistics 	total_cost 	0
scalar tree_4_3_u05_r13_network.statistics 	total_replicas 	100000
scalar tree_4_3_u05_r13_network.statistics 	inner_hit 	0.26758690480965
scalar tree_4_3_u05_r13_network.node[0].core_layer 	interests[0] 	241703
scalar tree_4_3_u05_r13_network.node[0].core_layer 	repo_load[0] 	237389
scalar tree_4_3_u05_r13_network.node[0].core_layer 	data[0] 	0
scalar tree_4_3_u05_r13_network.node[0].core_layer 	repo_int[0] 	237389
scalar tree_4_3_u05_r13_network.node[0].content_store 	p_hit[0] 	0.017848351075493
scalar tree_4_3_u05_r13_network.node[0].content_store 	hits[0] 	4314
scalar tree_4_3_u05_r13_network.node[0].content_store 	misses[0] 	237389
scalar tree_4_3_u05_r13_network.node[0].content_store 	decision_yes[0] 	23868
scalar tree_4_3_u05_r13_network.node[0].content_store 	decision_no[0] 	213521
scalar tree_4_3_u05_r13_network.node[0].content_store 	decision_ratio[0] 	0.10054383311779
scalar tree_4_3_u05_r13_network.node[1].core_layer 	interests[1] 	119439
scalar tree_4_3_u05_r13_network.node[1].core_layer 	data[1] 	116716
scalar tree_4_3_u05_r13_network.node[1].content_store 	p_hit[1] 	0.022781503528998
scalar tree_4_3_u05_r13_network.node[1].content_store 	hits[1] 	2721
scalar tree_4_3_u05_r13_network.node[1].content_store 	misses[1] 	116718
scalar tree_4_3_u05_r13_network.node[1].content_store 	decision_yes[1] 	11738
scalar tree_4_3_u05_r13_network.node[1].content_store 	decision_no[1] 	104978
scalar tree_4_3_u05_r13_network.node[1].content_store 	decision_ratio[1] 	0.10056890229274
scalar tree_4_3_u05_r13_network.node[2].core_layer 	interests[2] 	81945
scalar tree_4_3_u05_r13_network.node[2].core_layer 	data[2] 	79958
scalar tree_4_3_u05_r13_network.node[2].content_store 	p_hit[2] 	0.024211361278907
scalar tree_4_3_u05_r13_network.node[2].content_store 	hits[2] 	1984
scalar tree_4_3_u05_r13_network.node[2].content_store 	misses[2] 	79961
scalar tree_4_3_u05_r13_network.node[2].content_store 	decision_yes[2] 	7948
scalar tree_4_3_u05_r13_network.node[2].content_store 	decision_no[2] 	72010
scalar tree_4_3_u05_r13_network.node[2].content_store 	decision_ratio[2] 	0.099402186147728
scalar tree_4_3_u05_r13_network.node[3].core_layer 	interests[3] 	46136
scalar tree_4_3_u05_r13_network.node[3].core_layer 	data[3] 	45029
scalar tree_4_3_u05_r13_network.node[3].content_store 	p_hit[3] 	0.023950927692041
scalar tree_4_3_u05_r13_network.node[3].content_store 	hits[3] 	1105
scalar tree_4_3_u05_r13_network.node[3].content_store 	misses[3] 	45031
scalar tree_4_3_u05_r13_network.node[3].content_store 	decision_yes[3] 	4582
scalar tree_4_3_u05_r13_network.node[3].content_store 	decision_no[3] 	40447
scalar tree_4_3_u05_r13_network.node[3].content_store 	decision_ratio[3] 	0.1017566457172
scalar tree_4_3_u05_r13_network.node[4].core_layer 	interests[4] 	37890
scalar tree_4_3_u05_r13_network.node[4].core_layer 	data[4] 	36640
scalar tree_4_3_u05_r13_network.node[4].content_store 	p_hit[4] 	0.03296384270256
scalar tree_4_3_u05_r13_network.node[4].content_store 	hits[4] 	1249
scalar tree_4_3_u05_r13_network.node[4].content_store 	misses[4] 	36641
scalar tree_4_3_u05_r13_network.node[4].content_store 	decision_yes[4] 	3605
scalar tree_4_3_u05_r13_network.node[4].content_store 	decision_no[4] 	33035
scalar tree_4_3_u05_r13_network.node[4].content_store 	decision_ratio[4] 	0.098389737991266
scalar tree_4_3_u05_r13_network.node[5].core_layer 	interests[5] 	28500
scalar tree_4_3_u05_r13_network.node[5].core_layer 	data[5] 	27541
scalar tree_4_3_u05_r13_network.node[5].content_store 	p_hit[5] 	0.033543859649123
scalar tree_4_3_u05_r13_network.node[5].content_store 	hits[5] 	956
scalar tree_4_3_u05_r13_network.node[5].content_store 	misses[5] 	27544
scalar tree_4_3_u05_r13_network.node[5].content_store 	decision_yes[5] 	2720
scalar tree_4_3_u05_r13_network.node[5].content_store 	decision_no[5] 	24821
scalar tree_4_3_u05_r13_network.node[5].content_store 	decision_ratio[5] 	0.098761845975092
scalar tree_4_3_u05_r13_network.node[6].core_layer 	interests[6] 	18853
scalar tree_4_3_u05_r13_network.node[6].core_layer 	data[6] 	18140
scalar tree_4_3_u05_r13_network.node[6].content_store 	p_hit[6] 	0.037765872805389
scalar tree_4_3_u05_r13_network.node[6].content_store 	hits[6] 	712
scalar tree_4_3_u05_r13_network.node[6].content_store 	misses[6] 	18141
scalar tree_4_3_u05_r13_network.node[6].content_store 	decision_yes[6] 	1720
scalar tree_4_3_u05_r13_network.node[6].content_store 	decision_no[6] 	16420
scalar tree_4_3_u05_r13_network.node[6].content_store 	decision_ratio[6] 	0.094818081587652
scalar tree_4_3_u05_r13_network.node[7].core_layer 	interests[7] 	47306
scalar tree_4_3_u05_r13_network.node[7].core_layer 	data[7] 	45711
scalar tree_4_3_u05_r13_network.node[7].content_store 	p_hit[7] 	0.033695514311081
scalar tree_4_3_u05_r13_network.node[7].content_store 	hits[7] 	1594
scalar tree_4_3_u05_r13_network.node[7].content_store 	misses[7] 	45712
scalar tree_4_3_u05_r13_network.node[7].content_store 	decision_yes[7] 	4565
scalar tree_4_3_u05_r13_network.node[7].content_store 	decision_no[7] 	41146
scalar tree_4_3_u05_r13_network.node[7].content_store 	decision_ratio[7] 	0.09986655290849
scalar tree_4_3_u05_r13_network.node[8].core_layer 	interests[8] 	18707
scalar tree_4_3_u05_r13_network.node[8].core_layer 	data[8] 	18022
scalar tree_4_3_u05_r13_network.node[8].content_store 	p_hit[8] 	0.036617309028706
scalar tree_4_3_u05_r13_network.node[8].content_store 	hits[8] 	685
scalar tree_4_3_u05_r13_network.node[8].content_store 	misses[8] 	18022
scalar tree_4_3_u05_r13_network.node[8].content_store 	decision_yes[8] 	1749
scalar tree_4_3_u05_r13_network.node[8].content_store 	decision_no[8] 	16273
scalar tree_4_3_u05_r13_network.node[8].content_store 	decision_ratio[8] 	0.097048052380424
scalar tree_4_3_u05_r13_network.node[9].core_layer 	interests[9] 	18904
scalar tree_4_3_u05_r13_network.node[9].core_layer 	data[9] 	18212
scalar tree_4_3_u05_r13_network.node[9].content_store 	p_hit[9] 	0.036606009310199
scalar tree_4_3_u05_r13_network.node[9].content_store 	hits[9] 	692
scalar tree_4_3_u05_r13_network.node[9].content_store 	misses[9] 	18212
scalar tree_4_3_u05_r13_network.node[9].content_store 	decision_yes[9] 	1793
scalar tree_4_3_u05_r13_network.node[9].content_store 	decision_no[9] 	16419
scalar tree_4_3_u05_r13_network.node[9].content_store 	decision_ratio[9] 	0.098451570393147
scalar tree_4_3_u05_r13_network.node[10].core_layer 	interests[10] 	38397
scalar tree_4_3_u05_r13_network.node[10].core_layer 	data[10] 	37117
scalar tree_4_3_u05_r13_network.node[10].content_store 	p_hit[10] 	0.033231762898143
scalar tree_4_3_u05_r13_network.node[10].content_store 	hits[10] 	1276
scalar tree_4_3_u05_r13_network.node[10].content_store 	misses[10] 	37121
scalar tree_4_3_u05_r13_network.node[10].content_store 	decision_yes[10] 	3735
scalar tree_4_3_u05_r13_network.node[10].content_store 	decision_no[10] 	33382
scalar tree_4_3_u05_r13_network.node[10].content_store 	decision_ratio[10] 	0.10062774469919
scalar tree_4_3_u05_r13_network.node[11].core_layer 	interests[11] 	18940
scalar tree_4_3_u05_r13_network.node[11].core_layer 	data[11] 	18343
scalar tree_4_3_u05_r13_network.node[11].content_store 	p_hit[11] 	0.031520591341077
scalar tree_4_3_u05_r13_network.node[11].content_store 	hits[11] 	597
scalar tree_4_3_u05_r13_network.node[11].content_store 	misses[11] 	18343
scalar tree_4_3_u05_r13_network.node[11].content_store 	decision_yes[11] 	1870
scalar tree_4_3_u05_r13_network.node[11].content_store 	decision_no[11] 	16473
scalar tree_4_3_u05_r13_network.node[11].content_store 	decision_ratio[11] 	0.10194624652456
scalar tree_4_3_u05_r13_network.node[12].core_layer 	interests[12] 	28672
scalar tree_4_3_u05_r13_network.node[12].core_layer 	data[12] 	27793
scalar tree_4_3_u05_r13_network.node[12].content_store 	p_hit[12] 	0.030622209821429
scalar tree_4_3_u05_r13_network.node[12].content_store 	hits[12] 	878
scalar tree_4_3_u05_r13_network.node[12].content_store 	misses[12] 	27794
scalar tree_4_3_u05_r13_network.node[12].content_store 	decision_yes[12] 	2770
scalar tree_4_3_u05_r13_network.node[12].content_store 	decision_no[12] 	25023
scalar tree_4_3_u05_r13_network.node[12].content_store 	decision_ratio[12] 	0.099665383369913
scalar tree_4_3_u05_r13_network.node[13].core_layer 	interests[13] 	11891
scalar tree_4_3_u05_r13_network.node[13].core_layer 	data[13] 	9382
scalar tree_4_3_u05_r13_network.node[13].content_store 	p_hit[13] 	0.21099991590278
scalar tree_4_3_u05_r13_network.node[13].content_store 	hits[13] 	2509
scalar tree_4_3_u05_r13_network.node[13].content_store 	misses[13] 	9382
scalar tree_4_3_u05_r13_network.node[13].content_store 	decision_yes[13] 	849
scalar tree_4_3_u05_r13_network.node[13].content_store 	decision_no[13] 	8533
scalar tree_4_3_u05_r13_network.node[13].content_store 	decision_ratio[13] 	0.090492432317203
scalar tree_4_3_u05_r13_network.node[14].core_layer 	interests[14] 	11967
scalar tree_4_3_u05_r13_network.node[14].core_layer 	data[14] 	9496
scalar tree_4_3_u05_r13_network.node[14].content_store 	p_hit[14] 	0.20640093590708
scalar tree_4_3_u05_r13_network.node[14].content_store 	hits[14] 	2470
scalar tree_4_3_u05_r13_network.node[14].content_store 	misses[14] 	9497
scalar tree_4_3_u05_r13_network.node[14].content_store 	decision_yes[14] 	956
scalar tree_4_3_u05_r13_network.node[14].content_store 	decision_no[14] 	8540
scalar tree_4_3_u05_r13_network.node[14].content_store 	decision_ratio[14] 	0.10067396798652
scalar tree_4_3_u05_r13_network.node[15].core_layer 	interests[15] 	11848
scalar tree_4_3_u05_r13_network.node[15].core_layer 	data[15] 	9320
scalar tree_4_3_u05_r13_network.node[15].content_store 	p_hit[15] 	0.21328494260635
scalar tree_4_3_u05_r13_network.node[15].content_store 	hits[15] 	2527
scalar tree_4_3_u05_r13_network.node[15].content_store 	misses[15] 	9321
scalar tree_4_3_u05_r13_network.node[15].content_store 	decision_yes[15] 	930
scalar tree_4_3_u05_r13_network.node[15].content_store 	decision_no[15] 	8390
scalar tree_4_3_u05_r13_network.node[15].content_store 	decision_ratio[15] 	0.099785407725322
scalar tree_4_3_u05_r13_network.node[16].core_layer 	interests[16] 	12124
scalar tree_4_3_u05_r13_network.node[16].core_layer 	data[16] 	9692
scalar tree_4_3_u05_r13_network.node[16].content_store 	p_hit[16] 	0.20059386341142
scalar tree_4_3_u05_r13_network.node[16].content_store 	hits[16] 	2432
scalar tree_4_3_u05_r13_network.node[16].content_store 	misses[16] 	9692
scalar tree_4_3_u05_r13_network.node[16].content_store 	decision_yes[16] 	966
scalar tree_4_3_u05_r13_network.node[16].content_store 	decision_no[16] 	8726
scalar tree_4_3_u05_r13_network.node[16].content_store 	decision_ratio[16] 	0.099669830788279
scalar tree_4_3_u05_r13_network.node[17].core_layer 	interests[17] 	12084
scalar tree_4_3_u05_r13_network.node[17].core_layer 	data[17] 	9419
scalar tree_4_3_u05_r13_network.node[17].content_store 	p_hit[17] 	0.22053955643827
scalar tree_4_3_u05_r13_network.node[17].content_store 	hits[17] 	2665
scalar tree_4_3_u05_r13_network.node[17].content_store 	misses[17] 	9419
scalar tree_4_3_u05_r13_network.node[17].content_store 	decision_yes[17] 	900
scalar tree_4_3_u05_r13_network.node[17].content_store 	decision_no[17] 	8519
scalar tree_4_3_u05_r13_network.node[17].content_store 	decision_ratio[17] 	0.095551544749973
scalar tree_4_3_u05_r13_network.node[18].core_layer 	interests[18] 	11917
scalar tree_4_3_u05_r13_network.node[18].core_layer 	data[18] 	9455
scalar tree_4_3_u05_r13_network.node[18].content_store 	p_hit[18] 	0.20651170596627
scalar tree_4_3_u05_r13_network.node[18].content_store 	hits[18] 	2461
scalar tree_4_3_u05_r13_network.node[18].content_store 	misses[18] 	9456
scalar tree_4_3_u05_r13_network.node[18].content_store 	decision_yes[18] 	897
scalar tree_4_3_u05_r13_network.node[18].content_store 	decision_no[18] 	8558
scalar tree_4_3_u05_r13_network.node[18].content_store 	decision_ratio[18] 	0.094870438921206
scalar tree_4_3_u05_r13_network.node[19].core_layer 	interests[19] 	12057
scalar tree_4_3_u05_r13_network.node[19].core_layer 	data[19] 	9452
scalar tree_4_3_u05_r13_network.node[19].content_store 	p_hit[19] 	0.21605706228747
scalar tree_4_3_u05_r13_network.node[19].content_store 	hits[19] 	2605
scalar tree_4_3_u05_r13_network.node[19].content_store 	misses[19] 	9452
scalar tree_4_3_u05_r13_network.node[19].content_store 	decision_yes[19] 	924
scalar tree_4_3_u05_r13_network.node[19].content_store 	decision_no[19] 	8528
scalar tree_4_3_u05_r13_network.node[19].content_store 	decision_ratio[19] 	0.09775708844689
scalar tree_4_3_u05_r13_network.node[20].core_layer 	interests[20] 	12152
scalar tree_4_3_u05_r13_network.node[20].core_layer 	data[20] 	9626
scalar tree_4_3_u05_r13_network.node[20].content_store 	p_hit[20] 	0.20786701777485
scalar tree_4_3_u05_r13_network.node[20].content_store 	hits[20] 	2526
scalar tree_4_3_u05_r13_network.node[20].content_store 	misses[20] 	9626
scalar tree_4_3_u05_r13_network.node[20].content_store 	decision_yes[20] 	1008
scalar tree_4_3_u05_r13_network.node[20].content_store 	decision_no[20] 	8618
scalar tree_4_3_u05_r13_network.node[20].content_store 	decision_ratio[20] 	0.10471639310202
scalar tree_4_3_u05_r13_network.node[21].core_layer 	interests[21] 	11870
scalar tree_4_3_u05_r13_network.node[21].core_layer 	data[21] 	9400
scalar tree_4_3_u05_r13_network.node[21].content_store 	p_hit[21] 	0.20800336983993
scalar tree_4_3_u05_r13_network.node[21].content_store 	hits[21] 	2469
scalar tree_4_3_u05_r13_network.node[21].content_store 	misses[21] 	9401
scalar tree_4_3_u05_r13_network.node[21].content_store 	decision_yes[21] 	938
scalar tree_4_3_u05_r13_network.node[21].content_store 	decision_no[21] 	8462
scalar tree_4_3_u05_r13_network.node[21].content_store 	decision_ratio[21] 	0.099787234042553
scalar tree_4_3_u05_r13_network.node[22].core_layer 	interests[22] 	11889
scalar tree_4_3_u05_r13_network.node[22].core_layer 	data[22] 	9530
scalar tree_4_3_u05_r13_network.node[22].content_store 	p_hit[22] 	0.19841870636723
scalar tree_4_3_u05_r13_network.node[22].content_store 	hits[22] 	2359
scalar tree_4_3_u05_r13_network.node[22].content_store 	misses[22] 	9530
scalar tree_4_3_u05_r13_network.node[22].content_store 	decision_yes[22] 	951
scalar tree_4_3_u05_r13_network.node[22].content_store 	decision_no[22] 	8579
scalar tree_4_3_u05_r13_network.node[22].content_store 	decision_ratio[22] 	0.099790136411333
scalar tree_4_3_u05_r13_network.node[23].core_layer 	interests[23] 	12082
scalar tree_4_3_u05_r13_network.node[23].core_layer 	data[23] 	9463
scalar tree_4_3_u05_r13_network.node[23].content_store 	p_hit[23] 	0.21676874689621
scalar tree_4_3_u05_r13_network.node[23].content_store 	hits[23] 	2619
scalar tree_4_3_u05_r13_network.node[23].content_store 	misses[23] 	9463
scalar tree_4_3_u05_r13_network.node[23].content_store 	decision_yes[23] 	940
scalar tree_4_3_u05_r13_network.node[23].content_store 	decision_no[23] 	8523
scalar tree_4_3_u05_r13_network.node[23].content_store 	decision_ratio[23] 	0.099334249181021
scalar tree_4_3_u05_r13_network.node[24].core_layer 	interests[24] 	12088
scalar tree_4_3_u05_r13_network.node[24].core_layer 	data[24] 	9585
scalar tree_4_3_u05_r13_network.node[24].content_store 	p_hit[24] 	0.20706485771013
scalar tree_4_3_u05_r13_network.node[24].content_store 	hits[24] 	2503
scalar tree_4_3_u05_r13_network.node[24].content_store 	misses[24] 	9585
scalar tree_4_3_u05_r13_network.node[24].content_store 	decision_yes[24] 	998
scalar tree_4_3_u05_r13_network.node[24].content_store 	decision_no[24] 	8587
scalar tree_4_3_u05_r13_network.node[24].content_store 	decision_ratio[24] 	0.10412102243088
scalar tree_4_3_u05_r13_network.node[25].core_layer 	interests[25] 	11967
scalar tree_4_3_u05_r13_network.node[25].core_layer 	data[25] 	9406
scalar tree_4_3_u05_r13_network.node[25].content_store 	p_hit[25] 	0.21400518091418
scalar tree_4_3_u05_r13_network.node[25].content_store 	hits[25] 	2561
scalar tree_4_3_u05_r13_network.node[25].content_store 	misses[25] 	9406
scalar tree_4_3_u05_r13_network.node[25].content_store 	decision_yes[25] 	895
scalar tree_4_3_u05_r13_network.node[25].content_store 	decision_no[25] 	8511
scalar tree_4_3_u05_r13_network.node[25].content_store 	decision_ratio[25] 	0.095152030618754
scalar tree_4_3_u05_r13_network.node[26].core_layer 	interests[26] 	11799
scalar tree_4_3_u05_r13_network.node[26].core_layer 	data[26] 	9353
scalar tree_4_3_u05_r13_network.node[26].content_store 	p_hit[26] 	0.20730570387321
scalar tree_4_3_u05_r13_network.node[26].content_store 	hits[26] 	2446
scalar tree_4_3_u05_r13_network.node[26].content_store 	misses[26] 	9353
scalar tree_4_3_u05_r13_network.node[26].content_store 	decision_yes[26] 	962
scalar tree_4_3_u05_r13_network.node[26].content_store 	decision_no[26] 	8391
scalar tree_4_3_u05_r13_network.node[26].content_store 	decision_ratio[26] 	0.10285469902705
scalar tree_4_3_u05_r13_network.node[27].core_layer 	interests[27] 	11815
scalar tree_4_3_u05_r13_network.node[27].core_layer 	data[27] 	9354
scalar tree_4_3_u05_r13_network.node[27].content_store 	p_hit[27] 	0.2082099026661
scalar tree_4_3_u05_r13_network.node[27].content_store 	hits[27] 	2460
scalar tree_4_3_u05_r13_network.node[27].content_store 	misses[27] 	9355
scalar tree_4_3_u05_r13_network.node[27].content_store 	decision_yes[27] 	892
scalar tree_4_3_u05_r13_network.node[27].content_store 	decision_no[27] 	8462
scalar tree_4_3_u05_r13_network.node[27].content_store 	decision_ratio[27] 	0.095360273679709
scalar tree_4_3_u05_r13_network.node[28].core_layer 	interests[28] 	11910
scalar tree_4_3_u05_r13_network.node[28].core_layer 	data[28] 	9322
scalar tree_4_3_u05_r13_network.node[28].content_store 	p_hit[28] 	0.21729638958858
scalar tree_4_3_u05_r13_network.node[28].content_store 	hits[28] 	2588
scalar tree_4_3_u05_r13_network.node[28].content_store 	misses[28] 	9322
scalar tree_4_3_u05_r13_network.node[28].content_store 	decision_yes[28] 	939
scalar tree_4_3_u05_r13_network.node[28].content_store 	decision_no[28] 	8383
scalar tree_4_3_u05_r13_network.node[28].content_store 	decision_ratio[28] 	0.10072945719803
scalar tree_4_3_u05_r13_network.node[29].core_layer 	interests[29] 	11982
scalar tree_4_3_u05_r13_network.node[29].core_layer 	data[29] 	9395
scalar tree_4_3_u05_r13_network.node[29].content_store 	p_hit[29] 	0.21590719412452
scalar tree_4_3_u05_r13_network.node[29].content_store 	hits[29] 	2587
scalar tree_4_3_u05_r13_network.node[29].content_store 	misses[29] 	9395
scalar tree_4_3_u05_r13_network.node[29].content_store 	decision_yes[29] 	943
scalar tree_4_3_u05_r13_network.node[29].content_store 	decision_no[29] 	8452
scalar tree_4_3_u05_r13_network.node[29].content_store 	decision_ratio[29] 	0.10037253858435
scalar tree_4_3_u05_r13_network.node[30].core_layer 	interests[30] 	11999
scalar tree_4_3_u05_r13_network.node[30].core_layer 	data[30] 	9509
scalar tree_4_3_u05_r13_network.node[30].content_store 	p_hit[30] 	0.20751729310776
scalar tree_4_3_u05_r13_network.node[30].content_store 	hits[30] 	2490
scalar tree_4_3_u05_r13_network.node[30].content_store 	misses[30] 	9509
scalar tree_4_3_u05_r13_network.node[30].content_store 	decision_yes[30] 	935
scalar tree_4_3_u05_r13_network.node[30].content_store 	decision_no[30] 	8574
scalar tree_4_3_u05_r13_network.node[30].content_store 	decision_ratio[30] 	0.09832789988432
scalar tree_4_3_u05_r13_network.node[31].core_layer 	interests[31] 	12146
scalar tree_4_3_u05_r13_network.node[31].core_layer 	data[31] 	9635
scalar tree_4_3_u05_r13_network.node[31].content_store 	p_hit[31] 	0.2067347274823
scalar tree_4_3_u05_r13_network.node[31].content_store 	hits[31] 	2511
scalar tree_4_3_u05_r13_network.node[31].content_store 	misses[31] 	9635
scalar tree_4_3_u05_r13_network.node[31].content_store 	decision_yes[31] 	933
scalar tree_4_3_u05_r13_network.node[31].content_store 	decision_no[31] 	8702
scalar tree_4_3_u05_r13_network.node[31].content_store 	decision_ratio[31] 	0.096834457706279
scalar tree_4_3_u05_r13_network.node[32].core_layer 	interests[32] 	12051
scalar tree_4_3_u05_r13_network.node[32].core_layer 	data[32] 	9517
scalar tree_4_3_u05_r13_network.node[32].content_store 	p_hit[32] 	0.21027300638951
scalar tree_4_3_u05_r13_network.node[32].content_store 	hits[32] 	2534
scalar tree_4_3_u05_r13_network.node[32].content_store 	misses[32] 	9517
scalar tree_4_3_u05_r13_network.node[32].content_store 	decision_yes[32] 	972
scalar tree_4_3_u05_r13_network.node[32].content_store 	decision_no[32] 	8545
scalar tree_4_3_u05_r13_network.node[32].content_store 	decision_ratio[32] 	0.10213302511296
scalar tree_4_3_u05_r13_network.node[33].core_layer 	interests[33] 	12085
scalar tree_4_3_u05_r13_network.node[33].core_layer 	data[33] 	9605
scalar tree_4_3_u05_r13_network.node[33].content_store 	p_hit[33] 	0.20513032685147
scalar tree_4_3_u05_r13_network.node[33].content_store 	hits[33] 	2479
scalar tree_4_3_u05_r13_network.node[33].content_store 	misses[33] 	9606
scalar tree_4_3_u05_r13_network.node[33].content_store 	decision_yes[33] 	929
scalar tree_4_3_u05_r13_network.node[33].content_store 	decision_no[33] 	8676
scalar tree_4_3_u05_r13_network.node[33].content_store 	decision_ratio[33] 	0.096720458094742
scalar tree_4_3_u05_r13_network.node[34].core_layer 	interests[34] 	12207
scalar tree_4_3_u05_r13_network.node[34].core_layer 	data[34] 	9640
scalar tree_4_3_u05_r13_network.node[34].content_store 	p_hit[34] 	0.2102891783403
scalar tree_4_3_u05_r13_network.node[34].content_store 	hits[34] 	2567
scalar tree_4_3_u05_r13_network.node[34].content_store 	misses[34] 	9640
scalar tree_4_3_u05_r13_network.node[34].content_store 	decision_yes[34] 	946
scalar tree_4_3_u05_r13_network.node[34].content_store 	decision_no[34] 	8694
scalar tree_4_3_u05_r13_network.node[34].content_store 	decision_ratio[34] 	0.098132780082988
scalar tree_4_3_u05_r13_network.node[35].core_layer 	interests[35] 	12017
scalar tree_4_3_u05_r13_network.node[35].core_layer 	data[35] 	9519
scalar tree_4_3_u05_r13_network.node[35].content_store 	p_hit[35] 	0.20787218107681
scalar tree_4_3_u05_r13_network.node[35].content_store 	hits[35] 	2498
scalar tree_4_3_u05_r13_network.node[35].content_store 	misses[35] 	9519
scalar tree_4_3_u05_r13_network.node[35].content_store 	decision_yes[35] 	970
scalar tree_4_3_u05_r13_network.node[35].content_store 	decision_no[35] 	8549
scalar tree_4_3_u05_r13_network.node[35].content_store 	decision_ratio[35] 	0.10190146023742
scalar tree_4_3_u05_r13_network.node[36].core_layer 	interests[36] 	12052
scalar tree_4_3_u05_r13_network.node[36].core_layer 	data[36] 	9420
scalar tree_4_3_u05_r13_network.node[36].content_store 	p_hit[36] 	0.21830401593097
scalar tree_4_3_u05_r13_network.node[36].content_store 	hits[36] 	2631
scalar tree_4_3_u05_r13_network.node[36].content_store 	misses[36] 	9421
scalar tree_4_3_u05_r13_network.node[36].content_store 	decision_yes[36] 	927
scalar tree_4_3_u05_r13_network.node[36].content_store 	decision_no[36] 	8493
scalar tree_4_3_u05_r13_network.node[36].content_store 	decision_ratio[36] 	0.098407643312102
scalar tree_4_3_u05_r13_network.node[37].core_layer 	interests[37] 	12042
scalar tree_4_3_u05_r13_network.node[37].core_layer 	data[37] 	9607
scalar tree_4_3_u05_r13_network.node[37].content_store 	p_hit[37] 	0.20220893539279
scalar tree_4_3_u05_r13_network.node[37].content_store 	hits[37] 	2435
scalar tree_4_3_u05_r13_network.node[37].content_store 	misses[37] 	9607
scalar tree_4_3_u05_r13_network.node[37].content_store 	decision_yes[37] 	988
scalar tree_4_3_u05_r13_network.node[37].content_store 	decision_no[37] 	8619
scalar tree_4_3_u05_r13_network.node[37].content_store 	decision_ratio[37] 	0.10284167794317
scalar tree_4_3_u05_r13_network.node[38].core_layer 	interests[38] 	12025
scalar tree_4_3_u05_r13_network.node[38].core_layer 	data[38] 	9479
scalar tree_4_3_u05_r13_network.node[38].content_store 	p_hit[38] 	0.21172557172557
scalar tree_4_3_u05_r13_network.node[38].content_store 	hits[38] 	2546
scalar tree_4_3_u05_r13_network.node[38].content_store 	misses[38] 	9479
scalar tree_4_3_u05_r13_network.node[38].content_store 	decision_yes[38] 	1013
scalar tree_4_3_u05_r13_network.node[38].content_store 	decision_no[38] 	8466
scalar tree_4_3_u05_r13_network.node[38].content_store 	decision_ratio[38] 	0.10686781306045
scalar tree_4_3_u05_r13_network.node[39].core_layer 	interests[39] 	12060
scalar tree_4_3_u05_r13_network.node[39].core_layer 	data[39] 	9586
scalar tree_4_3_u05_r13_network.node[39].content_store 	p_hit[39] 	0.20514096185738
scalar tree_4_3_u05_r13_network.node[39].content_store 	hits[39] 	2474
scalar tree_4_3_u05_r13_network.node[39].content_store 	misses[39] 	9586
scalar tree_4_3_u05_r13_network.node[39].content_store 	decision_yes[39] 	1017
scalar tree_4_3_u05_r13_network.node[39].content_store 	decision_no[39] 	8569
scalar tree_4_3_u05_r13_network.node[39].content_store 	decision_ratio[39] 	0.10609221781765
scalar tree_4_3_u05_r13_network.client[13] 	hdistance[13] 	3.0298545118157
scalar tree_4_3_u05_r13_network.client[13] 	downloads[13] 	11891
scalar tree_4_3_u05_r13_network.client[13] 	avg_time[13] 	0.004596582706
scalar tree_4_3_u05_r13_network.client[14] 	hdistance[14] 	3.0499749289654
scalar tree_4_3_u05_r13_network.client[14] 	downloads[14] 	11966
scalar tree_4_3_u05_r13_network.client[14] 	avg_time[14] 	0.004626499643
scalar tree_4_3_u05_r13_network.client[15] 	hdistance[15] 	3.0129990714949
scalar tree_4_3_u05_r13_network.client[15] 	downloads[15] 	11847
scalar tree_4_3_u05_r13_network.client[15] 	avg_time[15] 	0.004571734118
scalar tree_4_3_u05_r13_network.client[16] 	hdistance[16] 	3.0677994061366
scalar tree_4_3_u05_r13_network.client[16] 	downloads[16] 	12124
scalar tree_4_3_u05_r13_network.client[16] 	avg_time[16] 	0.00465403809
scalar tree_4_3_u05_r13_network.client[17] 	hdistance[17] 	2.9871731214829
scalar tree_4_3_u05_r13_network.client[17] 	downloads[17] 	12084
scalar tree_4_3_u05_r13_network.client[17] 	avg_time[17] 	0.004530466518
scalar tree_4_3_u05_r13_network.client[18] 	hdistance[18] 	3.045233299765
scalar tree_4_3_u05_r13_network.client[18] 	downloads[18] 	11916
scalar tree_4_3_u05_r13_network.client[18] 	avg_time[18] 	0.004621642604
scalar tree_4_3_u05_r13_network.client[19] 	hdistance[19] 	2.9934477896658
scalar tree_4_3_u05_r13_network.client[19] 	downloads[19] 	12057
scalar tree_4_3_u05_r13_network.client[19] 	avg_time[19] 	0.004540761656
scalar tree_4_3_u05_r13_network.client[20] 	hdistance[20] 	3.0353028308098
scalar tree_4_3_u05_r13_network.client[20] 	downloads[20] 	12152
scalar tree_4_3_u05_r13_network.client[20] 	avg_time[20] 	0.004605969718
scalar tree_4_3_u05_r13_network.client[21] 	hdistance[21] 	3.0444013817508
scalar tree_4_3_u05_r13_network.client[21] 	downloads[21] 	11869
scalar tree_4_3_u05_r13_network.client[21] 	avg_time[21] 	0.00461420208
scalar tree_4_3_u05_r13_network.client[22] 	hdistance[22] 	3.0726722180167
scalar tree_4_3_u05_r13_network.client[22] 	downloads[22] 	11889
scalar tree_4_3_u05_r13_network.client[22] 	avg_time[22] 	0.004664230536
scalar tree_4_3_u05_r13_network.client[23] 	hdistance[23] 	3.0055454394968
scalar tree_4_3_u05_r13_network.client[23] 	downloads[23] 	12082
scalar tree_4_3_u05_r13_network.client[23] 	avg_time[23] 	0.004561990051
scalar tree_4_3_u05_r13_network.client[24] 	hdistance[24] 	3.0336697551291
scalar tree_4_3_u05_r13_network.client[24] 	downloads[24] 	12088
scalar tree_4_3_u05_r13_network.client[24] 	avg_time[24] 	0.004603622547
scalar tree_4_3_u05_r13_network.client[25] 	hdistance[25] 	3.0223113562296
scalar tree_4_3_u05_r13_network.client[25] 	downloads[25] 	11967
scalar tree_4_3_u05_r13_network.client[25] 	avg_time[25] 	0.004581614412
scalar tree_4_3_u05_r13_network.client[26] 	hdistance[26] 	3.0326298838885
scalar tree_4_3_u05_r13_network.client[26] 	downloads[26] 	11799
scalar tree_4_3_u05_r13_network.client[26] 	avg_time[26] 	0.004601403946
scalar tree_4_3_u05_r13_network.client[27] 	hdistance[27] 	3.0324191637041
scalar tree_4_3_u05_r13_network.client[27] 	downloads[27] 	11814
scalar tree_4_3_u05_r13_network.client[27] 	avg_time[27] 	0.004601139611
scalar tree_4_3_u05_r13_network.client[28] 	hdistance[28] 	2.9949622166247
scalar tree_4_3_u05_r13_network.client[28] 	downloads[28] 	11910
scalar tree_4_3_u05_r13_network.client[28] 	avg_time[28] 	0.004545756901
scalar tree_4_3_u05_r13_network.client[29] 	hdistance[29] 	3.008679686196
scalar tree_4_3_u05_r13_network.client[29] 	downloads[29] 	11982
scalar tree_4_3_u05_r13_network.client[29] 	avg_time[29] 	0.004560671306
scalar tree_4_3_u05_r13_network.client[30] 	hdistance[30] 	3.0271689307442
scalar tree_4_3_u05_r13_network.client[30] 	downloads[30] 	11999
scalar tree_4_3_u05_r13_network.client[30] 	avg_time[30] 	0.004596880097
scalar tree_4_3_u05_r13_network.client[31] 	hdistance[31] 	3.0484933311378
scalar tree_4_3_u05_r13_network.client[31] 	downloads[31] 	12146
scalar tree_4_3_u05_r13_network.client[31] 	avg_time[31] 	0.004620283518
scalar tree_4_3_u05_r13_network.client[32] 	hdistance[32] 	3.0350178408431
scalar tree_4_3_u05_r13_network.client[32] 	downloads[32] 	12051
scalar tree_4_3_u05_r13_network.client[32] 	avg_time[32] 	0.004600279115
scalar tree_4_3_u05_r13_network.client[33] 	hdistance[33] 	3.0495696789143
scalar tree_4_3_u05_r13_network.client[33] 	downloads[33] 	12084
scalar tree_4_3_u05_r13_network.client[33] 	avg_time[33] 	0.004624932668
scalar tree_4_3_u05_r13_network.client[34] 	hdistance[34] 	3.0411239452773
scalar tree_4_3_u05_r13_network.client[34] 	downloads[34] 	12207
scalar tree_4_3_u05_r13_network.client[34] 	avg_time[34] 	0.004608008724
scalar tree_4_3_u05_r13_network.client[35] 	hdistance[35] 	3.0333693933594
scalar tree_4_3_u05_r13_network.client[35] 	downloads[35] 	12017
scalar tree_4_3_u05_r13_network.client[35] 	avg_time[35] 	0.004605638991
scalar tree_4_3_u05_r13_network.client[36] 	hdistance[36] 	3.0056426852543
scalar tree_4_3_u05_r13_network.client[36] 	downloads[36] 	12051
scalar tree_4_3_u05_r13_network.client[36] 	avg_time[36] 	0.00456040893
scalar tree_4_3_u05_r13_network.client[37] 	hdistance[37] 	3.063195482478
scalar tree_4_3_u05_r13_network.client[37] 	downloads[37] 	12042
scalar tree_4_3_u05_r13_network.client[37] 	avg_time[37] 	0.004644809649
scalar tree_4_3_u05_r13_network.client[38] 	hdistance[38] 	3.0386694386694
scalar tree_4_3_u05_r13_network.client[38] 	downloads[38] 	12025
scalar tree_4_3_u05_r13_network.client[38] 	avg_time[38] 	0.004604903428
scalar tree_4_3_u05_r13_network.client[39] 	hdistance[39] 	3.0593698175788
scalar tree_4_3_u05_r13_network.client[39] 	downloads[39] 	12060
scalar tree_4_3_u05_r13_network.client[39] 	avg_time[39] 	0.004638637102
