version 2
run General-145-20160902-15:09:01-7280
attr a 0.9
attr cd wfc0.01
attr configname General
attr cr lru
attr datetime 20160902-15:09:01
attr experiment General
attr fsize 1
attr inifile hw5115/scenario_Y/omnetp.ini
attr iterationvars "$name=tree_4_3, $un=07, $rep=6, $cd=wfc0.01, $cr=lru, $fsize=1, $a=0.9, $sl=nrr, $ttl=1000, $variance=0.05"
attr iterationvars2 "$name=tree_4_3, $un=07, $rep=6, $cd=wfc0.01, $cr=lru, $fsize=1, $a=0.9, $sl=nrr, $ttl=1000, $variance=0.05, $repetition=0"
attr measurement "$name=tree_4_3, $un=07, $rep=6, $cd=wfc0.01, $cr=lru, $fsize=1, $a=0.9, $sl=nrr, $ttl=1000, $variance=0.05"
attr name tree_4_3
attr network networks.${name}_u${un}_r${rep}_network
attr processid 7280
attr rep 6
attr repetition 0
attr replication #0
attr resultdir results
attr runnumber 145
attr seedset 6
attr sl nrr
attr ttl 1000
attr un 07
attr variance 0.05

scalar . 	a 	0.9
scalar . 	fsize 	1
scalar . 	rep 	6
scalar . 	ttl 	1000
scalar . 	un 	07
scalar . 	variance 	0.05
scalar tree_4_3_u07_r6_network.content_distribution 	repo-0 	0
scalar tree_4_3_u07_r6_network.content_distribution 	client-0 	13
scalar tree_4_3_u07_r6_network.content_distribution 	client-1 	14
scalar tree_4_3_u07_r6_network.content_distribution 	client-2 	15
scalar tree_4_3_u07_r6_network.content_distribution 	client-3 	16
scalar tree_4_3_u07_r6_network.content_distribution 	client-4 	17
scalar tree_4_3_u07_r6_network.content_distribution 	client-5 	18
scalar tree_4_3_u07_r6_network.content_distribution 	client-6 	19
scalar tree_4_3_u07_r6_network.content_distribution 	client-7 	20
scalar tree_4_3_u07_r6_network.content_distribution 	client-8 	21
scalar tree_4_3_u07_r6_network.content_distribution 	client-9 	22
scalar tree_4_3_u07_r6_network.content_distribution 	client-10 	23
scalar tree_4_3_u07_r6_network.content_distribution 	client-11 	24
scalar tree_4_3_u07_r6_network.content_distribution 	client-12 	25
scalar tree_4_3_u07_r6_network.content_distribution 	client-13 	26
scalar tree_4_3_u07_r6_network.content_distribution 	client-14 	27
scalar tree_4_3_u07_r6_network.content_distribution 	client-15 	28
scalar tree_4_3_u07_r6_network.content_distribution 	client-16 	29
scalar tree_4_3_u07_r6_network.content_distribution 	client-17 	30
scalar tree_4_3_u07_r6_network.content_distribution 	client-18 	31
scalar tree_4_3_u07_r6_network.content_distribution 	client-19 	32
scalar tree_4_3_u07_r6_network.content_distribution 	client-20 	33
scalar tree_4_3_u07_r6_network.content_distribution 	client-21 	34
scalar tree_4_3_u07_r6_network.content_distribution 	client-22 	35
scalar tree_4_3_u07_r6_network.content_distribution 	client-23 	36
scalar tree_4_3_u07_r6_network.content_distribution 	client-24 	37
scalar tree_4_3_u07_r6_network.content_distribution 	client-25 	38
scalar tree_4_3_u07_r6_network.content_distribution 	client-26 	39
scalar tree_4_3_u07_r6_network.content_distribution 	repo-0_card 	100000
scalar tree_4_3_u07_r6_network.content_distribution 	repo-0_price 	0
scalar tree_4_3_u07_r6_network.statistics 	stabilization_time 	1432.3
scalar tree_4_3_u07_r6_network.statistics 	p_hit 	0.23344089322489
scalar tree_4_3_u07_r6_network.statistics 	interests 	25076.825
scalar tree_4_3_u07_r6_network.statistics 	data 	16972.05
scalar tree_4_3_u07_r6_network.statistics 	hdistance 	2.6726239560607
scalar tree_4_3_u07_r6_network.statistics 	avg_time 	0.004188133361
scalar tree_4_3_u07_r6_network.statistics 	downloads 	324187
scalar tree_4_3_u07_r6_network.statistics 	total_cost 	0
scalar tree_4_3_u07_r6_network.statistics 	total_replicas 	100000
scalar tree_4_3_u07_r6_network.statistics 	inner_hit 	0.42148204585625
scalar tree_4_3_u07_r6_network.node[0].core_layer 	interests[0] 	189635
scalar tree_4_3_u07_r6_network.node[0].core_layer 	repo_load[0] 	187548
scalar tree_4_3_u07_r6_network.node[0].core_layer 	data[0] 	0
scalar tree_4_3_u07_r6_network.node[0].core_layer 	repo_int[0] 	187548
scalar tree_4_3_u07_r6_network.node[0].content_store 	p_hit[0] 	0.011005352387481
scalar tree_4_3_u07_r6_network.node[0].content_store 	hits[0] 	2087
scalar tree_4_3_u07_r6_network.node[0].content_store 	misses[0] 	187548
scalar tree_4_3_u07_r6_network.node[0].content_store 	decision_yes[0] 	2710
scalar tree_4_3_u07_r6_network.node[0].content_store 	decision_no[0] 	184838
scalar tree_4_3_u07_r6_network.node[0].content_store 	decision_ratio[0] 	0.014449634226971
scalar tree_4_3_u07_r6_network.node[1].core_layer 	interests[1] 	129622
scalar tree_4_3_u07_r6_network.node[1].core_layer 	data[1] 	127616
scalar tree_4_3_u07_r6_network.node[1].content_store 	p_hit[1] 	0.015460338522782
scalar tree_4_3_u07_r6_network.node[1].content_store 	hits[1] 	2004
scalar tree_4_3_u07_r6_network.node[1].content_store 	misses[1] 	127618
scalar tree_4_3_u07_r6_network.node[1].content_store 	decision_yes[1] 	1471
scalar tree_4_3_u07_r6_network.node[1].content_store 	decision_no[1] 	126145
scalar tree_4_3_u07_r6_network.node[1].content_store 	decision_ratio[1] 	0.01152676780341
scalar tree_4_3_u07_r6_network.node[2].core_layer 	interests[2] 	71313
scalar tree_4_3_u07_r6_network.node[2].core_layer 	data[2] 	69268
scalar tree_4_3_u07_r6_network.node[2].content_store 	p_hit[2] 	0.028648353035211
scalar tree_4_3_u07_r6_network.node[2].content_store 	hits[2] 	2043
scalar tree_4_3_u07_r6_network.node[2].content_store 	misses[2] 	69270
scalar tree_4_3_u07_r6_network.node[2].content_store 	decision_yes[2] 	808
scalar tree_4_3_u07_r6_network.node[2].content_store 	decision_no[2] 	68460
scalar tree_4_3_u07_r6_network.node[2].content_store 	decision_ratio[2] 	0.011664838020442
scalar tree_4_3_u07_r6_network.node[3].core_layer 	interests[3] 	10730
scalar tree_4_3_u07_r6_network.node[3].core_layer 	data[3] 	8682
scalar tree_4_3_u07_r6_network.node[3].content_store 	p_hit[3] 	0.19086672879776
scalar tree_4_3_u07_r6_network.node[3].content_store 	hits[3] 	2048
scalar tree_4_3_u07_r6_network.node[3].content_store 	misses[3] 	8682
scalar tree_4_3_u07_r6_network.node[3].content_store 	decision_yes[3] 	158
scalar tree_4_3_u07_r6_network.node[3].content_store 	decision_no[3] 	8524
scalar tree_4_3_u07_r6_network.node[3].content_store 	decision_ratio[3] 	0.01819857175766
scalar tree_4_3_u07_r6_network.node[4].core_layer 	interests[4] 	44387
scalar tree_4_3_u07_r6_network.node[4].core_layer 	data[4] 	41958
scalar tree_4_3_u07_r6_network.node[4].content_store 	p_hit[4] 	0.054723229774484
scalar tree_4_3_u07_r6_network.node[4].content_store 	hits[4] 	2429
scalar tree_4_3_u07_r6_network.node[4].content_store 	misses[4] 	41958
scalar tree_4_3_u07_r6_network.node[4].content_store 	decision_yes[4] 	618
scalar tree_4_3_u07_r6_network.node[4].content_store 	decision_no[4] 	41340
scalar tree_4_3_u07_r6_network.node[4].content_store 	decision_ratio[4] 	0.014729014729015
scalar tree_4_3_u07_r6_network.node[5].core_layer 	interests[5] 	19571
scalar tree_4_3_u07_r6_network.node[5].core_layer 	data[5] 	17093
scalar tree_4_3_u07_r6_network.node[5].content_store 	p_hit[5] 	0.12661591129733
scalar tree_4_3_u07_r6_network.node[5].content_store 	hits[5] 	2478
scalar tree_4_3_u07_r6_network.node[5].content_store 	misses[5] 	17093
scalar tree_4_3_u07_r6_network.node[5].content_store 	decision_yes[5] 	239
scalar tree_4_3_u07_r6_network.node[5].content_store 	decision_no[5] 	16854
scalar tree_4_3_u07_r6_network.node[5].content_store 	decision_ratio[5] 	0.013982331948751
scalar tree_4_3_u07_r6_network.node[6].core_layer 	interests[6] 	20990
scalar tree_4_3_u07_r6_network.node[6].core_layer 	data[6] 	18011
scalar tree_4_3_u07_r6_network.node[6].content_store 	p_hit[6] 	0.14197236779419
scalar tree_4_3_u07_r6_network.node[6].content_store 	hits[6] 	2980
scalar tree_4_3_u07_r6_network.node[6].content_store 	misses[6] 	18010
scalar tree_4_3_u07_r6_network.node[6].content_store 	decision_yes[6] 	393
scalar tree_4_3_u07_r6_network.node[6].content_store 	decision_no[6] 	17618
scalar tree_4_3_u07_r6_network.node[6].content_store 	decision_ratio[6] 	0.021819998889567
scalar tree_4_3_u07_r6_network.node[7].core_layer 	interests[7] 	37898
scalar tree_4_3_u07_r6_network.node[7].core_layer 	data[7] 	34050
scalar tree_4_3_u07_r6_network.node[7].content_store 	p_hit[7] 	0.10153570109241
scalar tree_4_3_u07_r6_network.node[7].content_store 	hits[7] 	3848
scalar tree_4_3_u07_r6_network.node[7].content_store 	misses[7] 	34050
scalar tree_4_3_u07_r6_network.node[7].content_store 	decision_yes[7] 	551
scalar tree_4_3_u07_r6_network.node[7].content_store 	decision_no[7] 	33499
scalar tree_4_3_u07_r6_network.node[7].content_store 	decision_ratio[7] 	0.016182085168869
scalar tree_4_3_u07_r6_network.node[8].core_layer 	interests[8] 	28757
scalar tree_4_3_u07_r6_network.node[8].core_layer 	data[8] 	26123
scalar tree_4_3_u07_r6_network.node[8].content_store 	p_hit[8] 	0.091595089891157
scalar tree_4_3_u07_r6_network.node[8].content_store 	hits[8] 	2634
scalar tree_4_3_u07_r6_network.node[8].content_store 	misses[8] 	26123
scalar tree_4_3_u07_r6_network.node[8].content_store 	decision_yes[8] 	441
scalar tree_4_3_u07_r6_network.node[8].content_store 	decision_no[8] 	25682
scalar tree_4_3_u07_r6_network.node[8].content_store 	decision_ratio[8] 	0.016881675152165
scalar tree_4_3_u07_r6_network.node[9].core_layer 	interests[9] 	19721
scalar tree_4_3_u07_r6_network.node[9].core_layer 	data[9] 	17472
scalar tree_4_3_u07_r6_network.node[9].content_store 	p_hit[9] 	0.11404087013843
scalar tree_4_3_u07_r6_network.node[9].content_store 	hits[9] 	2249
scalar tree_4_3_u07_r6_network.node[9].content_store 	misses[9] 	17472
scalar tree_4_3_u07_r6_network.node[9].content_store 	decision_yes[9] 	281
scalar tree_4_3_u07_r6_network.node[9].content_store 	decision_no[9] 	17191
scalar tree_4_3_u07_r6_network.node[9].content_store 	decision_ratio[9] 	0.016082875457875
scalar tree_4_3_u07_r6_network.node[10].core_layer 	interests[10] 	36500
scalar tree_4_3_u07_r6_network.node[10].core_layer 	data[10] 	33413
scalar tree_4_3_u07_r6_network.node[10].content_store 	p_hit[10] 	0.084575342465753
scalar tree_4_3_u07_r6_network.node[10].content_store 	hits[10] 	3087
scalar tree_4_3_u07_r6_network.node[10].content_store 	misses[10] 	33413
scalar tree_4_3_u07_r6_network.node[10].content_store 	decision_yes[10] 	548
scalar tree_4_3_u07_r6_network.node[10].content_store 	decision_no[10] 	32865
scalar tree_4_3_u07_r6_network.node[10].content_store 	decision_ratio[10] 	0.016400802083022
scalar tree_4_3_u07_r6_network.node[11].core_layer 	interests[11] 	37723
scalar tree_4_3_u07_r6_network.node[11].core_layer 	data[11] 	34704
scalar tree_4_3_u07_r6_network.node[11].content_store 	p_hit[11] 	0.080004241444212
scalar tree_4_3_u07_r6_network.node[11].content_store 	hits[11] 	3018
scalar tree_4_3_u07_r6_network.node[11].content_store 	misses[11] 	34705
scalar tree_4_3_u07_r6_network.node[11].content_store 	decision_yes[11] 	592
scalar tree_4_3_u07_r6_network.node[11].content_store 	decision_no[11] 	34112
scalar tree_4_3_u07_r6_network.node[11].content_store 	decision_ratio[11] 	0.017058552328262
scalar tree_4_3_u07_r6_network.node[12].core_layer 	interests[12] 	11691
scalar tree_4_3_u07_r6_network.node[12].core_layer 	data[12] 	9186
scalar tree_4_3_u07_r6_network.node[12].content_store 	p_hit[12] 	0.21426738516808
scalar tree_4_3_u07_r6_network.node[12].content_store 	hits[12] 	2505
scalar tree_4_3_u07_r6_network.node[12].content_store 	misses[12] 	9186
scalar tree_4_3_u07_r6_network.node[12].content_store 	decision_yes[12] 	210
scalar tree_4_3_u07_r6_network.node[12].content_store 	decision_no[12] 	8976
scalar tree_4_3_u07_r6_network.node[12].content_store 	decision_ratio[12] 	0.022860875244938
scalar tree_4_3_u07_r6_network.node[13].core_layer 	interests[13] 	12645
scalar tree_4_3_u07_r6_network.node[13].core_layer 	data[13] 	9036
scalar tree_4_3_u07_r6_network.node[13].content_store 	p_hit[13] 	0.28533017002768
scalar tree_4_3_u07_r6_network.node[13].content_store 	hits[13] 	3608
scalar tree_4_3_u07_r6_network.node[13].content_store 	misses[13] 	9037
scalar tree_4_3_u07_r6_network.node[13].content_store 	decision_yes[13] 	118
scalar tree_4_3_u07_r6_network.node[13].content_store 	decision_no[13] 	8918
scalar tree_4_3_u07_r6_network.node[13].content_store 	decision_ratio[13] 	0.013058875608676
scalar tree_4_3_u07_r6_network.node[14].core_layer 	interests[14] 	12840
scalar tree_4_3_u07_r6_network.node[14].core_layer 	data[14] 	8910
scalar tree_4_3_u07_r6_network.node[14].content_store 	p_hit[14] 	0.30607476635514
scalar tree_4_3_u07_r6_network.node[14].content_store 	hits[14] 	3930
scalar tree_4_3_u07_r6_network.node[14].content_store 	misses[14] 	8910
scalar tree_4_3_u07_r6_network.node[14].content_store 	decision_yes[14] 	129
scalar tree_4_3_u07_r6_network.node[14].content_store 	decision_no[14] 	8781
scalar tree_4_3_u07_r6_network.node[14].content_store 	decision_ratio[14] 	0.014478114478114
scalar tree_4_3_u07_r6_network.node[15].core_layer 	interests[15] 	13019
scalar tree_4_3_u07_r6_network.node[15].core_layer 	data[15] 	8960
scalar tree_4_3_u07_r6_network.node[15].content_store 	p_hit[15] 	0.31177509793379
scalar tree_4_3_u07_r6_network.node[15].content_store 	hits[15] 	4059
scalar tree_4_3_u07_r6_network.node[15].content_store 	misses[15] 	8960
scalar tree_4_3_u07_r6_network.node[15].content_store 	decision_yes[15] 	143
scalar tree_4_3_u07_r6_network.node[15].content_store 	decision_no[15] 	8817
scalar tree_4_3_u07_r6_network.node[15].content_store 	decision_ratio[15] 	0.015959821428571
scalar tree_4_3_u07_r6_network.node[16].core_layer 	interests[16] 	12943
scalar tree_4_3_u07_r6_network.node[16].core_layer 	data[16] 	8935
scalar tree_4_3_u07_r6_network.node[16].content_store 	p_hit[16] 	0.30966545623117
scalar tree_4_3_u07_r6_network.node[16].content_store 	hits[16] 	4008
scalar tree_4_3_u07_r6_network.node[16].content_store 	misses[16] 	8935
scalar tree_4_3_u07_r6_network.node[16].content_store 	decision_yes[16] 	110
scalar tree_4_3_u07_r6_network.node[16].content_store 	decision_no[16] 	8825
scalar tree_4_3_u07_r6_network.node[16].content_store 	decision_ratio[16] 	0.012311135982093
scalar tree_4_3_u07_r6_network.node[17].core_layer 	interests[17] 	12306
scalar tree_4_3_u07_r6_network.node[17].core_layer 	data[17] 	8735
scalar tree_4_3_u07_r6_network.node[17].content_store 	p_hit[17] 	0.29018365025191
scalar tree_4_3_u07_r6_network.node[17].content_store 	hits[17] 	3571
scalar tree_4_3_u07_r6_network.node[17].content_store 	misses[17] 	8735
scalar tree_4_3_u07_r6_network.node[17].content_store 	decision_yes[17] 	100
scalar tree_4_3_u07_r6_network.node[17].content_store 	decision_no[17] 	8635
scalar tree_4_3_u07_r6_network.node[17].content_store 	decision_ratio[17] 	0.011448196908987
scalar tree_4_3_u07_r6_network.node[18].core_layer 	interests[18] 	13034
scalar tree_4_3_u07_r6_network.node[18].core_layer 	data[18] 	9084
scalar tree_4_3_u07_r6_network.node[18].content_store 	p_hit[18] 	0.30305355224797
scalar tree_4_3_u07_r6_network.node[18].content_store 	hits[18] 	3950
scalar tree_4_3_u07_r6_network.node[18].content_store 	misses[18] 	9084
scalar tree_4_3_u07_r6_network.node[18].content_store 	decision_yes[18] 	145
scalar tree_4_3_u07_r6_network.node[18].content_store 	decision_no[18] 	8939
scalar tree_4_3_u07_r6_network.node[18].content_store 	decision_ratio[18] 	0.015962131219727
scalar tree_4_3_u07_r6_network.node[19].core_layer 	interests[19] 	13125
scalar tree_4_3_u07_r6_network.node[19].core_layer 	data[19] 	9010
scalar tree_4_3_u07_r6_network.node[19].content_store 	p_hit[19] 	0.31352380952381
scalar tree_4_3_u07_r6_network.node[19].content_store 	hits[19] 	4115
scalar tree_4_3_u07_r6_network.node[19].content_store 	misses[19] 	9010
scalar tree_4_3_u07_r6_network.node[19].content_store 	decision_yes[19] 	146
scalar tree_4_3_u07_r6_network.node[19].content_store 	decision_no[19] 	8864
scalar tree_4_3_u07_r6_network.node[19].content_store 	decision_ratio[19] 	0.016204217536071
scalar tree_4_3_u07_r6_network.node[20].core_layer 	interests[20] 	12519
scalar tree_4_3_u07_r6_network.node[20].core_layer 	data[20] 	8735
scalar tree_4_3_u07_r6_network.node[20].content_store 	p_hit[20] 	0.30234044252736
scalar tree_4_3_u07_r6_network.node[20].content_store 	hits[20] 	3785
scalar tree_4_3_u07_r6_network.node[20].content_store 	misses[20] 	8734
scalar tree_4_3_u07_r6_network.node[20].content_store 	decision_yes[20] 	137
scalar tree_4_3_u07_r6_network.node[20].content_store 	decision_no[20] 	8598
scalar tree_4_3_u07_r6_network.node[20].content_store 	decision_ratio[20] 	0.015684029765312
scalar tree_4_3_u07_r6_network.node[21].core_layer 	interests[21] 	12588
scalar tree_4_3_u07_r6_network.node[21].core_layer 	data[21] 	8985
scalar tree_4_3_u07_r6_network.node[21].content_store 	p_hit[21] 	0.28622497616778
scalar tree_4_3_u07_r6_network.node[21].content_store 	hits[21] 	3603
scalar tree_4_3_u07_r6_network.node[21].content_store 	misses[21] 	8985
scalar tree_4_3_u07_r6_network.node[21].content_store 	decision_yes[21] 	121
scalar tree_4_3_u07_r6_network.node[21].content_store 	decision_no[21] 	8864
scalar tree_4_3_u07_r6_network.node[21].content_store 	decision_ratio[21] 	0.013466889259878
scalar tree_4_3_u07_r6_network.node[22].core_layer 	interests[22] 	12763
scalar tree_4_3_u07_r6_network.node[22].core_layer 	data[22] 	9267
scalar tree_4_3_u07_r6_network.node[22].content_store 	p_hit[22] 	0.27383843923842
scalar tree_4_3_u07_r6_network.node[22].content_store 	hits[22] 	3495
scalar tree_4_3_u07_r6_network.node[22].content_store 	misses[22] 	9268
scalar tree_4_3_u07_r6_network.node[22].content_store 	decision_yes[22] 	116
scalar tree_4_3_u07_r6_network.node[22].content_store 	decision_no[22] 	9151
scalar tree_4_3_u07_r6_network.node[22].content_store 	decision_ratio[22] 	0.012517535340455
scalar tree_4_3_u07_r6_network.node[23].core_layer 	interests[23] 	13146
scalar tree_4_3_u07_r6_network.node[23].core_layer 	data[23] 	9049
scalar tree_4_3_u07_r6_network.node[23].content_store 	p_hit[23] 	0.31165373497642
scalar tree_4_3_u07_r6_network.node[23].content_store 	hits[23] 	4097
scalar tree_4_3_u07_r6_network.node[23].content_store 	misses[23] 	9049
scalar tree_4_3_u07_r6_network.node[23].content_store 	decision_yes[23] 	146
scalar tree_4_3_u07_r6_network.node[23].content_store 	decision_no[23] 	8903
scalar tree_4_3_u07_r6_network.node[23].content_store 	decision_ratio[23] 	0.016134379489446
scalar tree_4_3_u07_r6_network.node[24].core_layer 	interests[24] 	12969
scalar tree_4_3_u07_r6_network.node[24].core_layer 	data[24] 	8963
scalar tree_4_3_u07_r6_network.node[24].content_store 	p_hit[24] 	0.30889043102784
scalar tree_4_3_u07_r6_network.node[24].content_store 	hits[24] 	4006
scalar tree_4_3_u07_r6_network.node[24].content_store 	misses[24] 	8963
scalar tree_4_3_u07_r6_network.node[24].content_store 	decision_yes[24] 	128
scalar tree_4_3_u07_r6_network.node[24].content_store 	decision_no[24] 	8835
scalar tree_4_3_u07_r6_network.node[24].content_store 	decision_ratio[24] 	0.014280932723418
scalar tree_4_3_u07_r6_network.node[25].core_layer 	interests[25] 	13076
scalar tree_4_3_u07_r6_network.node[25].core_layer 	data[25] 	8831
scalar tree_4_3_u07_r6_network.node[25].content_store 	p_hit[25] 	0.32456408687672
scalar tree_4_3_u07_r6_network.node[25].content_store 	hits[25] 	4244
scalar tree_4_3_u07_r6_network.node[25].content_store 	misses[25] 	8832
scalar tree_4_3_u07_r6_network.node[25].content_store 	decision_yes[25] 	122
scalar tree_4_3_u07_r6_network.node[25].content_store 	decision_no[25] 	8709
scalar tree_4_3_u07_r6_network.node[25].content_store 	decision_ratio[25] 	0.013814969992073
scalar tree_4_3_u07_r6_network.node[26].core_layer 	interests[26] 	12523
scalar tree_4_3_u07_r6_network.node[26].core_layer 	data[26] 	8832
scalar tree_4_3_u07_r6_network.node[26].content_store 	p_hit[26] 	0.2947376826639
scalar tree_4_3_u07_r6_network.node[26].content_store 	hits[26] 	3691
scalar tree_4_3_u07_r6_network.node[26].content_store 	misses[26] 	8832
scalar tree_4_3_u07_r6_network.node[26].content_store 	decision_yes[26] 	97
scalar tree_4_3_u07_r6_network.node[26].content_store 	decision_no[26] 	8735
scalar tree_4_3_u07_r6_network.node[26].content_store 	decision_ratio[26] 	0.010982789855072
scalar tree_4_3_u07_r6_network.node[27].core_layer 	interests[27] 	12662
scalar tree_4_3_u07_r6_network.node[27].core_layer 	data[27] 	8981
scalar tree_4_3_u07_r6_network.node[27].content_store 	p_hit[27] 	0.29071236771442
scalar tree_4_3_u07_r6_network.node[27].content_store 	hits[27] 	3681
scalar tree_4_3_u07_r6_network.node[27].content_store 	misses[27] 	8981
scalar tree_4_3_u07_r6_network.node[27].content_store 	decision_yes[27] 	116
scalar tree_4_3_u07_r6_network.node[27].content_store 	decision_no[27] 	8865
scalar tree_4_3_u07_r6_network.node[27].content_store 	decision_ratio[27] 	0.01291615633003
scalar tree_4_3_u07_r6_network.node[28].core_layer 	interests[28] 	12275
scalar tree_4_3_u07_r6_network.node[28].core_layer 	data[28] 	8681
scalar tree_4_3_u07_r6_network.node[28].content_store 	p_hit[28] 	0.29279022403259
scalar tree_4_3_u07_r6_network.node[28].content_store 	hits[28] 	3594
scalar tree_4_3_u07_r6_network.node[28].content_store 	misses[28] 	8681
scalar tree_4_3_u07_r6_network.node[28].content_store 	decision_yes[28] 	105
scalar tree_4_3_u07_r6_network.node[28].content_store 	decision_no[28] 	8576
scalar tree_4_3_u07_r6_network.node[28].content_store 	decision_ratio[28] 	0.012095380716507
scalar tree_4_3_u07_r6_network.node[29].core_layer 	interests[29] 	13046
scalar tree_4_3_u07_r6_network.node[29].core_layer 	data[29] 	8927
scalar tree_4_3_u07_r6_network.node[29].content_store 	p_hit[29] 	0.3156523072206
scalar tree_4_3_u07_r6_network.node[29].content_store 	hits[29] 	4118
scalar tree_4_3_u07_r6_network.node[29].content_store 	misses[29] 	8928
scalar tree_4_3_u07_r6_network.node[29].content_store 	decision_yes[29] 	122
scalar tree_4_3_u07_r6_network.node[29].content_store 	decision_no[29] 	8805
scalar tree_4_3_u07_r6_network.node[29].content_store 	decision_ratio[29] 	0.013666405287331
scalar tree_4_3_u07_r6_network.node[30].core_layer 	interests[30] 	12277
scalar tree_4_3_u07_r6_network.node[30].core_layer 	data[30] 	8906
scalar tree_4_3_u07_r6_network.node[30].content_store 	p_hit[30] 	0.27457848008471
scalar tree_4_3_u07_r6_network.node[30].content_store 	hits[30] 	3371
scalar tree_4_3_u07_r6_network.node[30].content_store 	misses[30] 	8906
scalar tree_4_3_u07_r6_network.node[30].content_store 	decision_yes[30] 	130
scalar tree_4_3_u07_r6_network.node[30].content_store 	decision_no[30] 	8776
scalar tree_4_3_u07_r6_network.node[30].content_store 	decision_ratio[30] 	0.014596900965641
scalar tree_4_3_u07_r6_network.node[31].core_layer 	interests[31] 	12642
scalar tree_4_3_u07_r6_network.node[31].core_layer 	data[31] 	9079
scalar tree_4_3_u07_r6_network.node[31].content_store 	p_hit[31] 	0.28175921531403
scalar tree_4_3_u07_r6_network.node[31].content_store 	hits[31] 	3562
scalar tree_4_3_u07_r6_network.node[31].content_store 	misses[31] 	9080
scalar tree_4_3_u07_r6_network.node[31].content_store 	decision_yes[31] 	107
scalar tree_4_3_u07_r6_network.node[31].content_store 	decision_no[31] 	8972
scalar tree_4_3_u07_r6_network.node[31].content_store 	decision_ratio[31] 	0.011785438924992
scalar tree_4_3_u07_r6_network.node[32].core_layer 	interests[32] 	13339
scalar tree_4_3_u07_r6_network.node[32].core_layer 	data[32] 	9093
scalar tree_4_3_u07_r6_network.node[32].content_store 	p_hit[32] 	0.3183147162456
scalar tree_4_3_u07_r6_network.node[32].content_store 	hits[32] 	4246
scalar tree_4_3_u07_r6_network.node[32].content_store 	misses[32] 	9093
scalar tree_4_3_u07_r6_network.node[32].content_store 	decision_yes[32] 	139
scalar tree_4_3_u07_r6_network.node[32].content_store 	decision_no[32] 	8954
scalar tree_4_3_u07_r6_network.node[32].content_store 	decision_ratio[32] 	0.015286484108655
scalar tree_4_3_u07_r6_network.node[33].core_layer 	interests[33] 	12834
scalar tree_4_3_u07_r6_network.node[33].core_layer 	data[33] 	8892
scalar tree_4_3_u07_r6_network.node[33].content_store 	p_hit[33] 	0.30715287517532
scalar tree_4_3_u07_r6_network.node[33].content_store 	hits[33] 	3942
scalar tree_4_3_u07_r6_network.node[33].content_store 	misses[33] 	8892
scalar tree_4_3_u07_r6_network.node[33].content_store 	decision_yes[33] 	154
scalar tree_4_3_u07_r6_network.node[33].content_store 	decision_no[33] 	8738
scalar tree_4_3_u07_r6_network.node[33].content_store 	decision_ratio[33] 	0.01731893837157
scalar tree_4_3_u07_r6_network.node[34].core_layer 	interests[34] 	12428
scalar tree_4_3_u07_r6_network.node[34].core_layer 	data[34] 	8842
scalar tree_4_3_u07_r6_network.node[34].content_store 	p_hit[34] 	0.28854200193112
scalar tree_4_3_u07_r6_network.node[34].content_store 	hits[34] 	3586
scalar tree_4_3_u07_r6_network.node[34].content_store 	misses[34] 	8842
scalar tree_4_3_u07_r6_network.node[34].content_store 	decision_yes[34] 	105
scalar tree_4_3_u07_r6_network.node[34].content_store 	decision_no[34] 	8737
scalar tree_4_3_u07_r6_network.node[34].content_store 	decision_ratio[34] 	0.011875141370731
scalar tree_4_3_u07_r6_network.node[35].core_layer 	interests[35] 	12676
scalar tree_4_3_u07_r6_network.node[35].core_layer 	data[35] 	8999
scalar tree_4_3_u07_r6_network.node[35].content_store 	p_hit[35] 	0.29007573366993
scalar tree_4_3_u07_r6_network.node[35].content_store 	hits[35] 	3677
scalar tree_4_3_u07_r6_network.node[35].content_store 	misses[35] 	8999
scalar tree_4_3_u07_r6_network.node[35].content_store 	decision_yes[35] 	101
scalar tree_4_3_u07_r6_network.node[35].content_store 	decision_no[35] 	8898
scalar tree_4_3_u07_r6_network.node[35].content_store 	decision_ratio[35] 	0.011223469274364
scalar tree_4_3_u07_r6_network.node[36].core_layer 	interests[36] 	12786
scalar tree_4_3_u07_r6_network.node[36].core_layer 	data[36] 	8775
scalar tree_4_3_u07_r6_network.node[36].content_store 	p_hit[36] 	0.31370248709526
scalar tree_4_3_u07_r6_network.node[36].content_store 	hits[36] 	4011
scalar tree_4_3_u07_r6_network.node[36].content_store 	misses[36] 	8775
scalar tree_4_3_u07_r6_network.node[36].content_store 	decision_yes[36] 	138
scalar tree_4_3_u07_r6_network.node[36].content_store 	decision_no[36] 	8637
scalar tree_4_3_u07_r6_network.node[36].content_store 	decision_ratio[36] 	0.015726495726496
scalar tree_4_3_u07_r6_network.node[37].core_layer 	interests[37] 	12846
scalar tree_4_3_u07_r6_network.node[37].core_layer 	data[37] 	8988
scalar tree_4_3_u07_r6_network.node[37].content_store 	p_hit[37] 	0.30032695002335
scalar tree_4_3_u07_r6_network.node[37].content_store 	hits[37] 	3858
scalar tree_4_3_u07_r6_network.node[37].content_store 	misses[37] 	8988
scalar tree_4_3_u07_r6_network.node[37].content_store 	decision_yes[37] 	145
scalar tree_4_3_u07_r6_network.node[37].content_store 	decision_no[37] 	8843
scalar tree_4_3_u07_r6_network.node[37].content_store 	decision_ratio[37] 	0.016132621272808
scalar tree_4_3_u07_r6_network.node[38].core_layer 	interests[38] 	13074
scalar tree_4_3_u07_r6_network.node[38].core_layer 	data[38] 	9034
scalar tree_4_3_u07_r6_network.node[38].content_store 	p_hit[38] 	0.30901024934985
scalar tree_4_3_u07_r6_network.node[38].content_store 	hits[38] 	4040
scalar tree_4_3_u07_r6_network.node[38].content_store 	misses[38] 	9034
scalar tree_4_3_u07_r6_network.node[38].content_store 	decision_yes[38] 	128
scalar tree_4_3_u07_r6_network.node[38].content_store 	decision_no[38] 	8906
scalar tree_4_3_u07_r6_network.node[38].content_store 	decision_ratio[38] 	0.014168696037193
scalar tree_4_3_u07_r6_network.node[39].core_layer 	interests[39] 	12154
scalar tree_4_3_u07_r6_network.node[39].core_layer 	data[39] 	8777
scalar tree_4_3_u07_r6_network.node[39].content_store 	p_hit[39] 	0.27785091327958
scalar tree_4_3_u07_r6_network.node[39].content_store 	hits[39] 	3377
scalar tree_4_3_u07_r6_network.node[39].content_store 	misses[39] 	8777
scalar tree_4_3_u07_r6_network.node[39].content_store 	decision_yes[39] 	109
scalar tree_4_3_u07_r6_network.node[39].content_store 	decision_no[39] 	8668
scalar tree_4_3_u07_r6_network.node[39].content_store 	decision_ratio[39] 	0.01241882192093
scalar tree_4_3_u07_r6_network.client[13] 	hdistance[13] 	2.734138472992
scalar tree_4_3_u07_r6_network.client[13] 	downloads[13] 	12089
scalar tree_4_3_u07_r6_network.client[13] 	avg_time[13] 	0.004285713273
scalar tree_4_3_u07_r6_network.client[14] 	hdistance[14] 	2.6640233722871
scalar tree_4_3_u07_r6_network.client[14] 	downloads[14] 	11980
scalar tree_4_3_u07_r6_network.client[14] 	avg_time[14] 	0.004161432707
scalar tree_4_3_u07_r6_network.client[15] 	hdistance[15] 	2.6667224640107
scalar tree_4_3_u07_r6_network.client[15] 	downloads[15] 	11948
scalar tree_4_3_u07_r6_network.client[15] 	avg_time[15] 	0.004170736881
scalar tree_4_3_u07_r6_network.client[16] 	hdistance[16] 	2.6380240763802
scalar tree_4_3_u07_r6_network.client[16] 	downloads[16] 	12045
scalar tree_4_3_u07_r6_network.client[16] 	avg_time[16] 	0.004133164334
scalar tree_4_3_u07_r6_network.client[17] 	hdistance[17] 	2.6998656365469
scalar tree_4_3_u07_r6_network.client[17] 	downloads[17] 	11908
scalar tree_4_3_u07_r6_network.client[17] 	avg_time[17] 	0.004246889855
scalar tree_4_3_u07_r6_network.client[18] 	hdistance[18] 	2.6652909616178
scalar tree_4_3_u07_r6_network.client[18] 	downloads[18] 	12115
scalar tree_4_3_u07_r6_network.client[18] 	avg_time[18] 	0.004170034146
scalar tree_4_3_u07_r6_network.client[19] 	hdistance[19] 	2.6773306673332
scalar tree_4_3_u07_r6_network.client[19] 	downloads[19] 	12003
scalar tree_4_3_u07_r6_network.client[19] 	avg_time[19] 	0.004179618766
scalar tree_4_3_u07_r6_network.client[20] 	hdistance[20] 	2.6348812184422
scalar tree_4_3_u07_r6_network.client[20] 	downloads[20] 	12081
scalar tree_4_3_u07_r6_network.client[20] 	avg_time[20] 	0.004129290931
scalar tree_4_3_u07_r6_network.client[21] 	hdistance[21] 	2.7167410345398
scalar tree_4_3_u07_r6_network.client[21] 	downloads[21] 	12102
scalar tree_4_3_u07_r6_network.client[21] 	avg_time[21] 	0.004255817326
scalar tree_4_3_u07_r6_network.client[22] 	hdistance[22] 	2.743210895584
scalar tree_4_3_u07_r6_network.client[22] 	downloads[22] 	12115
scalar tree_4_3_u07_r6_network.client[22] 	avg_time[22] 	0.004359551247
scalar tree_4_3_u07_r6_network.client[23] 	hdistance[23] 	2.6375621890547
scalar tree_4_3_u07_r6_network.client[23] 	downloads[23] 	12060
scalar tree_4_3_u07_r6_network.client[23] 	avg_time[23] 	0.00416187621
scalar tree_4_3_u07_r6_network.client[24] 	hdistance[24] 	2.642851167071
scalar tree_4_3_u07_r6_network.client[24] 	downloads[24] 	11953
scalar tree_4_3_u07_r6_network.client[24] 	avg_time[24] 	0.00416710448
scalar tree_4_3_u07_r6_network.client[25] 	hdistance[25] 	2.6085936845632
scalar tree_4_3_u07_r6_network.client[25] 	downloads[25] 	11939
scalar tree_4_3_u07_r6_network.client[25] 	avg_time[25] 	0.004106371106
scalar tree_4_3_u07_r6_network.client[26] 	hdistance[26] 	2.6913014497584
scalar tree_4_3_u07_r6_network.client[26] 	downloads[26] 	12002
scalar tree_4_3_u07_r6_network.client[26] 	avg_time[26] 	0.004200796874
scalar tree_4_3_u07_r6_network.client[27] 	hdistance[27] 	2.7307053941909
scalar tree_4_3_u07_r6_network.client[27] 	downloads[27] 	12050
scalar tree_4_3_u07_r6_network.client[27] 	avg_time[27] 	0.004257922307
scalar tree_4_3_u07_r6_network.client[28] 	hdistance[28] 	2.6971907756813
scalar tree_4_3_u07_r6_network.client[28] 	downloads[28] 	11925
scalar tree_4_3_u07_r6_network.client[28] 	avg_time[28] 	0.004204441462
scalar tree_4_3_u07_r6_network.client[29] 	hdistance[29] 	2.6710646419384
scalar tree_4_3_u07_r6_network.client[29] 	downloads[29] 	12051
scalar tree_4_3_u07_r6_network.client[29] 	avg_time[29] 	0.00413892873
scalar tree_4_3_u07_r6_network.client[30] 	hdistance[30] 	2.7306465155332
scalar tree_4_3_u07_r6_network.client[30] 	downloads[30] 	11910
scalar tree_4_3_u07_r6_network.client[30] 	avg_time[30] 	0.004273044881
scalar tree_4_3_u07_r6_network.client[31] 	hdistance[31] 	2.703817173139
scalar tree_4_3_u07_r6_network.client[31] 	downloads[31] 	12077
scalar tree_4_3_u07_r6_network.client[31] 	avg_time[31] 	0.004275218599
scalar tree_4_3_u07_r6_network.client[32] 	hdistance[32] 	2.6335476329632
scalar tree_4_3_u07_r6_network.client[32] 	downloads[32] 	11977
scalar tree_4_3_u07_r6_network.client[32] 	avg_time[32] 	0.004159636299
scalar tree_4_3_u07_r6_network.client[33] 	hdistance[33] 	2.6265806883846
scalar tree_4_3_u07_r6_network.client[33] 	downloads[33] 	11941
scalar tree_4_3_u07_r6_network.client[33] 	avg_time[33] 	0.004123772216
scalar tree_4_3_u07_r6_network.client[34] 	hdistance[34] 	2.6741402562374
scalar tree_4_3_u07_r6_network.client[34] 	downloads[34] 	11864
scalar tree_4_3_u07_r6_network.client[34] 	avg_time[34] 	0.004201044945
scalar tree_4_3_u07_r6_network.client[35] 	hdistance[35] 	2.6888335408883
scalar tree_4_3_u07_r6_network.client[35] 	downloads[35] 	12045
scalar tree_4_3_u07_r6_network.client[35] 	avg_time[35] 	0.004217359194
scalar tree_4_3_u07_r6_network.client[36] 	hdistance[36] 	2.6138907734057
scalar tree_4_3_u07_r6_network.client[36] 	downloads[36] 	11792
scalar tree_4_3_u07_r6_network.client[36] 	avg_time[36] 	0.004080220908
scalar tree_4_3_u07_r6_network.client[37] 	hdistance[37] 	2.6371718178797
scalar tree_4_3_u07_r6_network.client[37] 	downloads[37] 	12036
scalar tree_4_3_u07_r6_network.client[37] 	avg_time[37] 	0.004136254897
scalar tree_4_3_u07_r6_network.client[38] 	hdistance[38] 	2.6202087750775
scalar tree_4_3_u07_r6_network.client[38] 	downloads[38] 	12262
scalar tree_4_3_u07_r6_network.client[38] 	avg_time[38] 	0.004084485596
scalar tree_4_3_u07_r6_network.client[39] 	hdistance[39] 	2.7125115381388
scalar tree_4_3_u07_r6_network.client[39] 	downloads[39] 	11917
scalar tree_4_3_u07_r6_network.client[39] 	avg_time[39] 	0.004198872587
