version 2
run General-142-20160902-15:04:01-7280
attr a 0.9
attr cd wfc0.01
attr configname General
attr cr lru
attr datetime 20160902-15:04:01
attr experiment General
attr fsize 1
attr inifile hw5115/scenario_Y/omnetp.ini
attr iterationvars "$name=tree_4_3, $un=07, $rep=3, $cd=wfc0.01, $cr=lru, $fsize=1, $a=0.9, $sl=nrr, $ttl=1000, $variance=0.05"
attr iterationvars2 "$name=tree_4_3, $un=07, $rep=3, $cd=wfc0.01, $cr=lru, $fsize=1, $a=0.9, $sl=nrr, $ttl=1000, $variance=0.05, $repetition=0"
attr measurement "$name=tree_4_3, $un=07, $rep=3, $cd=wfc0.01, $cr=lru, $fsize=1, $a=0.9, $sl=nrr, $ttl=1000, $variance=0.05"
attr name tree_4_3
attr network networks.${name}_u${un}_r${rep}_network
attr processid 7280
attr rep 3
attr repetition 0
attr replication #0
attr resultdir results
attr runnumber 142
attr seedset 3
attr sl nrr
attr ttl 1000
attr un 07
attr variance 0.05

scalar . 	a 	0.9
scalar . 	fsize 	1
scalar . 	rep 	3
scalar . 	ttl 	1000
scalar . 	un 	07
scalar . 	variance 	0.05
scalar tree_4_3_u07_r3_network.content_distribution 	repo-0 	0
scalar tree_4_3_u07_r3_network.content_distribution 	client-0 	13
scalar tree_4_3_u07_r3_network.content_distribution 	client-1 	14
scalar tree_4_3_u07_r3_network.content_distribution 	client-2 	15
scalar tree_4_3_u07_r3_network.content_distribution 	client-3 	16
scalar tree_4_3_u07_r3_network.content_distribution 	client-4 	17
scalar tree_4_3_u07_r3_network.content_distribution 	client-5 	18
scalar tree_4_3_u07_r3_network.content_distribution 	client-6 	19
scalar tree_4_3_u07_r3_network.content_distribution 	client-7 	20
scalar tree_4_3_u07_r3_network.content_distribution 	client-8 	21
scalar tree_4_3_u07_r3_network.content_distribution 	client-9 	22
scalar tree_4_3_u07_r3_network.content_distribution 	client-10 	23
scalar tree_4_3_u07_r3_network.content_distribution 	client-11 	24
scalar tree_4_3_u07_r3_network.content_distribution 	client-12 	25
scalar tree_4_3_u07_r3_network.content_distribution 	client-13 	26
scalar tree_4_3_u07_r3_network.content_distribution 	client-14 	27
scalar tree_4_3_u07_r3_network.content_distribution 	client-15 	28
scalar tree_4_3_u07_r3_network.content_distribution 	client-16 	29
scalar tree_4_3_u07_r3_network.content_distribution 	client-17 	30
scalar tree_4_3_u07_r3_network.content_distribution 	client-18 	31
scalar tree_4_3_u07_r3_network.content_distribution 	client-19 	32
scalar tree_4_3_u07_r3_network.content_distribution 	client-20 	33
scalar tree_4_3_u07_r3_network.content_distribution 	client-21 	34
scalar tree_4_3_u07_r3_network.content_distribution 	client-22 	35
scalar tree_4_3_u07_r3_network.content_distribution 	client-23 	36
scalar tree_4_3_u07_r3_network.content_distribution 	client-24 	37
scalar tree_4_3_u07_r3_network.content_distribution 	client-25 	38
scalar tree_4_3_u07_r3_network.content_distribution 	client-26 	39
scalar tree_4_3_u07_r3_network.content_distribution 	repo-0_card 	100000
scalar tree_4_3_u07_r3_network.content_distribution 	repo-0_price 	0
scalar tree_4_3_u07_r3_network.statistics 	stabilization_time 	1245.2
scalar tree_4_3_u07_r3_network.statistics 	p_hit 	0.23423663203113
scalar tree_4_3_u07_r3_network.statistics 	interests 	25104.625
scalar tree_4_3_u07_r3_network.statistics 	data 	16981.475
scalar tree_4_3_u07_r3_network.statistics 	hdistance 	2.663621568388
scalar tree_4_3_u07_r3_network.statistics 	avg_time 	0.004180995447
scalar tree_4_3_u07_r3_network.statistics 	downloads 	324919
scalar tree_4_3_u07_r3_network.statistics 	total_cost 	0
scalar tree_4_3_u07_r3_network.statistics 	total_replicas 	100000
scalar tree_4_3_u07_r3_network.statistics 	inner_hit 	0.42692486435081
scalar tree_4_3_u07_r3_network.node[0].core_layer 	interests[0] 	188317
scalar tree_4_3_u07_r3_network.node[0].core_layer 	repo_load[0] 	186203
scalar tree_4_3_u07_r3_network.node[0].core_layer 	data[0] 	0
scalar tree_4_3_u07_r3_network.node[0].core_layer 	repo_int[0] 	186203
scalar tree_4_3_u07_r3_network.node[0].content_store 	p_hit[0] 	0.011225752321883
scalar tree_4_3_u07_r3_network.node[0].content_store 	hits[0] 	2114
scalar tree_4_3_u07_r3_network.node[0].content_store 	misses[0] 	186203
scalar tree_4_3_u07_r3_network.node[0].content_store 	decision_yes[0] 	2692
scalar tree_4_3_u07_r3_network.node[0].content_store 	decision_no[0] 	183511
scalar tree_4_3_u07_r3_network.node[0].content_store 	decision_ratio[0] 	0.014457339570254
scalar tree_4_3_u07_r3_network.node[1].core_layer 	interests[1] 	103368
scalar tree_4_3_u07_r3_network.node[1].core_layer 	data[1] 	101906
scalar tree_4_3_u07_r3_network.node[1].content_store 	p_hit[1] 	0.014143642132962
scalar tree_4_3_u07_r3_network.node[1].content_store 	hits[1] 	1462
scalar tree_4_3_u07_r3_network.node[1].content_store 	misses[1] 	101906
scalar tree_4_3_u07_r3_network.node[1].content_store 	decision_yes[1] 	1120
scalar tree_4_3_u07_r3_network.node[1].content_store 	decision_no[1] 	100786
scalar tree_4_3_u07_r3_network.node[1].content_store 	decision_ratio[1] 	0.010990520675917
scalar tree_4_3_u07_r3_network.node[2].core_layer 	interests[2] 	89243
scalar tree_4_3_u07_r3_network.node[2].core_layer 	data[2] 	86370
scalar tree_4_3_u07_r3_network.node[2].content_store 	p_hit[2] 	0.032181795771097
scalar tree_4_3_u07_r3_network.node[2].content_store 	hits[2] 	2872
scalar tree_4_3_u07_r3_network.node[2].content_store 	misses[2] 	86371
scalar tree_4_3_u07_r3_network.node[2].content_store 	decision_yes[2] 	1081
scalar tree_4_3_u07_r3_network.node[2].content_store 	decision_no[2] 	85289
scalar tree_4_3_u07_r3_network.node[2].content_store 	decision_ratio[2] 	0.012515919879588
scalar tree_4_3_u07_r3_network.node[3].core_layer 	interests[3] 	20004
scalar tree_4_3_u07_r3_network.node[3].core_layer 	data[3] 	17216
scalar tree_4_3_u07_r3_network.node[3].content_store 	p_hit[3] 	0.13937212557489
scalar tree_4_3_u07_r3_network.node[3].content_store 	hits[3] 	2788
scalar tree_4_3_u07_r3_network.node[3].content_store 	misses[3] 	17216
scalar tree_4_3_u07_r3_network.node[3].content_store 	decision_yes[3] 	284
scalar tree_4_3_u07_r3_network.node[3].content_store 	decision_no[3] 	16932
scalar tree_4_3_u07_r3_network.node[3].content_store 	decision_ratio[3] 	0.016496282527881
scalar tree_4_3_u07_r3_network.node[4].core_layer 	interests[4] 	34744
scalar tree_4_3_u07_r3_network.node[4].core_layer 	data[4] 	32741
scalar tree_4_3_u07_r3_network.node[4].content_store 	p_hit[4] 	0.057650241768363
scalar tree_4_3_u07_r3_network.node[4].content_store 	hits[4] 	2003
scalar tree_4_3_u07_r3_network.node[4].content_store 	misses[4] 	32741
scalar tree_4_3_u07_r3_network.node[4].content_store 	decision_yes[4] 	403
scalar tree_4_3_u07_r3_network.node[4].content_store 	decision_no[4] 	32338
scalar tree_4_3_u07_r3_network.node[4].content_store 	decision_ratio[4] 	0.012308726062124
scalar tree_4_3_u07_r3_network.node[5].core_layer 	interests[5] 	39068
scalar tree_4_3_u07_r3_network.node[5].core_layer 	data[5] 	35300
scalar tree_4_3_u07_r3_network.node[5].content_store 	p_hit[5] 	0.096396027439337
scalar tree_4_3_u07_r3_network.node[5].content_store 	hits[5] 	3766
scalar tree_4_3_u07_r3_network.node[5].content_store 	misses[5] 	35302
scalar tree_4_3_u07_r3_network.node[5].content_store 	decision_yes[5] 	608
scalar tree_4_3_u07_r3_network.node[5].content_store 	decision_no[5] 	34692
scalar tree_4_3_u07_r3_network.node[5].content_store 	decision_ratio[5] 	0.017223796033994
scalar tree_4_3_u07_r3_network.node[6].core_layer 	interests[6] 	13083
scalar tree_4_3_u07_r3_network.node[6].core_layer 	data[6] 	10083
scalar tree_4_3_u07_r3_network.node[6].content_store 	p_hit[6] 	0.22930520522816
scalar tree_4_3_u07_r3_network.node[6].content_store 	hits[6] 	3000
scalar tree_4_3_u07_r3_network.node[6].content_store 	misses[6] 	10083
scalar tree_4_3_u07_r3_network.node[6].content_store 	decision_yes[6] 	312
scalar tree_4_3_u07_r3_network.node[6].content_store 	decision_no[6] 	9771
scalar tree_4_3_u07_r3_network.node[6].content_store 	decision_ratio[6] 	0.030943171675097
scalar tree_4_3_u07_r3_network.node[7].core_layer 	interests[7] 	44079
scalar tree_4_3_u07_r3_network.node[7].core_layer 	data[7] 	41479
scalar tree_4_3_u07_r3_network.node[7].content_store 	p_hit[7] 	0.059007690737086
scalar tree_4_3_u07_r3_network.node[7].content_store 	hits[7] 	2601
scalar tree_4_3_u07_r3_network.node[7].content_store 	misses[7] 	41478
scalar tree_4_3_u07_r3_network.node[7].content_store 	decision_yes[7] 	570
scalar tree_4_3_u07_r3_network.node[7].content_store 	decision_no[7] 	40909
scalar tree_4_3_u07_r3_network.node[7].content_store 	decision_ratio[7] 	0.013741893488271
scalar tree_4_3_u07_r3_network.node[8].core_layer 	interests[8] 	19563
scalar tree_4_3_u07_r3_network.node[8].core_layer 	data[8] 	17003
scalar tree_4_3_u07_r3_network.node[8].content_store 	p_hit[8] 	0.1308592751623
scalar tree_4_3_u07_r3_network.node[8].content_store 	hits[8] 	2560
scalar tree_4_3_u07_r3_network.node[8].content_store 	misses[8] 	17003
scalar tree_4_3_u07_r3_network.node[8].content_store 	decision_yes[8] 	275
scalar tree_4_3_u07_r3_network.node[8].content_store 	decision_no[8] 	16728
scalar tree_4_3_u07_r3_network.node[8].content_store 	decision_ratio[8] 	0.016173616420632
scalar tree_4_3_u07_r3_network.node[9].core_layer 	interests[9] 	21228
scalar tree_4_3_u07_r3_network.node[9].core_layer 	data[9] 	18166
scalar tree_4_3_u07_r3_network.node[9].content_store 	p_hit[9] 	0.14419634445073
scalar tree_4_3_u07_r3_network.node[9].content_store 	hits[9] 	3061
scalar tree_4_3_u07_r3_network.node[9].content_store 	misses[9] 	18167
scalar tree_4_3_u07_r3_network.node[9].content_store 	decision_yes[9] 	356
scalar tree_4_3_u07_r3_network.node[9].content_store 	decision_no[9] 	17810
scalar tree_4_3_u07_r3_network.node[9].content_store 	decision_ratio[9] 	0.019597049433007
scalar tree_4_3_u07_r3_network.node[10].core_layer 	interests[10] 	44206
scalar tree_4_3_u07_r3_network.node[10].core_layer 	data[10] 	41375
scalar tree_4_3_u07_r3_network.node[10].content_store 	p_hit[10] 	0.063950594941863
scalar tree_4_3_u07_r3_network.node[10].content_store 	hits[10] 	2827
scalar tree_4_3_u07_r3_network.node[10].content_store 	misses[10] 	41379
scalar tree_4_3_u07_r3_network.node[10].content_store 	decision_yes[10] 	647
scalar tree_4_3_u07_r3_network.node[10].content_store 	decision_no[10] 	40728
scalar tree_4_3_u07_r3_network.node[10].content_store 	decision_ratio[10] 	0.01563746223565
scalar tree_4_3_u07_r3_network.node[11].core_layer 	interests[11] 	22965
scalar tree_4_3_u07_r3_network.node[11].core_layer 	data[11] 	19289
scalar tree_4_3_u07_r3_network.node[11].content_store 	p_hit[11] 	0.16006967123884
scalar tree_4_3_u07_r3_network.node[11].content_store 	hits[11] 	3676
scalar tree_4_3_u07_r3_network.node[11].content_store 	misses[11] 	19289
scalar tree_4_3_u07_r3_network.node[11].content_store 	decision_yes[11] 	400
scalar tree_4_3_u07_r3_network.node[11].content_store 	decision_no[11] 	18889
scalar tree_4_3_u07_r3_network.node[11].content_store 	decision_ratio[11] 	0.020737207734978
scalar tree_4_3_u07_r3_network.node[12].core_layer 	interests[12] 	19330
scalar tree_4_3_u07_r3_network.node[12].core_layer 	data[12] 	17241
scalar tree_4_3_u07_r3_network.node[12].content_store 	p_hit[12] 	0.1080703569581
scalar tree_4_3_u07_r3_network.node[12].content_store 	hits[12] 	2089
scalar tree_4_3_u07_r3_network.node[12].content_store 	misses[12] 	17241
scalar tree_4_3_u07_r3_network.node[12].content_store 	decision_yes[12] 	280
scalar tree_4_3_u07_r3_network.node[12].content_store 	decision_no[12] 	16961
scalar tree_4_3_u07_r3_network.node[12].content_store 	decision_ratio[12] 	0.01624035728786
scalar tree_4_3_u07_r3_network.node[13].core_layer 	interests[13] 	12536
scalar tree_4_3_u07_r3_network.node[13].core_layer 	data[13] 	8945
scalar tree_4_3_u07_r3_network.node[13].content_store 	p_hit[13] 	0.28645500957243
scalar tree_4_3_u07_r3_network.node[13].content_store 	hits[13] 	3591
scalar tree_4_3_u07_r3_network.node[13].content_store 	misses[13] 	8945
scalar tree_4_3_u07_r3_network.node[13].content_store 	decision_yes[13] 	122
scalar tree_4_3_u07_r3_network.node[13].content_store 	decision_no[13] 	8823
scalar tree_4_3_u07_r3_network.node[13].content_store 	decision_ratio[13] 	0.013638904415875
scalar tree_4_3_u07_r3_network.node[14].core_layer 	interests[14] 	13313
scalar tree_4_3_u07_r3_network.node[14].core_layer 	data[14] 	9005
scalar tree_4_3_u07_r3_network.node[14].content_store 	p_hit[14] 	0.3235183655074
scalar tree_4_3_u07_r3_network.node[14].content_store 	hits[14] 	4307
scalar tree_4_3_u07_r3_network.node[14].content_store 	misses[14] 	9006
scalar tree_4_3_u07_r3_network.node[14].content_store 	decision_yes[14] 	124
scalar tree_4_3_u07_r3_network.node[14].content_store 	decision_no[14] 	8881
scalar tree_4_3_u07_r3_network.node[14].content_store 	decision_ratio[14] 	0.01377012770683
scalar tree_4_3_u07_r3_network.node[15].core_layer 	interests[15] 	12519
scalar tree_4_3_u07_r3_network.node[15].core_layer 	data[15] 	9054
scalar tree_4_3_u07_r3_network.node[15].content_store 	p_hit[15] 	0.27677929547088
scalar tree_4_3_u07_r3_network.node[15].content_store 	hits[15] 	3465
scalar tree_4_3_u07_r3_network.node[15].content_store 	misses[15] 	9054
scalar tree_4_3_u07_r3_network.node[15].content_store 	decision_yes[15] 	112
scalar tree_4_3_u07_r3_network.node[15].content_store 	decision_no[15] 	8942
scalar tree_4_3_u07_r3_network.node[15].content_store 	decision_ratio[15] 	0.01237022310581
scalar tree_4_3_u07_r3_network.node[16].core_layer 	interests[16] 	12818
scalar tree_4_3_u07_r3_network.node[16].core_layer 	data[16] 	8865
scalar tree_4_3_u07_r3_network.node[16].content_store 	p_hit[16] 	0.30839444531128
scalar tree_4_3_u07_r3_network.node[16].content_store 	hits[16] 	3953
scalar tree_4_3_u07_r3_network.node[16].content_store 	misses[16] 	8865
scalar tree_4_3_u07_r3_network.node[16].content_store 	decision_yes[16] 	121
scalar tree_4_3_u07_r3_network.node[16].content_store 	decision_no[16] 	8744
scalar tree_4_3_u07_r3_network.node[16].content_store 	decision_ratio[16] 	0.013649182177101
scalar tree_4_3_u07_r3_network.node[17].core_layer 	interests[17] 	12769
scalar tree_4_3_u07_r3_network.node[17].core_layer 	data[17] 	8901
scalar tree_4_3_u07_r3_network.node[17].content_store 	p_hit[17] 	0.30284282246065
scalar tree_4_3_u07_r3_network.node[17].content_store 	hits[17] 	3867
scalar tree_4_3_u07_r3_network.node[17].content_store 	misses[17] 	8902
scalar tree_4_3_u07_r3_network.node[17].content_store 	decision_yes[17] 	100
scalar tree_4_3_u07_r3_network.node[17].content_store 	decision_no[17] 	8801
scalar tree_4_3_u07_r3_network.node[17].content_store 	decision_ratio[17] 	0.011234692731154
scalar tree_4_3_u07_r3_network.node[18].core_layer 	interests[18] 	13076
scalar tree_4_3_u07_r3_network.node[18].core_layer 	data[18] 	8910
scalar tree_4_3_u07_r3_network.node[18].content_store 	p_hit[18] 	0.31859895992658
scalar tree_4_3_u07_r3_network.node[18].content_store 	hits[18] 	4166
scalar tree_4_3_u07_r3_network.node[18].content_store 	misses[18] 	8910
scalar tree_4_3_u07_r3_network.node[18].content_store 	decision_yes[18] 	163
scalar tree_4_3_u07_r3_network.node[18].content_store 	decision_no[18] 	8747
scalar tree_4_3_u07_r3_network.node[18].content_store 	decision_ratio[18] 	0.018294051627385
scalar tree_4_3_u07_r3_network.node[19].core_layer 	interests[19] 	12877
scalar tree_4_3_u07_r3_network.node[19].core_layer 	data[19] 	8844
scalar tree_4_3_u07_r3_network.node[19].content_store 	p_hit[19] 	0.31319406694106
scalar tree_4_3_u07_r3_network.node[19].content_store 	hits[19] 	4033
scalar tree_4_3_u07_r3_network.node[19].content_store 	misses[19] 	8844
scalar tree_4_3_u07_r3_network.node[19].content_store 	decision_yes[19] 	147
scalar tree_4_3_u07_r3_network.node[19].content_store 	decision_no[19] 	8697
scalar tree_4_3_u07_r3_network.node[19].content_store 	decision_ratio[19] 	0.016621438263229
scalar tree_4_3_u07_r3_network.node[20].core_layer 	interests[20] 	13067
scalar tree_4_3_u07_r3_network.node[20].core_layer 	data[20] 	9014
scalar tree_4_3_u07_r3_network.node[20].content_store 	p_hit[20] 	0.31024718757175
scalar tree_4_3_u07_r3_network.node[20].content_store 	hits[20] 	4054
scalar tree_4_3_u07_r3_network.node[20].content_store 	misses[20] 	9013
scalar tree_4_3_u07_r3_network.node[20].content_store 	decision_yes[20] 	143
scalar tree_4_3_u07_r3_network.node[20].content_store 	decision_no[20] 	8871
scalar tree_4_3_u07_r3_network.node[20].content_store 	decision_ratio[20] 	0.01586421122698
scalar tree_4_3_u07_r3_network.node[21].core_layer 	interests[21] 	12262
scalar tree_4_3_u07_r3_network.node[21].core_layer 	data[21] 	8752
scalar tree_4_3_u07_r3_network.node[21].content_store 	p_hit[21] 	0.28625020388191
scalar tree_4_3_u07_r3_network.node[21].content_store 	hits[21] 	3510
scalar tree_4_3_u07_r3_network.node[21].content_store 	misses[21] 	8752
scalar tree_4_3_u07_r3_network.node[21].content_store 	decision_yes[21] 	138
scalar tree_4_3_u07_r3_network.node[21].content_store 	decision_no[21] 	8614
scalar tree_4_3_u07_r3_network.node[21].content_store 	decision_ratio[21] 	0.015767824497258
scalar tree_4_3_u07_r3_network.node[22].core_layer 	interests[22] 	12668
scalar tree_4_3_u07_r3_network.node[22].core_layer 	data[22] 	8924
scalar tree_4_3_u07_r3_network.node[22].content_store 	p_hit[22] 	0.29554783706978
scalar tree_4_3_u07_r3_network.node[22].content_store 	hits[22] 	3744
scalar tree_4_3_u07_r3_network.node[22].content_store 	misses[22] 	8924
scalar tree_4_3_u07_r3_network.node[22].content_store 	decision_yes[22] 	121
scalar tree_4_3_u07_r3_network.node[22].content_store 	decision_no[22] 	8803
scalar tree_4_3_u07_r3_network.node[22].content_store 	decision_ratio[22] 	0.013558942178395
scalar tree_4_3_u07_r3_network.node[23].core_layer 	interests[23] 	12969
scalar tree_4_3_u07_r3_network.node[23].core_layer 	data[23] 	8928
scalar tree_4_3_u07_r3_network.node[23].content_store 	p_hit[23] 	0.31158917418459
scalar tree_4_3_u07_r3_network.node[23].content_store 	hits[23] 	4041
scalar tree_4_3_u07_r3_network.node[23].content_store 	misses[23] 	8928
scalar tree_4_3_u07_r3_network.node[23].content_store 	decision_yes[23] 	145
scalar tree_4_3_u07_r3_network.node[23].content_store 	decision_no[23] 	8783
scalar tree_4_3_u07_r3_network.node[23].content_store 	decision_ratio[23] 	0.016241039426523
scalar tree_4_3_u07_r3_network.node[24].core_layer 	interests[24] 	12633
scalar tree_4_3_u07_r3_network.node[24].core_layer 	data[24] 	8778
scalar tree_4_3_u07_r3_network.node[24].content_store 	p_hit[24] 	0.30515317026834
scalar tree_4_3_u07_r3_network.node[24].content_store 	hits[24] 	3855
scalar tree_4_3_u07_r3_network.node[24].content_store 	misses[24] 	8778
scalar tree_4_3_u07_r3_network.node[24].content_store 	decision_yes[24] 	143
scalar tree_4_3_u07_r3_network.node[24].content_store 	decision_no[24] 	8635
scalar tree_4_3_u07_r3_network.node[24].content_store 	decision_ratio[24] 	0.016290726817043
scalar tree_4_3_u07_r3_network.node[25].core_layer 	interests[25] 	13041
scalar tree_4_3_u07_r3_network.node[25].core_layer 	data[25] 	8997
scalar tree_4_3_u07_r3_network.node[25].content_store 	p_hit[25] 	0.31009891879457
scalar tree_4_3_u07_r3_network.node[25].content_store 	hits[25] 	4044
scalar tree_4_3_u07_r3_network.node[25].content_store 	misses[25] 	8997
scalar tree_4_3_u07_r3_network.node[25].content_store 	decision_yes[25] 	144
scalar tree_4_3_u07_r3_network.node[25].content_store 	decision_no[25] 	8853
scalar tree_4_3_u07_r3_network.node[25].content_store 	decision_ratio[25] 	0.016005335111704
scalar tree_4_3_u07_r3_network.node[26].core_layer 	interests[26] 	12408
scalar tree_4_3_u07_r3_network.node[26].core_layer 	data[26] 	8945
scalar tree_4_3_u07_r3_network.node[26].content_store 	p_hit[26] 	0.27909413281754
scalar tree_4_3_u07_r3_network.node[26].content_store 	hits[26] 	3463
scalar tree_4_3_u07_r3_network.node[26].content_store 	misses[26] 	8945
scalar tree_4_3_u07_r3_network.node[26].content_store 	decision_yes[26] 	109
scalar tree_4_3_u07_r3_network.node[26].content_store 	decision_no[26] 	8836
scalar tree_4_3_u07_r3_network.node[26].content_store 	decision_ratio[26] 	0.012185578535495
scalar tree_4_3_u07_r3_network.node[27].core_layer 	interests[27] 	12932
scalar tree_4_3_u07_r3_network.node[27].core_layer 	data[27] 	8925
scalar tree_4_3_u07_r3_network.node[27].content_store 	p_hit[27] 	0.30992885864522
scalar tree_4_3_u07_r3_network.node[27].content_store 	hits[27] 	4008
scalar tree_4_3_u07_r3_network.node[27].content_store 	misses[27] 	8924
scalar tree_4_3_u07_r3_network.node[27].content_store 	decision_yes[27] 	140
scalar tree_4_3_u07_r3_network.node[27].content_store 	decision_no[27] 	8785
scalar tree_4_3_u07_r3_network.node[27].content_store 	decision_ratio[27] 	0.015686274509804
scalar tree_4_3_u07_r3_network.node[28].core_layer 	interests[28] 	13078
scalar tree_4_3_u07_r3_network.node[28].core_layer 	data[28] 	8857
scalar tree_4_3_u07_r3_network.node[28].content_store 	p_hit[28] 	0.32283223734516
scalar tree_4_3_u07_r3_network.node[28].content_store 	hits[28] 	4222
scalar tree_4_3_u07_r3_network.node[28].content_store 	misses[28] 	8856
scalar tree_4_3_u07_r3_network.node[28].content_store 	decision_yes[28] 	149
scalar tree_4_3_u07_r3_network.node[28].content_store 	decision_no[28] 	8708
scalar tree_4_3_u07_r3_network.node[28].content_store 	decision_ratio[28] 	0.016822851981484
scalar tree_4_3_u07_r3_network.node[29].core_layer 	interests[29] 	12581
scalar tree_4_3_u07_r3_network.node[29].core_layer 	data[29] 	8941
scalar tree_4_3_u07_r3_network.node[29].content_store 	p_hit[29] 	0.28924568794213
scalar tree_4_3_u07_r3_network.node[29].content_store 	hits[29] 	3639
scalar tree_4_3_u07_r3_network.node[29].content_store 	misses[29] 	8942
scalar tree_4_3_u07_r3_network.node[29].content_store 	decision_yes[29] 	125
scalar tree_4_3_u07_r3_network.node[29].content_store 	decision_no[29] 	8816
scalar tree_4_3_u07_r3_network.node[29].content_store 	decision_ratio[29] 	0.013980539089587
scalar tree_4_3_u07_r3_network.node[30].core_layer 	interests[30] 	12608
scalar tree_4_3_u07_r3_network.node[30].core_layer 	data[30] 	8984
scalar tree_4_3_u07_r3_network.node[30].content_store 	p_hit[30] 	0.28743654822335
scalar tree_4_3_u07_r3_network.node[30].content_store 	hits[30] 	3624
scalar tree_4_3_u07_r3_network.node[30].content_store 	misses[30] 	8984
scalar tree_4_3_u07_r3_network.node[30].content_store 	decision_yes[30] 	117
scalar tree_4_3_u07_r3_network.node[30].content_store 	decision_no[30] 	8867
scalar tree_4_3_u07_r3_network.node[30].content_store 	decision_ratio[30] 	0.013023152270703
scalar tree_4_3_u07_r3_network.node[31].core_layer 	interests[31] 	12618
scalar tree_4_3_u07_r3_network.node[31].core_layer 	data[31] 	8909
scalar tree_4_3_u07_r3_network.node[31].content_store 	p_hit[31] 	0.29394515771121
scalar tree_4_3_u07_r3_network.node[31].content_store 	hits[31] 	3709
scalar tree_4_3_u07_r3_network.node[31].content_store 	misses[31] 	8909
scalar tree_4_3_u07_r3_network.node[31].content_store 	decision_yes[31] 	124
scalar tree_4_3_u07_r3_network.node[31].content_store 	decision_no[31] 	8785
scalar tree_4_3_u07_r3_network.node[31].content_store 	decision_ratio[31] 	0.013918509372545
scalar tree_4_3_u07_r3_network.node[32].core_layer 	interests[32] 	13431
scalar tree_4_3_u07_r3_network.node[32].core_layer 	data[32] 	9190
scalar tree_4_3_u07_r3_network.node[32].content_store 	p_hit[32] 	0.31568758841486
scalar tree_4_3_u07_r3_network.node[32].content_store 	hits[32] 	4240
scalar tree_4_3_u07_r3_network.node[32].content_store 	misses[32] 	9191
scalar tree_4_3_u07_r3_network.node[32].content_store 	decision_yes[32] 	131
scalar tree_4_3_u07_r3_network.node[32].content_store 	decision_no[32] 	9059
scalar tree_4_3_u07_r3_network.node[32].content_store 	decision_ratio[32] 	0.014254624591948
scalar tree_4_3_u07_r3_network.node[33].core_layer 	interests[33] 	12941
scalar tree_4_3_u07_r3_network.node[33].core_layer 	data[33] 	8950
scalar tree_4_3_u07_r3_network.node[33].content_store 	p_hit[33] 	0.30824511243335
scalar tree_4_3_u07_r3_network.node[33].content_store 	hits[33] 	3989
scalar tree_4_3_u07_r3_network.node[33].content_store 	misses[33] 	8952
scalar tree_4_3_u07_r3_network.node[33].content_store 	decision_yes[33] 	152
scalar tree_4_3_u07_r3_network.node[33].content_store 	decision_no[33] 	8798
scalar tree_4_3_u07_r3_network.node[33].content_store 	decision_ratio[33] 	0.016983240223464
scalar tree_4_3_u07_r3_network.node[34].core_layer 	interests[34] 	13086
scalar tree_4_3_u07_r3_network.node[34].core_layer 	data[34] 	8924
scalar tree_4_3_u07_r3_network.node[34].content_store 	p_hit[34] 	0.31804982423965
scalar tree_4_3_u07_r3_network.node[34].content_store 	hits[34] 	4162
scalar tree_4_3_u07_r3_network.node[34].content_store 	misses[34] 	8924
scalar tree_4_3_u07_r3_network.node[34].content_store 	decision_yes[34] 	155
scalar tree_4_3_u07_r3_network.node[34].content_store 	decision_no[34] 	8769
scalar tree_4_3_u07_r3_network.node[34].content_store 	decision_ratio[34] 	0.017368892873151
scalar tree_4_3_u07_r3_network.node[35].core_layer 	interests[35] 	12634
scalar tree_4_3_u07_r3_network.node[35].core_layer 	data[35] 	9024
scalar tree_4_3_u07_r3_network.node[35].content_store 	p_hit[35] 	0.28573690042742
scalar tree_4_3_u07_r3_network.node[35].content_store 	hits[35] 	3610
scalar tree_4_3_u07_r3_network.node[35].content_store 	misses[35] 	9024
scalar tree_4_3_u07_r3_network.node[35].content_store 	decision_yes[35] 	115
scalar tree_4_3_u07_r3_network.node[35].content_store 	decision_no[35] 	8909
scalar tree_4_3_u07_r3_network.node[35].content_store 	decision_ratio[35] 	0.012743794326241
scalar tree_4_3_u07_r3_network.node[36].core_layer 	interests[36] 	12713
scalar tree_4_3_u07_r3_network.node[36].core_layer 	data[36] 	9010
scalar tree_4_3_u07_r3_network.node[36].content_store 	p_hit[36] 	0.29111932667348
scalar tree_4_3_u07_r3_network.node[36].content_store 	hits[36] 	3701
scalar tree_4_3_u07_r3_network.node[36].content_store 	misses[36] 	9012
scalar tree_4_3_u07_r3_network.node[36].content_store 	decision_yes[36] 	130
scalar tree_4_3_u07_r3_network.node[36].content_store 	decision_no[36] 	8880
scalar tree_4_3_u07_r3_network.node[36].content_store 	decision_ratio[36] 	0.014428412874584
scalar tree_4_3_u07_r3_network.node[37].core_layer 	interests[37] 	12793
scalar tree_4_3_u07_r3_network.node[37].core_layer 	data[37] 	8883
scalar tree_4_3_u07_r3_network.node[37].content_store 	p_hit[37] 	0.30563589462988
scalar tree_4_3_u07_r3_network.node[37].content_store 	hits[37] 	3910
scalar tree_4_3_u07_r3_network.node[37].content_store 	misses[37] 	8883
scalar tree_4_3_u07_r3_network.node[37].content_store 	decision_yes[37] 	129
scalar tree_4_3_u07_r3_network.node[37].content_store 	decision_no[37] 	8754
scalar tree_4_3_u07_r3_network.node[37].content_store 	decision_ratio[37] 	0.0145221209051
scalar tree_4_3_u07_r3_network.node[38].core_layer 	interests[38] 	12275
scalar tree_4_3_u07_r3_network.node[38].core_layer 	data[38] 	8852
scalar tree_4_3_u07_r3_network.node[38].content_store 	p_hit[38] 	0.27885947046843
scalar tree_4_3_u07_r3_network.node[38].content_store 	hits[38] 	3423
scalar tree_4_3_u07_r3_network.node[38].content_store 	misses[38] 	8852
scalar tree_4_3_u07_r3_network.node[38].content_store 	decision_yes[38] 	135
scalar tree_4_3_u07_r3_network.node[38].content_store 	decision_no[38] 	8717
scalar tree_4_3_u07_r3_network.node[38].content_store 	decision_ratio[38] 	0.015250790781744
scalar tree_4_3_u07_r3_network.node[39].core_layer 	interests[39] 	12341
scalar tree_4_3_u07_r3_network.node[39].core_layer 	data[39] 	8779
scalar tree_4_3_u07_r3_network.node[39].content_store 	p_hit[39] 	0.28855036058666
scalar tree_4_3_u07_r3_network.node[39].content_store 	hits[39] 	3561
scalar tree_4_3_u07_r3_network.node[39].content_store 	misses[39] 	8780
scalar tree_4_3_u07_r3_network.node[39].content_store 	decision_yes[39] 	111
scalar tree_4_3_u07_r3_network.node[39].content_store 	decision_no[39] 	8668
scalar tree_4_3_u07_r3_network.node[39].content_store 	decision_ratio[39] 	0.012643809089874
scalar tree_4_3_u07_r3_network.client[13] 	hdistance[13] 	2.7293612098174
scalar tree_4_3_u07_r3_network.client[13] 	downloads[13] 	12101
scalar tree_4_3_u07_r3_network.client[13] 	avg_time[13] 	0.004263446266
scalar tree_4_3_u07_r3_network.client[14] 	hdistance[14] 	2.6383386049609
scalar tree_4_3_u07_r3_network.client[14] 	downloads[14] 	12014
scalar tree_4_3_u07_r3_network.client[14] 	avg_time[14] 	0.004163320613
scalar tree_4_3_u07_r3_network.client[15] 	hdistance[15] 	2.7549295774648
scalar tree_4_3_u07_r3_network.client[15] 	downloads[15] 	12070
scalar tree_4_3_u07_r3_network.client[15] 	avg_time[15] 	0.004317975474
scalar tree_4_3_u07_r3_network.client[16] 	hdistance[16] 	2.6536702967828
scalar tree_4_3_u07_r3_network.client[16] 	downloads[16] 	12029
scalar tree_4_3_u07_r3_network.client[16] 	avg_time[16] 	0.00420117743
scalar tree_4_3_u07_r3_network.client[17] 	hdistance[17] 	2.6710952420493
scalar tree_4_3_u07_r3_network.client[17] 	downloads[17] 	12043
scalar tree_4_3_u07_r3_network.client[17] 	avg_time[17] 	0.004233554333
scalar tree_4_3_u07_r3_network.client[18] 	hdistance[18] 	2.5868800268097
scalar tree_4_3_u07_r3_network.client[18] 	downloads[18] 	11936
scalar tree_4_3_u07_r3_network.client[18] 	avg_time[18] 	0.004087463474
scalar tree_4_3_u07_r3_network.client[19] 	hdistance[19] 	2.6487076200067
scalar tree_4_3_u07_r3_network.client[19] 	downloads[19] 	11916
scalar tree_4_3_u07_r3_network.client[19] 	avg_time[19] 	0.004145012123
scalar tree_4_3_u07_r3_network.client[20] 	hdistance[20] 	2.6342708856521
scalar tree_4_3_u07_r3_network.client[20] 	downloads[20] 	11946
scalar tree_4_3_u07_r3_network.client[20] 	avg_time[20] 	0.004158208944
scalar tree_4_3_u07_r3_network.client[21] 	hdistance[21] 	2.682959716838
scalar tree_4_3_u07_r3_network.client[21] 	downloads[21] 	11866
scalar tree_4_3_u07_r3_network.client[21] 	avg_time[21] 	0.004211188665
scalar tree_4_3_u07_r3_network.client[22] 	hdistance[22] 	2.6779688914493
scalar tree_4_3_u07_r3_network.client[22] 	downloads[22] 	12151
scalar tree_4_3_u07_r3_network.client[22] 	avg_time[22] 	0.00419800536
scalar tree_4_3_u07_r3_network.client[23] 	hdistance[23] 	2.6444702756559
scalar tree_4_3_u07_r3_network.client[23] 	downloads[23] 	12044
scalar tree_4_3_u07_r3_network.client[23] 	avg_time[23] 	0.004130186321
scalar tree_4_3_u07_r3_network.client[24] 	hdistance[24] 	2.6797195622435
scalar tree_4_3_u07_r3_network.client[24] 	downloads[24] 	11696
scalar tree_4_3_u07_r3_network.client[24] 	avg_time[24] 	0.004181255615
scalar tree_4_3_u07_r3_network.client[25] 	hdistance[25] 	2.6293350823973
scalar tree_4_3_u07_r3_network.client[25] 	downloads[25] 	12197
scalar tree_4_3_u07_r3_network.client[25] 	avg_time[25] 	0.00410789235
scalar tree_4_3_u07_r3_network.client[26] 	hdistance[26] 	2.6993464052288
scalar tree_4_3_u07_r3_network.client[26] 	downloads[26] 	12087
scalar tree_4_3_u07_r3_network.client[26] 	avg_time[26] 	0.004238593831
scalar tree_4_3_u07_r3_network.client[27] 	hdistance[27] 	2.6403450564035
scalar tree_4_3_u07_r3_network.client[27] 	downloads[27] 	12056
scalar tree_4_3_u07_r3_network.client[27] 	avg_time[27] 	0.00412176213
scalar tree_4_3_u07_r3_network.client[28] 	hdistance[28] 	2.6291495944477
scalar tree_4_3_u07_r3_network.client[28] 	downloads[28] 	11959
scalar tree_4_3_u07_r3_network.client[28] 	avg_time[28] 	0.004108235849
scalar tree_4_3_u07_r3_network.client[29] 	hdistance[29] 	2.6904447016036
scalar tree_4_3_u07_r3_network.client[29] 	downloads[29] 	12098
scalar tree_4_3_u07_r3_network.client[29] 	avg_time[29] 	0.004222680663
scalar tree_4_3_u07_r3_network.client[30] 	hdistance[30] 	2.6800490596893
scalar tree_4_3_u07_r3_network.client[30] 	downloads[30] 	12230
scalar tree_4_3_u07_r3_network.client[30] 	avg_time[30] 	0.004203267562
scalar tree_4_3_u07_r3_network.client[31] 	hdistance[31] 	2.6663606010017
scalar tree_4_3_u07_r3_network.client[31] 	downloads[31] 	11980
scalar tree_4_3_u07_r3_network.client[31] 	avg_time[31] 	0.004205673122
scalar tree_4_3_u07_r3_network.client[32] 	hdistance[32] 	2.6306697232684
scalar tree_4_3_u07_r3_network.client[32] 	downloads[32] 	12214
scalar tree_4_3_u07_r3_network.client[32] 	avg_time[32] 	0.004157848573
scalar tree_4_3_u07_r3_network.client[33] 	hdistance[33] 	2.6264462809917
scalar tree_4_3_u07_r3_network.client[33] 	downloads[33] 	12100
scalar tree_4_3_u07_r3_network.client[33] 	avg_time[33] 	0.004105000636
scalar tree_4_3_u07_r3_network.client[34] 	hdistance[34] 	2.6107674301956
scalar tree_4_3_u07_r3_network.client[34] 	downloads[34] 	11962
scalar tree_4_3_u07_r3_network.client[34] 	avg_time[34] 	0.004114526382
scalar tree_4_3_u07_r3_network.client[35] 	hdistance[35] 	2.6923331403523
scalar tree_4_3_u07_r3_network.client[35] 	downloads[35] 	12091
scalar tree_4_3_u07_r3_network.client[35] 	avg_time[35] 	0.004248446238
scalar tree_4_3_u07_r3_network.client[36] 	hdistance[36] 	2.6700616016427
scalar tree_4_3_u07_r3_network.client[36] 	downloads[36] 	12175
scalar tree_4_3_u07_r3_network.client[36] 	avg_time[36] 	0.004218795803
scalar tree_4_3_u07_r3_network.client[37] 	hdistance[37] 	2.6510303233372
scalar tree_4_3_u07_r3_network.client[37] 	downloads[37] 	11938
scalar tree_4_3_u07_r3_network.client[37] 	avg_time[37] 	0.004135028017
scalar tree_4_3_u07_r3_network.client[38] 	hdistance[38] 	2.7116492693111
scalar tree_4_3_u07_r3_network.client[38] 	downloads[38] 	11975
scalar tree_4_3_u07_r3_network.client[38] 	avg_time[38] 	0.004224631649
scalar tree_4_3_u07_r3_network.client[39] 	hdistance[39] 	2.6874221668742
scalar tree_4_3_u07_r3_network.client[39] 	downloads[39] 	12045
scalar tree_4_3_u07_r3_network.client[39] 	avg_time[39] 	0.004183699659
