version 2
run General-466-20160901-10:07:07-8710
attr a 0.9
attr cd ffc0.25
attr configname General
attr cr lru
attr datetime 20160901-10:07:07
attr experiment General
attr fsize 1
attr inifile hw5115/scenario_Y/omnetp.ini
attr iterationvars "$name=tree_4_3, $un=07, $rep=16, $cd=ffc0.25, $cr=lru, $fsize=1, $a=0.9, $sl=nrr, $ttl=1000, $variance=0.05"
attr iterationvars2 "$name=tree_4_3, $un=07, $rep=16, $cd=ffc0.25, $cr=lru, $fsize=1, $a=0.9, $sl=nrr, $ttl=1000, $variance=0.05, $repetition=0"
attr measurement "$name=tree_4_3, $un=07, $rep=16, $cd=ffc0.25, $cr=lru, $fsize=1, $a=0.9, $sl=nrr, $ttl=1000, $variance=0.05"
attr name tree_4_3
attr network networks.${name}_u${un}_r${rep}_network
attr processid 8710
attr rep 16
attr repetition 0
attr replication #0
attr resultdir results
attr runnumber 466
attr seedset 16
attr sl nrr
attr ttl 1000
attr un 07
attr variance 0.05

scalar . 	a 	0.9
scalar . 	fsize 	1
scalar . 	rep 	16
scalar . 	ttl 	1000
scalar . 	un 	07
scalar . 	variance 	0.05
scalar tree_4_3_u07_r16_network.content_distribution 	repo-0 	0
scalar tree_4_3_u07_r16_network.content_distribution 	client-0 	13
scalar tree_4_3_u07_r16_network.content_distribution 	client-1 	14
scalar tree_4_3_u07_r16_network.content_distribution 	client-2 	15
scalar tree_4_3_u07_r16_network.content_distribution 	client-3 	16
scalar tree_4_3_u07_r16_network.content_distribution 	client-4 	17
scalar tree_4_3_u07_r16_network.content_distribution 	client-5 	18
scalar tree_4_3_u07_r16_network.content_distribution 	client-6 	19
scalar tree_4_3_u07_r16_network.content_distribution 	client-7 	20
scalar tree_4_3_u07_r16_network.content_distribution 	client-8 	21
scalar tree_4_3_u07_r16_network.content_distribution 	client-9 	22
scalar tree_4_3_u07_r16_network.content_distribution 	client-10 	23
scalar tree_4_3_u07_r16_network.content_distribution 	client-11 	24
scalar tree_4_3_u07_r16_network.content_distribution 	client-12 	25
scalar tree_4_3_u07_r16_network.content_distribution 	client-13 	26
scalar tree_4_3_u07_r16_network.content_distribution 	client-14 	27
scalar tree_4_3_u07_r16_network.content_distribution 	client-15 	28
scalar tree_4_3_u07_r16_network.content_distribution 	client-16 	29
scalar tree_4_3_u07_r16_network.content_distribution 	client-17 	30
scalar tree_4_3_u07_r16_network.content_distribution 	client-18 	31
scalar tree_4_3_u07_r16_network.content_distribution 	client-19 	32
scalar tree_4_3_u07_r16_network.content_distribution 	client-20 	33
scalar tree_4_3_u07_r16_network.content_distribution 	client-21 	34
scalar tree_4_3_u07_r16_network.content_distribution 	client-22 	35
scalar tree_4_3_u07_r16_network.content_distribution 	client-23 	36
scalar tree_4_3_u07_r16_network.content_distribution 	client-24 	37
scalar tree_4_3_u07_r16_network.content_distribution 	client-25 	38
scalar tree_4_3_u07_r16_network.content_distribution 	client-26 	39
scalar tree_4_3_u07_r16_network.content_distribution 	repo-0_card 	100000
scalar tree_4_3_u07_r16_network.content_distribution 	repo-0_price 	0
scalar tree_4_3_u07_r16_network.statistics 	stabilization_time 	1795.7
scalar tree_4_3_u07_r16_network.statistics 	p_hit 	0.23975761612891
scalar tree_4_3_u07_r16_network.statistics 	interests 	24639.9
scalar tree_4_3_u07_r16_network.statistics 	data 	16538.45
scalar tree_4_3_u07_r16_network.statistics 	hdistance 	2.5969878759075
scalar tree_4_3_u07_r16_network.statistics 	avg_time 	0.004082737692
scalar tree_4_3_u07_r16_network.statistics 	downloads 	324064
scalar tree_4_3_u07_r16_network.statistics 	total_cost 	0
scalar tree_4_3_u07_r16_network.statistics 	total_replicas 	100000
scalar tree_4_3_u07_r16_network.statistics 	inner_hit 	0.44443690135282
scalar tree_4_3_u07_r16_network.node[0].core_layer 	interests[0] 	183169
scalar tree_4_3_u07_r16_network.node[0].core_layer 	repo_load[0] 	180038
scalar tree_4_3_u07_r16_network.node[0].core_layer 	data[0] 	0
scalar tree_4_3_u07_r16_network.node[0].core_layer 	repo_int[0] 	180038
scalar tree_4_3_u07_r16_network.node[0].content_store 	p_hit[0] 	0.017093503813418
scalar tree_4_3_u07_r16_network.node[0].content_store 	hits[0] 	3131
scalar tree_4_3_u07_r16_network.node[0].content_store 	misses[0] 	180038
scalar tree_4_3_u07_r16_network.node[0].content_store 	decision_yes[0] 	186
scalar tree_4_3_u07_r16_network.node[0].content_store 	decision_no[0] 	179852
scalar tree_4_3_u07_r16_network.node[0].content_store 	decision_ratio[0] 	0.001033115231229
scalar tree_4_3_u07_r16_network.node[1].core_layer 	interests[1] 	131835
scalar tree_4_3_u07_r16_network.node[1].core_layer 	data[1] 	128536
scalar tree_4_3_u07_r16_network.node[1].content_store 	p_hit[1] 	0.02501611863314
scalar tree_4_3_u07_r16_network.node[1].content_store 	hits[1] 	3298
scalar tree_4_3_u07_r16_network.node[1].content_store 	misses[1] 	128537
scalar tree_4_3_u07_r16_network.node[1].content_store 	decision_yes[1] 	144
scalar tree_4_3_u07_r16_network.node[1].content_store 	decision_no[1] 	128392
scalar tree_4_3_u07_r16_network.node[1].content_store 	decision_ratio[1] 	0.0011203087072882
scalar tree_4_3_u07_r16_network.node[2].core_layer 	interests[2] 	33423
scalar tree_4_3_u07_r16_network.node[2].core_layer 	data[2] 	30518
scalar tree_4_3_u07_r16_network.node[2].content_store 	p_hit[2] 	0.086946114950782
scalar tree_4_3_u07_r16_network.node[2].content_store 	hits[2] 	2906
scalar tree_4_3_u07_r16_network.node[2].content_store 	misses[2] 	30517
scalar tree_4_3_u07_r16_network.node[2].content_store 	decision_yes[2] 	55
scalar tree_4_3_u07_r16_network.node[2].content_store 	decision_no[2] 	30463
scalar tree_4_3_u07_r16_network.node[2].content_store 	decision_ratio[2] 	0.0018022150861786
scalar tree_4_3_u07_r16_network.node[3].core_layer 	interests[3] 	43738
scalar tree_4_3_u07_r16_network.node[3].core_layer 	data[3] 	39980
scalar tree_4_3_u07_r16_network.node[3].content_store 	p_hit[3] 	0.085943573094334
scalar tree_4_3_u07_r16_network.node[3].content_store 	hits[3] 	3759
scalar tree_4_3_u07_r16_network.node[3].content_store 	misses[3] 	39979
scalar tree_4_3_u07_r16_network.node[3].content_store 	decision_yes[3] 	68
scalar tree_4_3_u07_r16_network.node[3].content_store 	decision_no[3] 	39912
scalar tree_4_3_u07_r16_network.node[3].content_store 	decision_ratio[3] 	0.0017008504252126
scalar tree_4_3_u07_r16_network.node[4].core_layer 	interests[4] 	42334
scalar tree_4_3_u07_r16_network.node[4].core_layer 	data[4] 	39497
scalar tree_4_3_u07_r16_network.node[4].content_store 	p_hit[4] 	0.067014692682005
scalar tree_4_3_u07_r16_network.node[4].content_store 	hits[4] 	2837
scalar tree_4_3_u07_r16_network.node[4].content_store 	misses[4] 	39497
scalar tree_4_3_u07_r16_network.node[4].content_store 	decision_yes[4] 	82
scalar tree_4_3_u07_r16_network.node[4].content_store 	decision_no[4] 	39415
scalar tree_4_3_u07_r16_network.node[4].content_store 	decision_ratio[4] 	0.0020761070461048
scalar tree_4_3_u07_r16_network.node[5].core_layer 	interests[5] 	28706
scalar tree_4_3_u07_r16_network.node[5].core_layer 	data[5] 	25234
scalar tree_4_3_u07_r16_network.node[5].content_store 	p_hit[5] 	0.12095032397408
scalar tree_4_3_u07_r16_network.node[5].content_store 	hits[5] 	3472
scalar tree_4_3_u07_r16_network.node[5].content_store 	misses[5] 	25234
scalar tree_4_3_u07_r16_network.node[5].content_store 	decision_yes[5] 	81
scalar tree_4_3_u07_r16_network.node[5].content_store 	decision_no[5] 	25153
scalar tree_4_3_u07_r16_network.node[5].content_store 	decision_ratio[5] 	0.003209954822858
scalar tree_4_3_u07_r16_network.node[6].core_layer 	interests[6] 	13514
scalar tree_4_3_u07_r16_network.node[6].core_layer 	data[6] 	10212
scalar tree_4_3_u07_r16_network.node[6].content_store 	p_hit[6] 	0.24433920378866
scalar tree_4_3_u07_r16_network.node[6].content_store 	hits[6] 	3302
scalar tree_4_3_u07_r16_network.node[6].content_store 	misses[6] 	10212
scalar tree_4_3_u07_r16_network.node[6].content_store 	decision_yes[6] 	78
scalar tree_4_3_u07_r16_network.node[6].content_store 	decision_no[6] 	10134
scalar tree_4_3_u07_r16_network.node[6].content_store 	decision_ratio[6] 	0.0076380728554642
scalar tree_4_3_u07_r16_network.node[7].core_layer 	interests[7] 	44480
scalar tree_4_3_u07_r16_network.node[7].core_layer 	data[7] 	40829
scalar tree_4_3_u07_r16_network.node[7].content_store 	p_hit[7] 	0.082059352517986
scalar tree_4_3_u07_r16_network.node[7].content_store 	hits[7] 	3650
scalar tree_4_3_u07_r16_network.node[7].content_store 	misses[7] 	40830
scalar tree_4_3_u07_r16_network.node[7].content_store 	decision_yes[7] 	80
scalar tree_4_3_u07_r16_network.node[7].content_store 	decision_no[7] 	40749
scalar tree_4_3_u07_r16_network.node[7].content_store 	decision_ratio[7] 	0.0019593916089054
scalar tree_4_3_u07_r16_network.node[8].core_layer 	interests[8] 	18552
scalar tree_4_3_u07_r16_network.node[8].core_layer 	data[8] 	16641
scalar tree_4_3_u07_r16_network.node[8].content_store 	p_hit[8] 	0.10295385942216
scalar tree_4_3_u07_r16_network.node[8].content_store 	hits[8] 	1910
scalar tree_4_3_u07_r16_network.node[8].content_store 	misses[8] 	16642
scalar tree_4_3_u07_r16_network.node[8].content_store 	decision_yes[8] 	45
scalar tree_4_3_u07_r16_network.node[8].content_store 	decision_no[8] 	16596
scalar tree_4_3_u07_r16_network.node[8].content_store 	decision_ratio[8] 	0.0027041644131963
scalar tree_4_3_u07_r16_network.node[9].core_layer 	interests[9] 	21301
scalar tree_4_3_u07_r16_network.node[9].core_layer 	data[9] 	18095
scalar tree_4_3_u07_r16_network.node[9].content_store 	p_hit[9] 	0.15055631191024
scalar tree_4_3_u07_r16_network.node[9].content_store 	hits[9] 	3207
scalar tree_4_3_u07_r16_network.node[9].content_store 	misses[9] 	18094
scalar tree_4_3_u07_r16_network.node[9].content_store 	decision_yes[9] 	70
scalar tree_4_3_u07_r16_network.node[9].content_store 	decision_no[9] 	18025
scalar tree_4_3_u07_r16_network.node[9].content_store 	decision_ratio[9] 	0.0038684719535783
scalar tree_4_3_u07_r16_network.node[10].core_layer 	interests[10] 	37171
scalar tree_4_3_u07_r16_network.node[10].core_layer 	data[10] 	33352
scalar tree_4_3_u07_r16_network.node[10].content_store 	p_hit[10] 	0.10268757902666
scalar tree_4_3_u07_r16_network.node[10].content_store 	hits[10] 	3817
scalar tree_4_3_u07_r16_network.node[10].content_store 	misses[10] 	33354
scalar tree_4_3_u07_r16_network.node[10].content_store 	decision_yes[10] 	86
scalar tree_4_3_u07_r16_network.node[10].content_store 	decision_no[10] 	33266
scalar tree_4_3_u07_r16_network.node[10].content_store 	decision_ratio[10] 	0.0025785560086352
scalar tree_4_3_u07_r16_network.node[11].core_layer 	interests[11] 	34804
scalar tree_4_3_u07_r16_network.node[11].core_layer 	data[11] 	32369
scalar tree_4_3_u07_r16_network.node[11].content_store 	p_hit[11] 	0.069934490288473
scalar tree_4_3_u07_r16_network.node[11].content_store 	hits[11] 	2434
scalar tree_4_3_u07_r16_network.node[11].content_store 	misses[11] 	32370
scalar tree_4_3_u07_r16_network.node[11].content_store 	decision_yes[11] 	58
scalar tree_4_3_u07_r16_network.node[11].content_store 	decision_no[11] 	32311
scalar tree_4_3_u07_r16_network.node[11].content_store 	decision_ratio[11] 	0.0017918378695666
scalar tree_4_3_u07_r16_network.node[12].core_layer 	interests[12] 	12194
scalar tree_4_3_u07_r16_network.node[12].core_layer 	data[12] 	9082
scalar tree_4_3_u07_r16_network.node[12].content_store 	p_hit[12] 	0.25520747908808
scalar tree_4_3_u07_r16_network.node[12].content_store 	hits[12] 	3112
scalar tree_4_3_u07_r16_network.node[12].content_store 	misses[12] 	9082
scalar tree_4_3_u07_r16_network.node[12].content_store 	decision_yes[12] 	44
scalar tree_4_3_u07_r16_network.node[12].content_store 	decision_no[12] 	9038
scalar tree_4_3_u07_r16_network.node[12].content_store 	decision_ratio[12] 	0.0048447478528958
scalar tree_4_3_u07_r16_network.node[13].core_layer 	interests[13] 	12447
scalar tree_4_3_u07_r16_network.node[13].core_layer 	data[13] 	8738
scalar tree_4_3_u07_r16_network.node[13].content_store 	p_hit[13] 	0.29798344982727
scalar tree_4_3_u07_r16_network.node[13].content_store 	hits[13] 	3709
scalar tree_4_3_u07_r16_network.node[13].content_store 	misses[13] 	8738
scalar tree_4_3_u07_r16_network.node[13].content_store 	decision_yes[13] 	28
scalar tree_4_3_u07_r16_network.node[13].content_store 	decision_no[13] 	8710
scalar tree_4_3_u07_r16_network.node[13].content_store 	decision_ratio[13] 	0.0032043945983062
scalar tree_4_3_u07_r16_network.node[14].core_layer 	interests[14] 	12678
scalar tree_4_3_u07_r16_network.node[14].core_layer 	data[14] 	8704
scalar tree_4_3_u07_r16_network.node[14].content_store 	p_hit[14] 	0.31345638113267
scalar tree_4_3_u07_r16_network.node[14].content_store 	hits[14] 	3974
scalar tree_4_3_u07_r16_network.node[14].content_store 	misses[14] 	8704
scalar tree_4_3_u07_r16_network.node[14].content_store 	decision_yes[14] 	26
scalar tree_4_3_u07_r16_network.node[14].content_store 	decision_no[14] 	8678
scalar tree_4_3_u07_r16_network.node[14].content_store 	decision_ratio[14] 	0.0029871323529412
scalar tree_4_3_u07_r16_network.node[15].core_layer 	interests[15] 	12371
scalar tree_4_3_u07_r16_network.node[15].core_layer 	data[15] 	8675
scalar tree_4_3_u07_r16_network.node[15].content_store 	p_hit[15] 	0.29876323660173
scalar tree_4_3_u07_r16_network.node[15].content_store 	hits[15] 	3696
scalar tree_4_3_u07_r16_network.node[15].content_store 	misses[15] 	8675
scalar tree_4_3_u07_r16_network.node[15].content_store 	decision_yes[15] 	25
scalar tree_4_3_u07_r16_network.node[15].content_store 	decision_no[15] 	8650
scalar tree_4_3_u07_r16_network.node[15].content_store 	decision_ratio[15] 	0.0028818443804035
scalar tree_4_3_u07_r16_network.node[16].core_layer 	interests[16] 	12958
scalar tree_4_3_u07_r16_network.node[16].core_layer 	data[16] 	8885
scalar tree_4_3_u07_r16_network.node[16].content_store 	p_hit[16] 	0.31432319802439
scalar tree_4_3_u07_r16_network.node[16].content_store 	hits[16] 	4073
scalar tree_4_3_u07_r16_network.node[16].content_store 	misses[16] 	8885
scalar tree_4_3_u07_r16_network.node[16].content_store 	decision_yes[16] 	22
scalar tree_4_3_u07_r16_network.node[16].content_store 	decision_no[16] 	8863
scalar tree_4_3_u07_r16_network.node[16].content_store 	decision_ratio[16] 	0.0024760832864378
scalar tree_4_3_u07_r16_network.node[17].core_layer 	interests[17] 	12360
scalar tree_4_3_u07_r16_network.node[17].core_layer 	data[17] 	8721
scalar tree_4_3_u07_r16_network.node[17].content_store 	p_hit[17] 	0.29441747572816
scalar tree_4_3_u07_r16_network.node[17].content_store 	hits[17] 	3639
scalar tree_4_3_u07_r16_network.node[17].content_store 	misses[17] 	8721
scalar tree_4_3_u07_r16_network.node[17].content_store 	decision_yes[17] 	29
scalar tree_4_3_u07_r16_network.node[17].content_store 	decision_no[17] 	8692
scalar tree_4_3_u07_r16_network.node[17].content_store 	decision_ratio[17] 	0.0033253067308795
scalar tree_4_3_u07_r16_network.node[18].core_layer 	interests[18] 	12797
scalar tree_4_3_u07_r16_network.node[18].core_layer 	data[18] 	8862
scalar tree_4_3_u07_r16_network.node[18].content_store 	p_hit[18] 	0.3074939438931
scalar tree_4_3_u07_r16_network.node[18].content_store 	hits[18] 	3935
scalar tree_4_3_u07_r16_network.node[18].content_store 	misses[18] 	8862
scalar tree_4_3_u07_r16_network.node[18].content_store 	decision_yes[18] 	38
scalar tree_4_3_u07_r16_network.node[18].content_store 	decision_no[18] 	8824
scalar tree_4_3_u07_r16_network.node[18].content_store 	decision_ratio[18] 	0.0042879711126157
scalar tree_4_3_u07_r16_network.node[19].core_layer 	interests[19] 	12934
scalar tree_4_3_u07_r16_network.node[19].core_layer 	data[19] 	8720
scalar tree_4_3_u07_r16_network.node[19].content_store 	p_hit[19] 	0.32580794804392
scalar tree_4_3_u07_r16_network.node[19].content_store 	hits[19] 	4214
scalar tree_4_3_u07_r16_network.node[19].content_store 	misses[19] 	8720
scalar tree_4_3_u07_r16_network.node[19].content_store 	decision_yes[19] 	27
scalar tree_4_3_u07_r16_network.node[19].content_store 	decision_no[19] 	8693
scalar tree_4_3_u07_r16_network.node[19].content_store 	decision_ratio[19] 	0.0030963302752294
scalar tree_4_3_u07_r16_network.node[20].core_layer 	interests[20] 	12961
scalar tree_4_3_u07_r16_network.node[20].core_layer 	data[20] 	8945
scalar tree_4_3_u07_r16_network.node[20].content_store 	p_hit[20] 	0.30985263482756
scalar tree_4_3_u07_r16_network.node[20].content_store 	hits[20] 	4016
scalar tree_4_3_u07_r16_network.node[20].content_store 	misses[20] 	8945
scalar tree_4_3_u07_r16_network.node[20].content_store 	decision_yes[20] 	17
scalar tree_4_3_u07_r16_network.node[20].content_store 	decision_no[20] 	8928
scalar tree_4_3_u07_r16_network.node[20].content_store 	decision_ratio[20] 	0.0019005030743432
scalar tree_4_3_u07_r16_network.node[21].core_layer 	interests[21] 	12507
scalar tree_4_3_u07_r16_network.node[21].core_layer 	data[21] 	8750
scalar tree_4_3_u07_r16_network.node[21].content_store 	p_hit[21] 	0.30039178060286
scalar tree_4_3_u07_r16_network.node[21].content_store 	hits[21] 	3757
scalar tree_4_3_u07_r16_network.node[21].content_store 	misses[21] 	8750
scalar tree_4_3_u07_r16_network.node[21].content_store 	decision_yes[21] 	28
scalar tree_4_3_u07_r16_network.node[21].content_store 	decision_no[21] 	8722
scalar tree_4_3_u07_r16_network.node[21].content_store 	decision_ratio[21] 	0.0032
scalar tree_4_3_u07_r16_network.node[22].core_layer 	interests[22] 	12630
scalar tree_4_3_u07_r16_network.node[22].core_layer 	data[22] 	8751
scalar tree_4_3_u07_r16_network.node[22].content_store 	p_hit[22] 	0.30712589073634
scalar tree_4_3_u07_r16_network.node[22].content_store 	hits[22] 	3879
scalar tree_4_3_u07_r16_network.node[22].content_store 	misses[22] 	8751
scalar tree_4_3_u07_r16_network.node[22].content_store 	decision_yes[22] 	29
scalar tree_4_3_u07_r16_network.node[22].content_store 	decision_no[22] 	8722
scalar tree_4_3_u07_r16_network.node[22].content_store 	decision_ratio[22] 	0.0033139069820592
scalar tree_4_3_u07_r16_network.node[23].core_layer 	interests[23] 	12554
scalar tree_4_3_u07_r16_network.node[23].core_layer 	data[23] 	8850
scalar tree_4_3_u07_r16_network.node[23].content_store 	p_hit[23] 	0.29504540385534
scalar tree_4_3_u07_r16_network.node[23].content_store 	hits[23] 	3704
scalar tree_4_3_u07_r16_network.node[23].content_store 	misses[23] 	8850
scalar tree_4_3_u07_r16_network.node[23].content_store 	decision_yes[23] 	24
scalar tree_4_3_u07_r16_network.node[23].content_store 	decision_no[23] 	8826
scalar tree_4_3_u07_r16_network.node[23].content_store 	decision_ratio[23] 	0.0027118644067797
scalar tree_4_3_u07_r16_network.node[24].core_layer 	interests[24] 	13215
scalar tree_4_3_u07_r16_network.node[24].core_layer 	data[24] 	9003
scalar tree_4_3_u07_r16_network.node[24].content_store 	p_hit[24] 	0.31872871736663
scalar tree_4_3_u07_r16_network.node[24].content_store 	hits[24] 	4212
scalar tree_4_3_u07_r16_network.node[24].content_store 	misses[24] 	9003
scalar tree_4_3_u07_r16_network.node[24].content_store 	decision_yes[24] 	35
scalar tree_4_3_u07_r16_network.node[24].content_store 	decision_no[24] 	8968
scalar tree_4_3_u07_r16_network.node[24].content_store 	decision_ratio[24] 	0.0038875930245474
scalar tree_4_3_u07_r16_network.node[25].core_layer 	interests[25] 	12729
scalar tree_4_3_u07_r16_network.node[25].core_layer 	data[25] 	8629
scalar tree_4_3_u07_r16_network.node[25].content_store 	p_hit[25] 	0.32209914368764
scalar tree_4_3_u07_r16_network.node[25].content_store 	hits[25] 	4100
scalar tree_4_3_u07_r16_network.node[25].content_store 	misses[25] 	8629
scalar tree_4_3_u07_r16_network.node[25].content_store 	decision_yes[25] 	30
scalar tree_4_3_u07_r16_network.node[25].content_store 	decision_no[25] 	8599
scalar tree_4_3_u07_r16_network.node[25].content_store 	decision_ratio[25] 	0.0034766485108356
scalar tree_4_3_u07_r16_network.node[26].core_layer 	interests[26] 	12036
scalar tree_4_3_u07_r16_network.node[26].core_layer 	data[26] 	8627
scalar tree_4_3_u07_r16_network.node[26].content_store 	p_hit[26] 	0.28323363243603
scalar tree_4_3_u07_r16_network.node[26].content_store 	hits[26] 	3409
scalar tree_4_3_u07_r16_network.node[26].content_store 	misses[26] 	8627
scalar tree_4_3_u07_r16_network.node[26].content_store 	decision_yes[26] 	31
scalar tree_4_3_u07_r16_network.node[26].content_store 	decision_no[26] 	8596
scalar tree_4_3_u07_r16_network.node[26].content_store 	decision_ratio[26] 	0.0035933696534137
scalar tree_4_3_u07_r16_network.node[27].core_layer 	interests[27] 	12294
scalar tree_4_3_u07_r16_network.node[27].core_layer 	data[27] 	8699
scalar tree_4_3_u07_r16_network.node[27].content_store 	p_hit[27] 	0.29241906621116
scalar tree_4_3_u07_r16_network.node[27].content_store 	hits[27] 	3595
scalar tree_4_3_u07_r16_network.node[27].content_store 	misses[27] 	8699
scalar tree_4_3_u07_r16_network.node[27].content_store 	decision_yes[27] 	23
scalar tree_4_3_u07_r16_network.node[27].content_store 	decision_no[27] 	8676
scalar tree_4_3_u07_r16_network.node[27].content_store 	decision_ratio[27] 	0.0026439820669042
scalar tree_4_3_u07_r16_network.node[28].core_layer 	interests[28] 	12891
scalar tree_4_3_u07_r16_network.node[28].core_layer 	data[28] 	8830
scalar tree_4_3_u07_r16_network.node[28].content_store 	p_hit[28] 	0.3150259871228
scalar tree_4_3_u07_r16_network.node[28].content_store 	hits[28] 	4061
scalar tree_4_3_u07_r16_network.node[28].content_store 	misses[28] 	8830
scalar tree_4_3_u07_r16_network.node[28].content_store 	decision_yes[28] 	28
scalar tree_4_3_u07_r16_network.node[28].content_store 	decision_no[28] 	8802
scalar tree_4_3_u07_r16_network.node[28].content_store 	decision_ratio[28] 	0.0031710079275198
scalar tree_4_3_u07_r16_network.node[29].core_layer 	interests[29] 	12557
scalar tree_4_3_u07_r16_network.node[29].core_layer 	data[29] 	8986
scalar tree_4_3_u07_r16_network.node[29].content_store 	p_hit[29] 	0.28438321255077
scalar tree_4_3_u07_r16_network.node[29].content_store 	hits[29] 	3571
scalar tree_4_3_u07_r16_network.node[29].content_store 	misses[29] 	8986
scalar tree_4_3_u07_r16_network.node[29].content_store 	decision_yes[29] 	30
scalar tree_4_3_u07_r16_network.node[29].content_store 	decision_no[29] 	8956
scalar tree_4_3_u07_r16_network.node[29].content_store 	decision_ratio[29] 	0.0033385265969286
scalar tree_4_3_u07_r16_network.node[30].core_layer 	interests[30] 	12413
scalar tree_4_3_u07_r16_network.node[30].core_layer 	data[30] 	8678
scalar tree_4_3_u07_r16_network.node[30].content_store 	p_hit[30] 	0.30097478450012
scalar tree_4_3_u07_r16_network.node[30].content_store 	hits[30] 	3736
scalar tree_4_3_u07_r16_network.node[30].content_store 	misses[30] 	8677
scalar tree_4_3_u07_r16_network.node[30].content_store 	decision_yes[30] 	30
scalar tree_4_3_u07_r16_network.node[30].content_store 	decision_no[30] 	8648
scalar tree_4_3_u07_r16_network.node[30].content_store 	decision_ratio[30] 	0.0034570177460244
scalar tree_4_3_u07_r16_network.node[31].core_layer 	interests[31] 	12504
scalar tree_4_3_u07_r16_network.node[31].core_layer 	data[31] 	8797
scalar tree_4_3_u07_r16_network.node[31].content_store 	p_hit[31] 	0.29646513115803
scalar tree_4_3_u07_r16_network.node[31].content_store 	hits[31] 	3707
scalar tree_4_3_u07_r16_network.node[31].content_store 	misses[31] 	8797
scalar tree_4_3_u07_r16_network.node[31].content_store 	decision_yes[31] 	23
scalar tree_4_3_u07_r16_network.node[31].content_store 	decision_no[31] 	8774
scalar tree_4_3_u07_r16_network.node[31].content_store 	decision_ratio[31] 	0.0026145276798909
scalar tree_4_3_u07_r16_network.node[32].core_layer 	interests[32] 	12762
scalar tree_4_3_u07_r16_network.node[32].core_layer 	data[32] 	9017
scalar tree_4_3_u07_r16_network.node[32].content_store 	p_hit[32] 	0.29344930261714
scalar tree_4_3_u07_r16_network.node[32].content_store 	hits[32] 	3745
scalar tree_4_3_u07_r16_network.node[32].content_store 	misses[32] 	9017
scalar tree_4_3_u07_r16_network.node[32].content_store 	decision_yes[32] 	35
scalar tree_4_3_u07_r16_network.node[32].content_store 	decision_no[32] 	8982
scalar tree_4_3_u07_r16_network.node[32].content_store 	decision_ratio[32] 	0.0038815570588888
scalar tree_4_3_u07_r16_network.node[33].core_layer 	interests[33] 	12857
scalar tree_4_3_u07_r16_network.node[33].core_layer 	data[33] 	8898
scalar tree_4_3_u07_r16_network.node[33].content_store 	p_hit[33] 	0.30792564361826
scalar tree_4_3_u07_r16_network.node[33].content_store 	hits[33] 	3959
scalar tree_4_3_u07_r16_network.node[33].content_store 	misses[33] 	8898
scalar tree_4_3_u07_r16_network.node[33].content_store 	decision_yes[33] 	29
scalar tree_4_3_u07_r16_network.node[33].content_store 	decision_no[33] 	8869
scalar tree_4_3_u07_r16_network.node[33].content_store 	decision_ratio[33] 	0.0032591593616543
scalar tree_4_3_u07_r16_network.node[34].core_layer 	interests[34] 	12376
scalar tree_4_3_u07_r16_network.node[34].core_layer 	data[34] 	8791
scalar tree_4_3_u07_r16_network.node[34].content_store 	p_hit[34] 	0.28967356173239
scalar tree_4_3_u07_r16_network.node[34].content_store 	hits[34] 	3585
scalar tree_4_3_u07_r16_network.node[34].content_store 	misses[34] 	8791
scalar tree_4_3_u07_r16_network.node[34].content_store 	decision_yes[34] 	35
scalar tree_4_3_u07_r16_network.node[34].content_store 	decision_no[34] 	8756
scalar tree_4_3_u07_r16_network.node[34].content_store 	decision_ratio[34] 	0.0039813445569332
scalar tree_4_3_u07_r16_network.node[35].core_layer 	interests[35] 	12350
scalar tree_4_3_u07_r16_network.node[35].core_layer 	data[35] 	8706
scalar tree_4_3_u07_r16_network.node[35].content_store 	p_hit[35] 	0.29506072874494
scalar tree_4_3_u07_r16_network.node[35].content_store 	hits[35] 	3644
scalar tree_4_3_u07_r16_network.node[35].content_store 	misses[35] 	8706
scalar tree_4_3_u07_r16_network.node[35].content_store 	decision_yes[35] 	26
scalar tree_4_3_u07_r16_network.node[35].content_store 	decision_no[35] 	8680
scalar tree_4_3_u07_r16_network.node[35].content_store 	decision_ratio[35] 	0.0029864461291064
scalar tree_4_3_u07_r16_network.node[36].core_layer 	interests[36] 	12527
scalar tree_4_3_u07_r16_network.node[36].core_layer 	data[36] 	8650
scalar tree_4_3_u07_r16_network.node[36].content_store 	p_hit[36] 	0.30949149836353
scalar tree_4_3_u07_r16_network.node[36].content_store 	hits[36] 	3877
scalar tree_4_3_u07_r16_network.node[36].content_store 	misses[36] 	8650
scalar tree_4_3_u07_r16_network.node[36].content_store 	decision_yes[36] 	29
scalar tree_4_3_u07_r16_network.node[36].content_store 	decision_no[36] 	8621
scalar tree_4_3_u07_r16_network.node[36].content_store 	decision_ratio[36] 	0.0033526011560694
scalar tree_4_3_u07_r16_network.node[37].core_layer 	interests[37] 	12784
scalar tree_4_3_u07_r16_network.node[37].core_layer 	data[37] 	8731
scalar tree_4_3_u07_r16_network.node[37].content_store 	p_hit[37] 	0.31703692115144
scalar tree_4_3_u07_r16_network.node[37].content_store 	hits[37] 	4053
scalar tree_4_3_u07_r16_network.node[37].content_store 	misses[37] 	8731
scalar tree_4_3_u07_r16_network.node[37].content_store 	decision_yes[37] 	23
scalar tree_4_3_u07_r16_network.node[37].content_store 	decision_no[37] 	8708
scalar tree_4_3_u07_r16_network.node[37].content_store 	decision_ratio[37] 	0.0026342916046272
scalar tree_4_3_u07_r16_network.node[38].core_layer 	interests[38] 	12709
scalar tree_4_3_u07_r16_network.node[38].core_layer 	data[38] 	8817
scalar tree_4_3_u07_r16_network.node[38].content_store 	p_hit[38] 	0.30623967267291
scalar tree_4_3_u07_r16_network.node[38].content_store 	hits[38] 	3892
scalar tree_4_3_u07_r16_network.node[38].content_store 	misses[38] 	8817
scalar tree_4_3_u07_r16_network.node[38].content_store 	decision_yes[38] 	42
scalar tree_4_3_u07_r16_network.node[38].content_store 	decision_no[38] 	8775
scalar tree_4_3_u07_r16_network.node[38].content_store 	decision_ratio[38] 	0.0047635250085063
scalar tree_4_3_u07_r16_network.node[39].core_layer 	interests[39] 	12174
scalar tree_4_3_u07_r16_network.node[39].core_layer 	data[39] 	8733
scalar tree_4_3_u07_r16_network.node[39].content_store 	p_hit[39] 	0.28273369475932
scalar tree_4_3_u07_r16_network.node[39].content_store 	hits[39] 	3442
scalar tree_4_3_u07_r16_network.node[39].content_store 	misses[39] 	8732
scalar tree_4_3_u07_r16_network.node[39].content_store 	decision_yes[39] 	23
scalar tree_4_3_u07_r16_network.node[39].content_store 	decision_no[39] 	8710
scalar tree_4_3_u07_r16_network.node[39].content_store 	decision_ratio[39] 	0.0026336883087141
scalar tree_4_3_u07_r16_network.client[13] 	hdistance[13] 	2.6279340769103
scalar tree_4_3_u07_r16_network.client[13] 	downloads[13] 	12014
scalar tree_4_3_u07_r16_network.client[13] 	avg_time[13] 	0.004130344952
scalar tree_4_3_u07_r16_network.client[14] 	hdistance[14] 	2.5677695666779
scalar tree_4_3_u07_r16_network.client[14] 	downloads[14] 	11908
scalar tree_4_3_u07_r16_network.client[14] 	avg_time[14] 	0.004025221566
scalar tree_4_3_u07_r16_network.client[15] 	hdistance[15] 	2.6101426307448
scalar tree_4_3_u07_r16_network.client[15] 	downloads[15] 	11989
scalar tree_4_3_u07_r16_network.client[15] 	avg_time[15] 	0.004097753271
scalar tree_4_3_u07_r16_network.client[16] 	hdistance[16] 	2.5769358315371
scalar tree_4_3_u07_r16_network.client[16] 	downloads[16] 	12062
scalar tree_4_3_u07_r16_network.client[16] 	avg_time[16] 	0.00403945977
scalar tree_4_3_u07_r16_network.client[17] 	hdistance[17] 	2.6195643031373
scalar tree_4_3_u07_r16_network.client[17] 	downloads[17] 	11889
scalar tree_4_3_u07_r16_network.client[17] 	avg_time[17] 	0.004129528507
scalar tree_4_3_u07_r16_network.client[18] 	hdistance[18] 	2.5434457551088
scalar tree_4_3_u07_r16_network.client[18] 	downloads[18] 	12038
scalar tree_4_3_u07_r16_network.client[18] 	avg_time[18] 	0.004012623693
scalar tree_4_3_u07_r16_network.client[19] 	hdistance[19] 	2.5472263868066
scalar tree_4_3_u07_r16_network.client[19] 	downloads[19] 	12006
scalar tree_4_3_u07_r16_network.client[19] 	avg_time[19] 	0.004002995499
scalar tree_4_3_u07_r16_network.client[20] 	hdistance[20] 	2.5650272322165
scalar tree_4_3_u07_r16_network.client[20] 	downloads[20] 	12118
scalar tree_4_3_u07_r16_network.client[20] 	avg_time[20] 	0.004044558771
scalar tree_4_3_u07_r16_network.client[21] 	hdistance[21] 	2.5869100476895
scalar tree_4_3_u07_r16_network.client[21] 	downloads[21] 	12162
scalar tree_4_3_u07_r16_network.client[21] 	avg_time[21] 	0.004080740205
scalar tree_4_3_u07_r16_network.client[22] 	hdistance[22] 	2.5771834241374
scalar tree_4_3_u07_r16_network.client[22] 	downloads[22] 	12114
scalar tree_4_3_u07_r16_network.client[22] 	avg_time[22] 	0.004062073925
scalar tree_4_3_u07_r16_network.client[23] 	hdistance[23] 	2.6360073382255
scalar tree_4_3_u07_r16_network.client[23] 	downloads[23] 	11992
scalar tree_4_3_u07_r16_network.client[23] 	avg_time[23] 	0.004151264506
scalar tree_4_3_u07_r16_network.client[24] 	hdistance[24] 	2.5692142798252
scalar tree_4_3_u07_r16_network.client[24] 	downloads[24] 	12129
scalar tree_4_3_u07_r16_network.client[24] 	avg_time[24] 	0.004045144589
scalar tree_4_3_u07_r16_network.client[25] 	hdistance[25] 	2.5361389896264
scalar tree_4_3_u07_r16_network.client[25] 	downloads[25] 	11857
scalar tree_4_3_u07_r16_network.client[25] 	avg_time[25] 	0.003990045119
scalar tree_4_3_u07_r16_network.client[26] 	hdistance[26] 	2.6600542556799
scalar tree_4_3_u07_r16_network.client[26] 	downloads[26] 	11796
scalar tree_4_3_u07_r16_network.client[26] 	avg_time[26] 	0.004160559946
scalar tree_4_3_u07_r16_network.client[27] 	hdistance[27] 	2.643931212096
scalar tree_4_3_u07_r16_network.client[27] 	downloads[27] 	12037
scalar tree_4_3_u07_r16_network.client[27] 	avg_time[27] 	0.004135578969
scalar tree_4_3_u07_r16_network.client[28] 	hdistance[28] 	2.5725509862922
scalar tree_4_3_u07_r16_network.client[28] 	downloads[28] 	11964
scalar tree_4_3_u07_r16_network.client[28] 	avg_time[28] 	0.00404513239
scalar tree_4_3_u07_r16_network.client[29] 	hdistance[29] 	2.6533930645429
scalar tree_4_3_u07_r16_network.client[29] 	downloads[29] 	12054
scalar tree_4_3_u07_r16_network.client[29] 	avg_time[29] 	0.004203249007
scalar tree_4_3_u07_r16_network.client[30] 	hdistance[30] 	2.5888210191616
scalar tree_4_3_u07_r16_network.client[30] 	downloads[30] 	11951
scalar tree_4_3_u07_r16_network.client[30] 	avg_time[30] 	0.004089863954
scalar tree_4_3_u07_r16_network.client[31] 	hdistance[31] 	2.6049003322259
scalar tree_4_3_u07_r16_network.client[31] 	downloads[31] 	12040
scalar tree_4_3_u07_r16_network.client[31] 	avg_time[31] 	0.00411982813
scalar tree_4_3_u07_r16_network.client[32] 	hdistance[32] 	2.6252860411899
scalar tree_4_3_u07_r16_network.client[32] 	downloads[32] 	12236
scalar tree_4_3_u07_r16_network.client[32] 	avg_time[32] 	0.004151448142
scalar tree_4_3_u07_r16_network.client[33] 	hdistance[33] 	2.5727409387005
scalar tree_4_3_u07_r16_network.client[33] 	downloads[33] 	11974
scalar tree_4_3_u07_r16_network.client[33] 	avg_time[33] 	0.004044927685
scalar tree_4_3_u07_r16_network.client[34] 	hdistance[34] 	2.6464738543134
scalar tree_4_3_u07_r16_network.client[34] 	downloads[34] 	12067
scalar tree_4_3_u07_r16_network.client[34] 	avg_time[34] 	0.004148666912
scalar tree_4_3_u07_r16_network.client[35] 	hdistance[35] 	2.6379324718633
scalar tree_4_3_u07_r16_network.client[35] 	downloads[35] 	11995
scalar tree_4_3_u07_r16_network.client[35] 	avg_time[35] 	0.004131885276
scalar tree_4_3_u07_r16_network.client[36] 	hdistance[36] 	2.5710541888579
scalar tree_4_3_u07_r16_network.client[36] 	downloads[36] 	11829
scalar tree_4_3_u07_r16_network.client[36] 	avg_time[36] 	0.004009335141
scalar tree_4_3_u07_r16_network.client[37] 	hdistance[37] 	2.5395815899582
scalar tree_4_3_u07_r16_network.client[37] 	downloads[37] 	11950
scalar tree_4_3_u07_r16_network.client[37] 	avg_time[37] 	0.003991796175
scalar tree_4_3_u07_r16_network.client[38] 	hdistance[38] 	2.5814398668331
scalar tree_4_3_u07_r16_network.client[38] 	downloads[38] 	12015
scalar tree_4_3_u07_r16_network.client[38] 	avg_time[38] 	0.004028756347
scalar tree_4_3_u07_r16_network.client[39] 	hdistance[39] 	2.6570129651457
scalar tree_4_3_u07_r16_network.client[39] 	downloads[39] 	11878
scalar tree_4_3_u07_r16_network.client[39] 	avg_time[39] 	0.004161135258
