version 2
run General-442-20160901-09:17:36-8710
attr a 0.9
attr cd ffc0.25
attr configname General
attr cr lru
attr datetime 20160901-09:17:36
attr experiment General
attr fsize 1
attr inifile hw5115/scenario_Y/omnetp.ini
attr iterationvars "$name=tree_4_3, $un=07, $rep=8, $cd=ffc0.25, $cr=lru, $fsize=1, $a=0.9, $sl=nrr, $ttl=1000, $variance=0.05"
attr iterationvars2 "$name=tree_4_3, $un=07, $rep=8, $cd=ffc0.25, $cr=lru, $fsize=1, $a=0.9, $sl=nrr, $ttl=1000, $variance=0.05, $repetition=0"
attr measurement "$name=tree_4_3, $un=07, $rep=8, $cd=ffc0.25, $cr=lru, $fsize=1, $a=0.9, $sl=nrr, $ttl=1000, $variance=0.05"
attr name tree_4_3
attr network networks.${name}_u${un}_r${rep}_network
attr processid 8710
attr rep 8
attr repetition 0
attr replication #0
attr resultdir results
attr runnumber 442
attr seedset 8
attr sl nrr
attr ttl 1000
attr un 07
attr variance 0.05

scalar . 	a 	0.9
scalar . 	fsize 	1
scalar . 	rep 	8
scalar . 	ttl 	1000
scalar . 	un 	07
scalar . 	variance 	0.05
scalar tree_4_3_u07_r8_network.content_distribution 	repo-0 	0
scalar tree_4_3_u07_r8_network.content_distribution 	client-0 	13
scalar tree_4_3_u07_r8_network.content_distribution 	client-1 	14
scalar tree_4_3_u07_r8_network.content_distribution 	client-2 	15
scalar tree_4_3_u07_r8_network.content_distribution 	client-3 	16
scalar tree_4_3_u07_r8_network.content_distribution 	client-4 	17
scalar tree_4_3_u07_r8_network.content_distribution 	client-5 	18
scalar tree_4_3_u07_r8_network.content_distribution 	client-6 	19
scalar tree_4_3_u07_r8_network.content_distribution 	client-7 	20
scalar tree_4_3_u07_r8_network.content_distribution 	client-8 	21
scalar tree_4_3_u07_r8_network.content_distribution 	client-9 	22
scalar tree_4_3_u07_r8_network.content_distribution 	client-10 	23
scalar tree_4_3_u07_r8_network.content_distribution 	client-11 	24
scalar tree_4_3_u07_r8_network.content_distribution 	client-12 	25
scalar tree_4_3_u07_r8_network.content_distribution 	client-13 	26
scalar tree_4_3_u07_r8_network.content_distribution 	client-14 	27
scalar tree_4_3_u07_r8_network.content_distribution 	client-15 	28
scalar tree_4_3_u07_r8_network.content_distribution 	client-16 	29
scalar tree_4_3_u07_r8_network.content_distribution 	client-17 	30
scalar tree_4_3_u07_r8_network.content_distribution 	client-18 	31
scalar tree_4_3_u07_r8_network.content_distribution 	client-19 	32
scalar tree_4_3_u07_r8_network.content_distribution 	client-20 	33
scalar tree_4_3_u07_r8_network.content_distribution 	client-21 	34
scalar tree_4_3_u07_r8_network.content_distribution 	client-22 	35
scalar tree_4_3_u07_r8_network.content_distribution 	client-23 	36
scalar tree_4_3_u07_r8_network.content_distribution 	client-24 	37
scalar tree_4_3_u07_r8_network.content_distribution 	client-25 	38
scalar tree_4_3_u07_r8_network.content_distribution 	client-26 	39
scalar tree_4_3_u07_r8_network.content_distribution 	repo-0_card 	100000
scalar tree_4_3_u07_r8_network.content_distribution 	repo-0_price 	0
scalar tree_4_3_u07_r8_network.statistics 	stabilization_time 	1784.5
scalar tree_4_3_u07_r8_network.statistics 	p_hit 	0.23872264949962
scalar tree_4_3_u07_r8_network.statistics 	interests 	24663.125
scalar tree_4_3_u07_r8_network.statistics 	data 	16548.625
scalar tree_4_3_u07_r8_network.statistics 	hdistance 	2.596266572023
scalar tree_4_3_u07_r8_network.statistics 	avg_time 	0.0040786879
scalar tree_4_3_u07_r8_network.statistics 	downloads 	324579
scalar tree_4_3_u07_r8_network.statistics 	total_cost 	0
scalar tree_4_3_u07_r8_network.statistics 	total_replicas 	100000
scalar tree_4_3_u07_r8_network.statistics 	inner_hit 	0.44309089620709
scalar tree_4_3_u07_r8_network.node[0].core_layer 	interests[0] 	184093
scalar tree_4_3_u07_r8_network.node[0].core_layer 	repo_load[0] 	180761
scalar tree_4_3_u07_r8_network.node[0].core_layer 	data[0] 	0
scalar tree_4_3_u07_r8_network.node[0].core_layer 	repo_int[0] 	180761
scalar tree_4_3_u07_r8_network.node[0].content_store 	p_hit[0] 	0.018099547511312
scalar tree_4_3_u07_r8_network.node[0].content_store 	hits[0] 	3332
scalar tree_4_3_u07_r8_network.node[0].content_store 	misses[0] 	180761
scalar tree_4_3_u07_r8_network.node[0].content_store 	decision_yes[0] 	178
scalar tree_4_3_u07_r8_network.node[0].content_store 	decision_no[0] 	180583
scalar tree_4_3_u07_r8_network.node[0].content_store 	decision_ratio[0] 	0.00098472568751003
scalar tree_4_3_u07_r8_network.node[1].core_layer 	interests[1] 	117189
scalar tree_4_3_u07_r8_network.node[1].core_layer 	data[1] 	114292
scalar tree_4_3_u07_r8_network.node[1].content_store 	p_hit[1] 	0.024686617344631
scalar tree_4_3_u07_r8_network.node[1].content_store 	hits[1] 	2893
scalar tree_4_3_u07_r8_network.node[1].content_store 	misses[1] 	114296
scalar tree_4_3_u07_r8_network.node[1].content_store 	decision_yes[1] 	144
scalar tree_4_3_u07_r8_network.node[1].content_store 	decision_no[1] 	114148
scalar tree_4_3_u07_r8_network.node[1].content_store 	decision_ratio[1] 	0.0012599307038113
scalar tree_4_3_u07_r8_network.node[2].core_layer 	interests[2] 	68900
scalar tree_4_3_u07_r8_network.node[2].core_layer 	data[2] 	66177
scalar tree_4_3_u07_r8_network.node[2].content_store 	p_hit[2] 	0.039492017416546
scalar tree_4_3_u07_r8_network.node[2].content_store 	hits[2] 	2721
scalar tree_4_3_u07_r8_network.node[2].content_store 	misses[2] 	66179
scalar tree_4_3_u07_r8_network.node[2].content_store 	decision_yes[2] 	92
scalar tree_4_3_u07_r8_network.node[2].content_store 	decision_no[2] 	66085
scalar tree_4_3_u07_r8_network.node[2].content_store 	decision_ratio[2] 	0.0013902111005334
scalar tree_4_3_u07_r8_network.node[3].core_layer 	interests[3] 	22774
scalar tree_4_3_u07_r8_network.node[3].core_layer 	data[3] 	18954
scalar tree_4_3_u07_r8_network.node[3].content_store 	p_hit[3] 	0.16773513655923
scalar tree_4_3_u07_r8_network.node[3].content_store 	hits[3] 	3820
scalar tree_4_3_u07_r8_network.node[3].content_store 	misses[3] 	18954
scalar tree_4_3_u07_r8_network.node[3].content_store 	decision_yes[3] 	76
scalar tree_4_3_u07_r8_network.node[3].content_store 	decision_no[3] 	18878
scalar tree_4_3_u07_r8_network.node[3].content_store 	decision_ratio[3] 	0.0040097077134114
scalar tree_4_3_u07_r8_network.node[4].core_layer 	interests[4] 	41931
scalar tree_4_3_u07_r8_network.node[4].core_layer 	data[4] 	39193
scalar tree_4_3_u07_r8_network.node[4].content_store 	p_hit[4] 	0.065273902363407
scalar tree_4_3_u07_r8_network.node[4].content_store 	hits[4] 	2737
scalar tree_4_3_u07_r8_network.node[4].content_store 	misses[4] 	39194
scalar tree_4_3_u07_r8_network.node[4].content_store 	decision_yes[4] 	67
scalar tree_4_3_u07_r8_network.node[4].content_store 	decision_no[4] 	39126
scalar tree_4_3_u07_r8_network.node[4].content_store 	decision_ratio[4] 	0.0017094889393514
scalar tree_4_3_u07_r8_network.node[5].core_layer 	interests[5] 	26401
scalar tree_4_3_u07_r8_network.node[5].core_layer 	data[5] 	23793
scalar tree_4_3_u07_r8_network.node[5].content_store 	p_hit[5] 	0.098784136964509
scalar tree_4_3_u07_r8_network.node[5].content_store 	hits[5] 	2608
scalar tree_4_3_u07_r8_network.node[5].content_store 	misses[5] 	23793
scalar tree_4_3_u07_r8_network.node[5].content_store 	decision_yes[5] 	55
scalar tree_4_3_u07_r8_network.node[5].content_store 	decision_no[5] 	23738
scalar tree_4_3_u07_r8_network.node[5].content_store 	decision_ratio[5] 	0.0023116042533518
scalar tree_4_3_u07_r8_network.node[6].core_layer 	interests[6] 	14864
scalar tree_4_3_u07_r8_network.node[6].core_layer 	data[6] 	11229
scalar tree_4_3_u07_r8_network.node[6].content_store 	p_hit[6] 	0.24455059203445
scalar tree_4_3_u07_r8_network.node[6].content_store 	hits[6] 	3635
scalar tree_4_3_u07_r8_network.node[6].content_store 	misses[6] 	11229
scalar tree_4_3_u07_r8_network.node[6].content_store 	decision_yes[6] 	86
scalar tree_4_3_u07_r8_network.node[6].content_store 	decision_no[6] 	11143
scalar tree_4_3_u07_r8_network.node[6].content_store 	decision_ratio[6] 	0.0076587407605308
scalar tree_4_3_u07_r8_network.node[7].core_layer 	interests[7] 	27558
scalar tree_4_3_u07_r8_network.node[7].core_layer 	data[7] 	24551
scalar tree_4_3_u07_r8_network.node[7].content_store 	p_hit[7] 	0.10911532041512
scalar tree_4_3_u07_r8_network.node[7].content_store 	hits[7] 	3007
scalar tree_4_3_u07_r8_network.node[7].content_store 	misses[7] 	24551
scalar tree_4_3_u07_r8_network.node[7].content_store 	decision_yes[7] 	58
scalar tree_4_3_u07_r8_network.node[7].content_store 	decision_no[7] 	24493
scalar tree_4_3_u07_r8_network.node[7].content_store 	decision_ratio[7] 	0.002362429228952
scalar tree_4_3_u07_r8_network.node[8].core_layer 	interests[8] 	33861
scalar tree_4_3_u07_r8_network.node[8].core_layer 	data[8] 	31639
scalar tree_4_3_u07_r8_network.node[8].content_store 	p_hit[8] 	0.065591683647854
scalar tree_4_3_u07_r8_network.node[8].content_store 	hits[8] 	2221
scalar tree_4_3_u07_r8_network.node[8].content_store 	misses[8] 	31640
scalar tree_4_3_u07_r8_network.node[8].content_store 	decision_yes[8] 	65
scalar tree_4_3_u07_r8_network.node[8].content_store 	decision_no[8] 	31574
scalar tree_4_3_u07_r8_network.node[8].content_store 	decision_ratio[8] 	0.0020544264989412
scalar tree_4_3_u07_r8_network.node[9].core_layer 	interests[9] 	22550
scalar tree_4_3_u07_r8_network.node[9].core_layer 	data[9] 	18900
scalar tree_4_3_u07_r8_network.node[9].content_store 	p_hit[9] 	0.16186252771619
scalar tree_4_3_u07_r8_network.node[9].content_store 	hits[9] 	3650
scalar tree_4_3_u07_r8_network.node[9].content_store 	misses[9] 	18900
scalar tree_4_3_u07_r8_network.node[9].content_store 	decision_yes[9] 	96
scalar tree_4_3_u07_r8_network.node[9].content_store 	decision_no[9] 	18804
scalar tree_4_3_u07_r8_network.node[9].content_store 	decision_ratio[9] 	0.0050793650793651
scalar tree_4_3_u07_r8_network.node[10].core_layer 	interests[10] 	35582
scalar tree_4_3_u07_r8_network.node[10].core_layer 	data[10] 	32267
scalar tree_4_3_u07_r8_network.node[10].content_store 	p_hit[10] 	0.09316508346917
scalar tree_4_3_u07_r8_network.node[10].content_store 	hits[10] 	3315
scalar tree_4_3_u07_r8_network.node[10].content_store 	misses[10] 	32267
scalar tree_4_3_u07_r8_network.node[10].content_store 	decision_yes[10] 	63
scalar tree_4_3_u07_r8_network.node[10].content_store 	decision_no[10] 	32204
scalar tree_4_3_u07_r8_network.node[10].content_store 	decision_ratio[10] 	0.0019524591688102
scalar tree_4_3_u07_r8_network.node[11].core_layer 	interests[11] 	29868
scalar tree_4_3_u07_r8_network.node[11].core_layer 	data[11] 	26370
scalar tree_4_3_u07_r8_network.node[11].content_store 	p_hit[11] 	0.11711530735235
scalar tree_4_3_u07_r8_network.node[11].content_store 	hits[11] 	3498
scalar tree_4_3_u07_r8_network.node[11].content_store 	misses[11] 	26370
scalar tree_4_3_u07_r8_network.node[11].content_store 	decision_yes[11] 	95
scalar tree_4_3_u07_r8_network.node[11].content_store 	decision_no[11] 	26275
scalar tree_4_3_u07_r8_network.node[11].content_store 	decision_ratio[11] 	0.0036025786879029
scalar tree_4_3_u07_r8_network.node[12].core_layer 	interests[12] 	19909
scalar tree_4_3_u07_r8_network.node[12].core_layer 	data[12] 	17386
scalar tree_4_3_u07_r8_network.node[12].content_store 	p_hit[12] 	0.12672660605756
scalar tree_4_3_u07_r8_network.node[12].content_store 	hits[12] 	2523
scalar tree_4_3_u07_r8_network.node[12].content_store 	misses[12] 	17386
scalar tree_4_3_u07_r8_network.node[12].content_store 	decision_yes[12] 	47
scalar tree_4_3_u07_r8_network.node[12].content_store 	decision_no[12] 	17339
scalar tree_4_3_u07_r8_network.node[12].content_store 	decision_ratio[12] 	0.0027033245139768
scalar tree_4_3_u07_r8_network.node[13].core_layer 	interests[13] 	12393
scalar tree_4_3_u07_r8_network.node[13].core_layer 	data[13] 	8675
scalar tree_4_3_u07_r8_network.node[13].content_store 	p_hit[13] 	0.30000806907125
scalar tree_4_3_u07_r8_network.node[13].content_store 	hits[13] 	3718
scalar tree_4_3_u07_r8_network.node[13].content_store 	misses[13] 	8675
scalar tree_4_3_u07_r8_network.node[13].content_store 	decision_yes[13] 	25
scalar tree_4_3_u07_r8_network.node[13].content_store 	decision_no[13] 	8650
scalar tree_4_3_u07_r8_network.node[13].content_store 	decision_ratio[13] 	0.0028818443804035
scalar tree_4_3_u07_r8_network.node[14].core_layer 	interests[14] 	12459
scalar tree_4_3_u07_r8_network.node[14].core_layer 	data[14] 	8753
scalar tree_4_3_u07_r8_network.node[14].content_store 	p_hit[14] 	0.29745565454691
scalar tree_4_3_u07_r8_network.node[14].content_store 	hits[14] 	3706
scalar tree_4_3_u07_r8_network.node[14].content_store 	misses[14] 	8753
scalar tree_4_3_u07_r8_network.node[14].content_store 	decision_yes[14] 	28
scalar tree_4_3_u07_r8_network.node[14].content_store 	decision_no[14] 	8725
scalar tree_4_3_u07_r8_network.node[14].content_store 	decision_ratio[14] 	0.0031989032331772
scalar tree_4_3_u07_r8_network.node[15].core_layer 	interests[15] 	12745
scalar tree_4_3_u07_r8_network.node[15].core_layer 	data[15] 	8648
scalar tree_4_3_u07_r8_network.node[15].content_store 	p_hit[15] 	0.32145939584151
scalar tree_4_3_u07_r8_network.node[15].content_store 	hits[15] 	4097
scalar tree_4_3_u07_r8_network.node[15].content_store 	misses[15] 	8648
scalar tree_4_3_u07_r8_network.node[15].content_store 	decision_yes[15] 	36
scalar tree_4_3_u07_r8_network.node[15].content_store 	decision_no[15] 	8612
scalar tree_4_3_u07_r8_network.node[15].content_store 	decision_ratio[15] 	0.0041628122109158
scalar tree_4_3_u07_r8_network.node[16].core_layer 	interests[16] 	12585
scalar tree_4_3_u07_r8_network.node[16].core_layer 	data[16] 	8632
scalar tree_4_3_u07_r8_network.node[16].content_store 	p_hit[16] 	0.31410409217322
scalar tree_4_3_u07_r8_network.node[16].content_store 	hits[16] 	3953
scalar tree_4_3_u07_r8_network.node[16].content_store 	misses[16] 	8632
scalar tree_4_3_u07_r8_network.node[16].content_store 	decision_yes[16] 	30
scalar tree_4_3_u07_r8_network.node[16].content_store 	decision_no[16] 	8602
scalar tree_4_3_u07_r8_network.node[16].content_store 	decision_ratio[16] 	0.0034754402224282
scalar tree_4_3_u07_r8_network.node[17].core_layer 	interests[17] 	12289
scalar tree_4_3_u07_r8_network.node[17].core_layer 	data[17] 	8836
scalar tree_4_3_u07_r8_network.node[17].content_store 	p_hit[17] 	0.2809829929205
scalar tree_4_3_u07_r8_network.node[17].content_store 	hits[17] 	3453
scalar tree_4_3_u07_r8_network.node[17].content_store 	misses[17] 	8836
scalar tree_4_3_u07_r8_network.node[17].content_store 	decision_yes[17] 	31
scalar tree_4_3_u07_r8_network.node[17].content_store 	decision_no[17] 	8805
scalar tree_4_3_u07_r8_network.node[17].content_store 	decision_ratio[17] 	0.0035083748302399
scalar tree_4_3_u07_r8_network.node[18].core_layer 	interests[18] 	13025
scalar tree_4_3_u07_r8_network.node[18].core_layer 	data[18] 	8904
scalar tree_4_3_u07_r8_network.node[18].content_store 	p_hit[18] 	0.31646833013436
scalar tree_4_3_u07_r8_network.node[18].content_store 	hits[18] 	4122
scalar tree_4_3_u07_r8_network.node[18].content_store 	misses[18] 	8903
scalar tree_4_3_u07_r8_network.node[18].content_store 	decision_yes[18] 	30
scalar tree_4_3_u07_r8_network.node[18].content_store 	decision_no[18] 	8874
scalar tree_4_3_u07_r8_network.node[18].content_store 	decision_ratio[18] 	0.0033692722371968
scalar tree_4_3_u07_r8_network.node[19].core_layer 	interests[19] 	12616
scalar tree_4_3_u07_r8_network.node[19].core_layer 	data[19] 	8623
scalar tree_4_3_u07_r8_network.node[19].content_store 	p_hit[19] 	0.31650285351934
scalar tree_4_3_u07_r8_network.node[19].content_store 	hits[19] 	3993
scalar tree_4_3_u07_r8_network.node[19].content_store 	misses[19] 	8623
scalar tree_4_3_u07_r8_network.node[19].content_store 	decision_yes[19] 	41
scalar tree_4_3_u07_r8_network.node[19].content_store 	decision_no[19] 	8582
scalar tree_4_3_u07_r8_network.node[19].content_store 	decision_ratio[19] 	0.0047547257335034
scalar tree_4_3_u07_r8_network.node[20].core_layer 	interests[20] 	12801
scalar tree_4_3_u07_r8_network.node[20].core_layer 	data[20] 	8807
scalar tree_4_3_u07_r8_network.node[20].content_store 	p_hit[20] 	0.31200687446293
scalar tree_4_3_u07_r8_network.node[20].content_store 	hits[20] 	3994
scalar tree_4_3_u07_r8_network.node[20].content_store 	misses[20] 	8807
scalar tree_4_3_u07_r8_network.node[20].content_store 	decision_yes[20] 	22
scalar tree_4_3_u07_r8_network.node[20].content_store 	decision_no[20] 	8785
scalar tree_4_3_u07_r8_network.node[20].content_store 	decision_ratio[20] 	0.0024980129442489
scalar tree_4_3_u07_r8_network.node[21].core_layer 	interests[21] 	12548
scalar tree_4_3_u07_r8_network.node[21].core_layer 	data[21] 	8767
scalar tree_4_3_u07_r8_network.node[21].content_store 	p_hit[21] 	0.30132291998725
scalar tree_4_3_u07_r8_network.node[21].content_store 	hits[21] 	3781
scalar tree_4_3_u07_r8_network.node[21].content_store 	misses[21] 	8767
scalar tree_4_3_u07_r8_network.node[21].content_store 	decision_yes[21] 	28
scalar tree_4_3_u07_r8_network.node[21].content_store 	decision_no[21] 	8739
scalar tree_4_3_u07_r8_network.node[21].content_store 	decision_ratio[21] 	0.003193794912741
scalar tree_4_3_u07_r8_network.node[22].core_layer 	interests[22] 	12445
scalar tree_4_3_u07_r8_network.node[22].core_layer 	data[22] 	8778
scalar tree_4_3_u07_r8_network.node[22].content_store 	p_hit[22] 	0.29465648854962
scalar tree_4_3_u07_r8_network.node[22].content_store 	hits[22] 	3667
scalar tree_4_3_u07_r8_network.node[22].content_store 	misses[22] 	8778
scalar tree_4_3_u07_r8_network.node[22].content_store 	decision_yes[22] 	20
scalar tree_4_3_u07_r8_network.node[22].content_store 	decision_no[22] 	8758
scalar tree_4_3_u07_r8_network.node[22].content_store 	decision_ratio[22] 	0.0022784233310549
scalar tree_4_3_u07_r8_network.node[23].core_layer 	interests[23] 	12198
scalar tree_4_3_u07_r8_network.node[23].core_layer 	data[23] 	8613
scalar tree_4_3_u07_r8_network.node[23].content_store 	p_hit[23] 	0.29390063944909
scalar tree_4_3_u07_r8_network.node[23].content_store 	hits[23] 	3585
scalar tree_4_3_u07_r8_network.node[23].content_store 	misses[23] 	8613
scalar tree_4_3_u07_r8_network.node[23].content_store 	decision_yes[23] 	22
scalar tree_4_3_u07_r8_network.node[23].content_store 	decision_no[23] 	8591
scalar tree_4_3_u07_r8_network.node[23].content_store 	decision_ratio[23] 	0.0025542784163474
scalar tree_4_3_u07_r8_network.node[24].core_layer 	interests[24] 	12907
scalar tree_4_3_u07_r8_network.node[24].core_layer 	data[24] 	8785
scalar tree_4_3_u07_r8_network.node[24].content_store 	p_hit[24] 	0.31936158673588
scalar tree_4_3_u07_r8_network.node[24].content_store 	hits[24] 	4122
scalar tree_4_3_u07_r8_network.node[24].content_store 	misses[24] 	8785
scalar tree_4_3_u07_r8_network.node[24].content_store 	decision_yes[24] 	32
scalar tree_4_3_u07_r8_network.node[24].content_store 	decision_no[24] 	8753
scalar tree_4_3_u07_r8_network.node[24].content_store 	decision_ratio[24] 	0.0036425725668754
scalar tree_4_3_u07_r8_network.node[25].core_layer 	interests[25] 	12536
scalar tree_4_3_u07_r8_network.node[25].core_layer 	data[25] 	8905
scalar tree_4_3_u07_r8_network.node[25].content_store 	p_hit[25] 	0.28964582003829
scalar tree_4_3_u07_r8_network.node[25].content_store 	hits[25] 	3631
scalar tree_4_3_u07_r8_network.node[25].content_store 	misses[25] 	8905
scalar tree_4_3_u07_r8_network.node[25].content_store 	decision_yes[25] 	33
scalar tree_4_3_u07_r8_network.node[25].content_store 	decision_no[25] 	8872
scalar tree_4_3_u07_r8_network.node[25].content_store 	decision_ratio[25] 	0.0037057832678271
scalar tree_4_3_u07_r8_network.node[26].core_layer 	interests[26] 	12376
scalar tree_4_3_u07_r8_network.node[26].core_layer 	data[26] 	8695
scalar tree_4_3_u07_r8_network.node[26].content_store 	p_hit[26] 	0.2974305106658
scalar tree_4_3_u07_r8_network.node[26].content_store 	hits[26] 	3681
scalar tree_4_3_u07_r8_network.node[26].content_store 	misses[26] 	8695
scalar tree_4_3_u07_r8_network.node[26].content_store 	decision_yes[26] 	20
scalar tree_4_3_u07_r8_network.node[26].content_store 	decision_no[26] 	8675
scalar tree_4_3_u07_r8_network.node[26].content_store 	decision_ratio[26] 	0.0023001725129385
scalar tree_4_3_u07_r8_network.node[27].core_layer 	interests[27] 	12915
scalar tree_4_3_u07_r8_network.node[27].core_layer 	data[27] 	8848
scalar tree_4_3_u07_r8_network.node[27].content_store 	p_hit[27] 	0.31490514905149
scalar tree_4_3_u07_r8_network.node[27].content_store 	hits[27] 	4067
scalar tree_4_3_u07_r8_network.node[27].content_store 	misses[27] 	8848
scalar tree_4_3_u07_r8_network.node[27].content_store 	decision_yes[27] 	33
scalar tree_4_3_u07_r8_network.node[27].content_store 	decision_no[27] 	8815
scalar tree_4_3_u07_r8_network.node[27].content_store 	decision_ratio[27] 	0.0037296564195298
scalar tree_4_3_u07_r8_network.node[28].core_layer 	interests[28] 	12587
scalar tree_4_3_u07_r8_network.node[28].core_layer 	data[28] 	8843
scalar tree_4_3_u07_r8_network.node[28].content_store 	p_hit[28] 	0.2974497497418
scalar tree_4_3_u07_r8_network.node[28].content_store 	hits[28] 	3744
scalar tree_4_3_u07_r8_network.node[28].content_store 	misses[28] 	8843
scalar tree_4_3_u07_r8_network.node[28].content_store 	decision_yes[28] 	22
scalar tree_4_3_u07_r8_network.node[28].content_store 	decision_no[28] 	8821
scalar tree_4_3_u07_r8_network.node[28].content_store 	decision_ratio[28] 	0.0024878434920276
scalar tree_4_3_u07_r8_network.node[29].core_layer 	interests[29] 	12740
scalar tree_4_3_u07_r8_network.node[29].core_layer 	data[29] 	8697
scalar tree_4_3_u07_r8_network.node[29].content_store 	p_hit[29] 	0.31734693877551
scalar tree_4_3_u07_r8_network.node[29].content_store 	hits[29] 	4043
scalar tree_4_3_u07_r8_network.node[29].content_store 	misses[29] 	8697
scalar tree_4_3_u07_r8_network.node[29].content_store 	decision_yes[29] 	29
scalar tree_4_3_u07_r8_network.node[29].content_store 	decision_no[29] 	8668
scalar tree_4_3_u07_r8_network.node[29].content_store 	decision_ratio[29] 	0.003334483155111
scalar tree_4_3_u07_r8_network.node[30].core_layer 	interests[30] 	12445
scalar tree_4_3_u07_r8_network.node[30].core_layer 	data[30] 	8742
scalar tree_4_3_u07_r8_network.node[30].content_store 	p_hit[30] 	0.29754921655283
scalar tree_4_3_u07_r8_network.node[30].content_store 	hits[30] 	3703
scalar tree_4_3_u07_r8_network.node[30].content_store 	misses[30] 	8742
scalar tree_4_3_u07_r8_network.node[30].content_store 	decision_yes[30] 	30
scalar tree_4_3_u07_r8_network.node[30].content_store 	decision_no[30] 	8712
scalar tree_4_3_u07_r8_network.node[30].content_store 	decision_ratio[30] 	0.0034317089910776
scalar tree_4_3_u07_r8_network.node[31].core_layer 	interests[31] 	12489
scalar tree_4_3_u07_r8_network.node[31].core_layer 	data[31] 	8830
scalar tree_4_3_u07_r8_network.node[31].content_store 	p_hit[31] 	0.29297782048202
scalar tree_4_3_u07_r8_network.node[31].content_store 	hits[31] 	3659
scalar tree_4_3_u07_r8_network.node[31].content_store 	misses[31] 	8830
scalar tree_4_3_u07_r8_network.node[31].content_store 	decision_yes[31] 	29
scalar tree_4_3_u07_r8_network.node[31].content_store 	decision_no[31] 	8801
scalar tree_4_3_u07_r8_network.node[31].content_store 	decision_ratio[31] 	0.0032842582106455
scalar tree_4_3_u07_r8_network.node[32].core_layer 	interests[32] 	12985
scalar tree_4_3_u07_r8_network.node[32].core_layer 	data[32] 	8859
scalar tree_4_3_u07_r8_network.node[32].content_store 	p_hit[32] 	0.31775125144397
scalar tree_4_3_u07_r8_network.node[32].content_store 	hits[32] 	4126
scalar tree_4_3_u07_r8_network.node[32].content_store 	misses[32] 	8859
scalar tree_4_3_u07_r8_network.node[32].content_store 	decision_yes[32] 	27
scalar tree_4_3_u07_r8_network.node[32].content_store 	decision_no[32] 	8832
scalar tree_4_3_u07_r8_network.node[32].content_store 	decision_ratio[32] 	0.0030477480528276
scalar tree_4_3_u07_r8_network.node[33].core_layer 	interests[33] 	13059
scalar tree_4_3_u07_r8_network.node[33].core_layer 	data[33] 	9059
scalar tree_4_3_u07_r8_network.node[33].content_store 	p_hit[33] 	0.30622559154606
scalar tree_4_3_u07_r8_network.node[33].content_store 	hits[33] 	3999
scalar tree_4_3_u07_r8_network.node[33].content_store 	misses[33] 	9060
scalar tree_4_3_u07_r8_network.node[33].content_store 	decision_yes[33] 	29
scalar tree_4_3_u07_r8_network.node[33].content_store 	decision_no[33] 	9030
scalar tree_4_3_u07_r8_network.node[33].content_store 	decision_ratio[33] 	0.0032012363395518
scalar tree_4_3_u07_r8_network.node[34].core_layer 	interests[34] 	12832
scalar tree_4_3_u07_r8_network.node[34].core_layer 	data[34] 	8637
scalar tree_4_3_u07_r8_network.node[34].content_store 	p_hit[34] 	0.32691708229426
scalar tree_4_3_u07_r8_network.node[34].content_store 	hits[34] 	4195
scalar tree_4_3_u07_r8_network.node[34].content_store 	misses[34] 	8637
scalar tree_4_3_u07_r8_network.node[34].content_store 	decision_yes[34] 	22
scalar tree_4_3_u07_r8_network.node[34].content_store 	decision_no[34] 	8615
scalar tree_4_3_u07_r8_network.node[34].content_store 	decision_ratio[34] 	0.0025471807340512
scalar tree_4_3_u07_r8_network.node[35].core_layer 	interests[35] 	12484
scalar tree_4_3_u07_r8_network.node[35].core_layer 	data[35] 	8770
scalar tree_4_3_u07_r8_network.node[35].content_store 	p_hit[35] 	0.29750080102531
scalar tree_4_3_u07_r8_network.node[35].content_store 	hits[35] 	3714
scalar tree_4_3_u07_r8_network.node[35].content_store 	misses[35] 	8770
scalar tree_4_3_u07_r8_network.node[35].content_store 	decision_yes[35] 	21
scalar tree_4_3_u07_r8_network.node[35].content_store 	decision_no[35] 	8749
scalar tree_4_3_u07_r8_network.node[35].content_store 	decision_ratio[35] 	0.0023945267958951
scalar tree_4_3_u07_r8_network.node[36].core_layer 	interests[36] 	12521
scalar tree_4_3_u07_r8_network.node[36].core_layer 	data[36] 	8741
scalar tree_4_3_u07_r8_network.node[36].content_store 	p_hit[36] 	0.30181295423688
scalar tree_4_3_u07_r8_network.node[36].content_store 	hits[36] 	3779
scalar tree_4_3_u07_r8_network.node[36].content_store 	misses[36] 	8742
scalar tree_4_3_u07_r8_network.node[36].content_store 	decision_yes[36] 	33
scalar tree_4_3_u07_r8_network.node[36].content_store 	decision_no[36] 	8708
scalar tree_4_3_u07_r8_network.node[36].content_store 	decision_ratio[36] 	0.0037753117492278
scalar tree_4_3_u07_r8_network.node[37].core_layer 	interests[37] 	12555
scalar tree_4_3_u07_r8_network.node[37].core_layer 	data[37] 	8971
scalar tree_4_3_u07_r8_network.node[37].content_store 	p_hit[37] 	0.28546395858224
scalar tree_4_3_u07_r8_network.node[37].content_store 	hits[37] 	3584
scalar tree_4_3_u07_r8_network.node[37].content_store 	misses[37] 	8971
scalar tree_4_3_u07_r8_network.node[37].content_store 	decision_yes[37] 	18
scalar tree_4_3_u07_r8_network.node[37].content_store 	decision_no[37] 	8953
scalar tree_4_3_u07_r8_network.node[37].content_store 	decision_ratio[37] 	0.0020064652770037
scalar tree_4_3_u07_r8_network.node[38].core_layer 	interests[38] 	13147
scalar tree_4_3_u07_r8_network.node[38].core_layer 	data[38] 	8985
scalar tree_4_3_u07_r8_network.node[38].content_store 	p_hit[38] 	0.31657412337415
scalar tree_4_3_u07_r8_network.node[38].content_store 	hits[38] 	4162
scalar tree_4_3_u07_r8_network.node[38].content_store 	misses[38] 	8985
scalar tree_4_3_u07_r8_network.node[38].content_store 	decision_yes[38] 	26
scalar tree_4_3_u07_r8_network.node[38].content_store 	decision_no[38] 	8959
scalar tree_4_3_u07_r8_network.node[38].content_store 	decision_ratio[38] 	0.0028937117417919
scalar tree_4_3_u07_r8_network.node[39].core_layer 	interests[39] 	12363
scalar tree_4_3_u07_r8_network.node[39].core_layer 	data[39] 	8791
scalar tree_4_3_u07_r8_network.node[39].content_store 	p_hit[39] 	0.28892663592979
scalar tree_4_3_u07_r8_network.node[39].content_store 	hits[39] 	3572
scalar tree_4_3_u07_r8_network.node[39].content_store 	misses[39] 	8791
scalar tree_4_3_u07_r8_network.node[39].content_store 	decision_yes[39] 	28
scalar tree_4_3_u07_r8_network.node[39].content_store 	decision_no[39] 	8763
scalar tree_4_3_u07_r8_network.node[39].content_store 	decision_ratio[39] 	0.0031850756455466
scalar tree_4_3_u07_r8_network.client[13] 	hdistance[13] 	2.6232078477404
scalar tree_4_3_u07_r8_network.client[13] 	downloads[13] 	11927
scalar tree_4_3_u07_r8_network.client[13] 	avg_time[13] 	0.004109496442
scalar tree_4_3_u07_r8_network.client[14] 	hdistance[14] 	2.6320833333333
scalar tree_4_3_u07_r8_network.client[14] 	downloads[14] 	12000
scalar tree_4_3_u07_r8_network.client[14] 	avg_time[14] 	0.004122798981
scalar tree_4_3_u07_r8_network.client[15] 	hdistance[15] 	2.5458389715832
scalar tree_4_3_u07_r8_network.client[15] 	downloads[15] 	11824
scalar tree_4_3_u07_r8_network.client[15] 	avg_time[15] 	0.004002195956
scalar tree_4_3_u07_r8_network.client[16] 	hdistance[16] 	2.5933673469388
scalar tree_4_3_u07_r8_network.client[16] 	downloads[16] 	11760
scalar tree_4_3_u07_r8_network.client[16] 	avg_time[16] 	0.004046765778
scalar tree_4_3_u07_r8_network.client[17] 	hdistance[17] 	2.6676982268317
scalar tree_4_3_u07_r8_network.client[17] 	downloads[17] 	11956
scalar tree_4_3_u07_r8_network.client[17] 	avg_time[17] 	0.004196216529
scalar tree_4_3_u07_r8_network.client[18] 	hdistance[18] 	2.5556920556921
scalar tree_4_3_u07_r8_network.client[18] 	downloads[18] 	12210
scalar tree_4_3_u07_r8_network.client[18] 	avg_time[18] 	0.004011462986
scalar tree_4_3_u07_r8_network.client[19] 	hdistance[19] 	2.5502424912788
scalar tree_4_3_u07_r8_network.client[19] 	downloads[19] 	11753
scalar tree_4_3_u07_r8_network.client[19] 	avg_time[19] 	0.004009866903
scalar tree_4_3_u07_r8_network.client[20] 	hdistance[20] 	2.5402146985962
scalar tree_4_3_u07_r8_network.client[20] 	downloads[20] 	12110
scalar tree_4_3_u07_r8_network.client[20] 	avg_time[20] 	0.003994546969
scalar tree_4_3_u07_r8_network.client[21] 	hdistance[21] 	2.5887110084172
scalar tree_4_3_u07_r8_network.client[21] 	downloads[21] 	12118
scalar tree_4_3_u07_r8_network.client[21] 	avg_time[21] 	0.00407839275
scalar tree_4_3_u07_r8_network.client[22] 	hdistance[22] 	2.6364012923536
scalar tree_4_3_u07_r8_network.client[22] 	downloads[22] 	12071
scalar tree_4_3_u07_r8_network.client[22] 	avg_time[22] 	0.004164192123
scalar tree_4_3_u07_r8_network.client[23] 	hdistance[23] 	2.6027397260274
scalar tree_4_3_u07_r8_network.client[23] 	downloads[23] 	11826
scalar tree_4_3_u07_r8_network.client[23] 	avg_time[23] 	0.004124825715
scalar tree_4_3_u07_r8_network.client[24] 	hdistance[24] 	2.5384551078415
scalar tree_4_3_u07_r8_network.client[24] 	downloads[24] 	11962
scalar tree_4_3_u07_r8_network.client[24] 	avg_time[24] 	0.004002337751
scalar tree_4_3_u07_r8_network.client[25] 	hdistance[25] 	2.6524555218496
scalar tree_4_3_u07_r8_network.client[25] 	downloads[25] 	12197
scalar tree_4_3_u07_r8_network.client[25] 	avg_time[25] 	0.004146426385
scalar tree_4_3_u07_r8_network.client[26] 	hdistance[26] 	2.6272425249169
scalar tree_4_3_u07_r8_network.client[26] 	downloads[26] 	12040
scalar tree_4_3_u07_r8_network.client[26] 	avg_time[26] 	0.004107970436
scalar tree_4_3_u07_r8_network.client[27] 	hdistance[27] 	2.5649624184356
scalar tree_4_3_u07_r8_network.client[27] 	downloads[27] 	12107
scalar tree_4_3_u07_r8_network.client[27] 	avg_time[27] 	0.004018498661
scalar tree_4_3_u07_r8_network.client[28] 	hdistance[28] 	2.6089137406463
scalar tree_4_3_u07_r8_network.client[28] 	downloads[28] 	12161
scalar tree_4_3_u07_r8_network.client[28] 	avg_time[28] 	0.004097192899
scalar tree_4_3_u07_r8_network.client[29] 	hdistance[29] 	2.5534102306921
scalar tree_4_3_u07_r8_network.client[29] 	downloads[29] 	11964
scalar tree_4_3_u07_r8_network.client[29] 	avg_time[29] 	0.004001878721
scalar tree_4_3_u07_r8_network.client[30] 	hdistance[30] 	2.6037358238826
scalar tree_4_3_u07_r8_network.client[30] 	downloads[30] 	11992
scalar tree_4_3_u07_r8_network.client[30] 	avg_time[30] 	0.004096394601
scalar tree_4_3_u07_r8_network.client[31] 	hdistance[31] 	2.6184243022969
scalar tree_4_3_u07_r8_network.client[31] 	downloads[31] 	12147
scalar tree_4_3_u07_r8_network.client[31] 	avg_time[31] 	0.004136201549
scalar tree_4_3_u07_r8_network.client[32] 	hdistance[32] 	2.5420622471725
scalar tree_4_3_u07_r8_network.client[32] 	downloads[32] 	12113
scalar tree_4_3_u07_r8_network.client[32] 	avg_time[32] 	0.003995554417
scalar tree_4_3_u07_r8_network.client[33] 	hdistance[33] 	2.5867768595041
scalar tree_4_3_u07_r8_network.client[33] 	downloads[33] 	12221
scalar tree_4_3_u07_r8_network.client[33] 	avg_time[33] 	0.004066603607
scalar tree_4_3_u07_r8_network.client[34] 	hdistance[34] 	2.5348660939869
scalar tree_4_3_u07_r8_network.client[34] 	downloads[34] 	11874
scalar tree_4_3_u07_r8_network.client[34] 	avg_time[34] 	0.003981924798
scalar tree_4_3_u07_r8_network.client[35] 	hdistance[35] 	2.6276426840478
scalar tree_4_3_u07_r8_network.client[35] 	downloads[35] 	11967
scalar tree_4_3_u07_r8_network.client[35] 	avg_time[35] 	0.00413052751
scalar tree_4_3_u07_r8_network.client[36] 	hdistance[36] 	2.600467484765
scalar tree_4_3_u07_r8_network.client[36] 	downloads[36] 	11979
scalar tree_4_3_u07_r8_network.client[36] 	avg_time[36] 	0.004092640079
scalar tree_4_3_u07_r8_network.client[37] 	hdistance[37] 	2.6585066317341
scalar tree_4_3_u07_r8_network.client[37] 	downloads[37] 	12214
scalar tree_4_3_u07_r8_network.client[37] 	avg_time[37] 	0.004165217183
scalar tree_4_3_u07_r8_network.client[38] 	hdistance[38] 	2.5769072164949
scalar tree_4_3_u07_r8_network.client[38] 	downloads[38] 	12125
scalar tree_4_3_u07_r8_network.client[38] 	avg_time[38] 	0.004044862915
scalar tree_4_3_u07_r8_network.client[39] 	hdistance[39] 	2.6681715575621
scalar tree_4_3_u07_r8_network.client[39] 	downloads[39] 	11961
scalar tree_4_3_u07_r8_network.client[39] 	avg_time[39] 	0.004179580659
