version 2
run General-469-20160901-10:13:17-8710
attr a 0.9
attr cd ffc0.25
attr configname General
attr cr lru
attr datetime 20160901-10:13:17
attr experiment General
attr fsize 1
attr inifile hw5115/scenario_Y/omnetp.ini
attr iterationvars "$name=tree_4_3, $un=07, $rep=17, $cd=ffc0.25, $cr=lru, $fsize=1, $a=0.9, $sl=nrr, $ttl=1000, $variance=0.05"
attr iterationvars2 "$name=tree_4_3, $un=07, $rep=17, $cd=ffc0.25, $cr=lru, $fsize=1, $a=0.9, $sl=nrr, $ttl=1000, $variance=0.05, $repetition=0"
attr measurement "$name=tree_4_3, $un=07, $rep=17, $cd=ffc0.25, $cr=lru, $fsize=1, $a=0.9, $sl=nrr, $ttl=1000, $variance=0.05"
attr name tree_4_3
attr network networks.${name}_u${un}_r${rep}_network
attr processid 8710
attr rep 17
attr repetition 0
attr replication #0
attr resultdir results
attr runnumber 469
attr seedset 17
attr sl nrr
attr ttl 1000
attr un 07
attr variance 0.05

scalar . 	a 	0.9
scalar . 	fsize 	1
scalar . 	rep 	17
scalar . 	ttl 	1000
scalar . 	un 	07
scalar . 	variance 	0.05
scalar tree_4_3_u07_r17_network.content_distribution 	repo-0 	0
scalar tree_4_3_u07_r17_network.content_distribution 	client-0 	13
scalar tree_4_3_u07_r17_network.content_distribution 	client-1 	14
scalar tree_4_3_u07_r17_network.content_distribution 	client-2 	15
scalar tree_4_3_u07_r17_network.content_distribution 	client-3 	16
scalar tree_4_3_u07_r17_network.content_distribution 	client-4 	17
scalar tree_4_3_u07_r17_network.content_distribution 	client-5 	18
scalar tree_4_3_u07_r17_network.content_distribution 	client-6 	19
scalar tree_4_3_u07_r17_network.content_distribution 	client-7 	20
scalar tree_4_3_u07_r17_network.content_distribution 	client-8 	21
scalar tree_4_3_u07_r17_network.content_distribution 	client-9 	22
scalar tree_4_3_u07_r17_network.content_distribution 	client-10 	23
scalar tree_4_3_u07_r17_network.content_distribution 	client-11 	24
scalar tree_4_3_u07_r17_network.content_distribution 	client-12 	25
scalar tree_4_3_u07_r17_network.content_distribution 	client-13 	26
scalar tree_4_3_u07_r17_network.content_distribution 	client-14 	27
scalar tree_4_3_u07_r17_network.content_distribution 	client-15 	28
scalar tree_4_3_u07_r17_network.content_distribution 	client-16 	29
scalar tree_4_3_u07_r17_network.content_distribution 	client-17 	30
scalar tree_4_3_u07_r17_network.content_distribution 	client-18 	31
scalar tree_4_3_u07_r17_network.content_distribution 	client-19 	32
scalar tree_4_3_u07_r17_network.content_distribution 	client-20 	33
scalar tree_4_3_u07_r17_network.content_distribution 	client-21 	34
scalar tree_4_3_u07_r17_network.content_distribution 	client-22 	35
scalar tree_4_3_u07_r17_network.content_distribution 	client-23 	36
scalar tree_4_3_u07_r17_network.content_distribution 	client-24 	37
scalar tree_4_3_u07_r17_network.content_distribution 	client-25 	38
scalar tree_4_3_u07_r17_network.content_distribution 	client-26 	39
scalar tree_4_3_u07_r17_network.content_distribution 	repo-0_card 	100000
scalar tree_4_3_u07_r17_network.content_distribution 	repo-0_price 	0
scalar tree_4_3_u07_r17_network.statistics 	stabilization_time 	2599.8
scalar tree_4_3_u07_r17_network.statistics 	p_hit 	0.23663500773236
scalar tree_4_3_u07_r17_network.statistics 	interests 	24528.175
scalar tree_4_3_u07_r17_network.statistics 	data 	16438.975
scalar tree_4_3_u07_r17_network.statistics 	hdistance 	2.5959945444871
scalar tree_4_3_u07_r17_network.statistics 	avg_time 	0.004064442496
scalar tree_4_3_u07_r17_network.statistics 	downloads 	323572
scalar tree_4_3_u07_r17_network.statistics 	total_cost 	0
scalar tree_4_3_u07_r17_network.statistics 	total_replicas 	100000
scalar tree_4_3_u07_r17_network.statistics 	inner_hit 	0.43623675719778
scalar tree_4_3_u07_r17_network.node[0].core_layer 	interests[0] 	185557
scalar tree_4_3_u07_r17_network.node[0].core_layer 	repo_load[0] 	182418
scalar tree_4_3_u07_r17_network.node[0].core_layer 	data[0] 	0
scalar tree_4_3_u07_r17_network.node[0].core_layer 	repo_int[0] 	182418
scalar tree_4_3_u07_r17_network.node[0].content_store 	p_hit[0] 	0.016916634780687
scalar tree_4_3_u07_r17_network.node[0].content_store 	hits[0] 	3139
scalar tree_4_3_u07_r17_network.node[0].content_store 	misses[0] 	182418
scalar tree_4_3_u07_r17_network.node[0].content_store 	decision_yes[0] 	178
scalar tree_4_3_u07_r17_network.node[0].content_store 	decision_no[0] 	182240
scalar tree_4_3_u07_r17_network.node[0].content_store 	decision_ratio[0] 	0.00097578089881481
scalar tree_4_3_u07_r17_network.node[1].core_layer 	interests[1] 	101881
scalar tree_4_3_u07_r17_network.node[1].core_layer 	data[1] 	99394
scalar tree_4_3_u07_r17_network.node[1].content_store 	p_hit[1] 	0.024391201499789
scalar tree_4_3_u07_r17_network.node[1].content_store 	hits[1] 	2485
scalar tree_4_3_u07_r17_network.node[1].content_store 	misses[1] 	99396
scalar tree_4_3_u07_r17_network.node[1].content_store 	decision_yes[1] 	116
scalar tree_4_3_u07_r17_network.node[1].content_store 	decision_no[1] 	99278
scalar tree_4_3_u07_r17_network.node[1].content_store 	decision_ratio[1] 	0.0011670724591022
scalar tree_4_3_u07_r17_network.node[2].core_layer 	interests[2] 	66772
scalar tree_4_3_u07_r17_network.node[2].core_layer 	data[2] 	65060
scalar tree_4_3_u07_r17_network.node[2].content_store 	p_hit[2] 	0.025624513269035
scalar tree_4_3_u07_r17_network.node[2].content_store 	hits[2] 	1711
scalar tree_4_3_u07_r17_network.node[2].content_store 	misses[2] 	65061
scalar tree_4_3_u07_r17_network.node[2].content_store 	decision_yes[2] 	90
scalar tree_4_3_u07_r17_network.node[2].content_store 	decision_no[2] 	64970
scalar tree_4_3_u07_r17_network.node[2].content_store 	decision_ratio[2] 	0.0013833384568091
scalar tree_4_3_u07_r17_network.node[3].core_layer 	interests[3] 	37496
scalar tree_4_3_u07_r17_network.node[3].core_layer 	data[3] 	33662
scalar tree_4_3_u07_r17_network.node[3].content_store 	p_hit[3] 	0.10222423725197
scalar tree_4_3_u07_r17_network.node[3].content_store 	hits[3] 	3833
scalar tree_4_3_u07_r17_network.node[3].content_store 	misses[3] 	33663
scalar tree_4_3_u07_r17_network.node[3].content_store 	decision_yes[3] 	85
scalar tree_4_3_u07_r17_network.node[3].content_store 	decision_no[3] 	33577
scalar tree_4_3_u07_r17_network.node[3].content_store 	decision_ratio[3] 	0.002525102489454
scalar tree_4_3_u07_r17_network.node[4].core_layer 	interests[4] 	33480
scalar tree_4_3_u07_r17_network.node[4].core_layer 	data[4] 	31156
scalar tree_4_3_u07_r17_network.node[4].content_store 	p_hit[4] 	0.069444444444444
scalar tree_4_3_u07_r17_network.node[4].content_store 	hits[4] 	2325
scalar tree_4_3_u07_r17_network.node[4].content_store 	misses[4] 	31155
scalar tree_4_3_u07_r17_network.node[4].content_store 	decision_yes[4] 	68
scalar tree_4_3_u07_r17_network.node[4].content_store 	decision_no[4] 	31088
scalar tree_4_3_u07_r17_network.node[4].content_store 	decision_ratio[4] 	0.0021825651559892
scalar tree_4_3_u07_r17_network.node[5].core_layer 	interests[5] 	26695
scalar tree_4_3_u07_r17_network.node[5].core_layer 	data[5] 	23822
scalar tree_4_3_u07_r17_network.node[5].content_store 	p_hit[5] 	0.10758569020416
scalar tree_4_3_u07_r17_network.node[5].content_store 	hits[5] 	2872
scalar tree_4_3_u07_r17_network.node[5].content_store 	misses[5] 	23823
scalar tree_4_3_u07_r17_network.node[5].content_store 	decision_yes[5] 	62
scalar tree_4_3_u07_r17_network.node[5].content_store 	decision_no[5] 	23760
scalar tree_4_3_u07_r17_network.node[5].content_store 	decision_ratio[5] 	0.0026026362186214
scalar tree_4_3_u07_r17_network.node[6].core_layer 	interests[6] 	22835
scalar tree_4_3_u07_r17_network.node[6].core_layer 	data[6] 	19283
scalar tree_4_3_u07_r17_network.node[6].content_store 	p_hit[6] 	0.15555068973068
scalar tree_4_3_u07_r17_network.node[6].content_store 	hits[6] 	3552
scalar tree_4_3_u07_r17_network.node[6].content_store 	misses[6] 	19283
scalar tree_4_3_u07_r17_network.node[6].content_store 	decision_yes[6] 	84
scalar tree_4_3_u07_r17_network.node[6].content_store 	decision_no[6] 	19199
scalar tree_4_3_u07_r17_network.node[6].content_store 	decision_ratio[6] 	0.0043561686459576
scalar tree_4_3_u07_r17_network.node[7].core_layer 	interests[7] 	34245
scalar tree_4_3_u07_r17_network.node[7].core_layer 	data[7] 	32083
scalar tree_4_3_u07_r17_network.node[7].content_store 	p_hit[7] 	0.06313330413199
scalar tree_4_3_u07_r17_network.node[7].content_store 	hits[7] 	2162
scalar tree_4_3_u07_r17_network.node[7].content_store 	misses[7] 	32083
scalar tree_4_3_u07_r17_network.node[7].content_store 	decision_yes[7] 	48
scalar tree_4_3_u07_r17_network.node[7].content_store 	decision_no[7] 	32035
scalar tree_4_3_u07_r17_network.node[7].content_store 	decision_ratio[7] 	0.001496119440202
scalar tree_4_3_u07_r17_network.node[8].core_layer 	interests[8] 	26230
scalar tree_4_3_u07_r17_network.node[8].core_layer 	data[8] 	23428
scalar tree_4_3_u07_r17_network.node[8].content_store 	p_hit[8] 	0.10682424704537
scalar tree_4_3_u07_r17_network.node[8].content_store 	hits[8] 	2802
scalar tree_4_3_u07_r17_network.node[8].content_store 	misses[8] 	23428
scalar tree_4_3_u07_r17_network.node[8].content_store 	decision_yes[8] 	47
scalar tree_4_3_u07_r17_network.node[8].content_store 	decision_no[8] 	23381
scalar tree_4_3_u07_r17_network.node[8].content_store 	decision_ratio[8] 	0.0020061464913778
scalar tree_4_3_u07_r17_network.node[9].core_layer 	interests[9] 	21919
scalar tree_4_3_u07_r17_network.node[9].core_layer 	data[9] 	18671
scalar tree_4_3_u07_r17_network.node[9].content_store 	p_hit[9] 	0.14818194260687
scalar tree_4_3_u07_r17_network.node[9].content_store 	hits[9] 	3248
scalar tree_4_3_u07_r17_network.node[9].content_store 	misses[9] 	18671
scalar tree_4_3_u07_r17_network.node[9].content_store 	decision_yes[9] 	66
scalar tree_4_3_u07_r17_network.node[9].content_store 	decision_no[9] 	18605
scalar tree_4_3_u07_r17_network.node[9].content_store 	decision_ratio[9] 	0.0035348936853945
scalar tree_4_3_u07_r17_network.node[10].core_layer 	interests[10] 	44358
scalar tree_4_3_u07_r17_network.node[10].core_layer 	data[10] 	40763
scalar tree_4_3_u07_r17_network.node[10].content_store 	p_hit[10] 	0.081067676631047
scalar tree_4_3_u07_r17_network.node[10].content_store 	hits[10] 	3596
scalar tree_4_3_u07_r17_network.node[10].content_store 	misses[10] 	40762
scalar tree_4_3_u07_r17_network.node[10].content_store 	decision_yes[10] 	82
scalar tree_4_3_u07_r17_network.node[10].content_store 	decision_no[10] 	40681
scalar tree_4_3_u07_r17_network.node[10].content_store 	decision_ratio[10] 	0.0020116281922332
scalar tree_4_3_u07_r17_network.node[11].core_layer 	interests[11] 	28059
scalar tree_4_3_u07_r17_network.node[11].core_layer 	data[11] 	24963
scalar tree_4_3_u07_r17_network.node[11].content_store 	p_hit[11] 	0.11033892868598
scalar tree_4_3_u07_r17_network.node[11].content_store 	hits[11] 	3096
scalar tree_4_3_u07_r17_network.node[11].content_store 	misses[11] 	24963
scalar tree_4_3_u07_r17_network.node[11].content_store 	decision_yes[11] 	68
scalar tree_4_3_u07_r17_network.node[11].content_store 	decision_no[11] 	24895
scalar tree_4_3_u07_r17_network.node[11].content_store 	decision_ratio[11] 	0.0027240315667187
scalar tree_4_3_u07_r17_network.node[12].core_layer 	interests[12] 	11284
scalar tree_4_3_u07_r17_network.node[12].core_layer 	data[12] 	8726
scalar tree_4_3_u07_r17_network.node[12].content_store 	p_hit[12] 	0.22669266217653
scalar tree_4_3_u07_r17_network.node[12].content_store 	hits[12] 	2558
scalar tree_4_3_u07_r17_network.node[12].content_store 	misses[12] 	8726
scalar tree_4_3_u07_r17_network.node[12].content_store 	decision_yes[12] 	38
scalar tree_4_3_u07_r17_network.node[12].content_store 	decision_no[12] 	8688
scalar tree_4_3_u07_r17_network.node[12].content_store 	decision_ratio[12] 	0.0043548017419207
scalar tree_4_3_u07_r17_network.node[13].core_layer 	interests[13] 	12179
scalar tree_4_3_u07_r17_network.node[13].core_layer 	data[13] 	8666
scalar tree_4_3_u07_r17_network.node[13].content_store 	p_hit[13] 	0.28852943591428
scalar tree_4_3_u07_r17_network.node[13].content_store 	hits[13] 	3514
scalar tree_4_3_u07_r17_network.node[13].content_store 	misses[13] 	8665
scalar tree_4_3_u07_r17_network.node[13].content_store 	decision_yes[13] 	29
scalar tree_4_3_u07_r17_network.node[13].content_store 	decision_no[13] 	8637
scalar tree_4_3_u07_r17_network.node[13].content_store 	decision_ratio[13] 	0.0033464112624048
scalar tree_4_3_u07_r17_network.node[14].core_layer 	interests[14] 	12764
scalar tree_4_3_u07_r17_network.node[14].core_layer 	data[14] 	8799
scalar tree_4_3_u07_r17_network.node[14].content_store 	p_hit[14] 	0.3106392980257
scalar tree_4_3_u07_r17_network.node[14].content_store 	hits[14] 	3965
scalar tree_4_3_u07_r17_network.node[14].content_store 	misses[14] 	8799
scalar tree_4_3_u07_r17_network.node[14].content_store 	decision_yes[14] 	24
scalar tree_4_3_u07_r17_network.node[14].content_store 	decision_no[14] 	8775
scalar tree_4_3_u07_r17_network.node[14].content_store 	decision_ratio[14] 	0.00272758267985
scalar tree_4_3_u07_r17_network.node[15].core_layer 	interests[15] 	12720
scalar tree_4_3_u07_r17_network.node[15].core_layer 	data[15] 	8672
scalar tree_4_3_u07_r17_network.node[15].content_store 	p_hit[15] 	0.31823899371069
scalar tree_4_3_u07_r17_network.node[15].content_store 	hits[15] 	4048
scalar tree_4_3_u07_r17_network.node[15].content_store 	misses[15] 	8672
scalar tree_4_3_u07_r17_network.node[15].content_store 	decision_yes[15] 	38
scalar tree_4_3_u07_r17_network.node[15].content_store 	decision_no[15] 	8634
scalar tree_4_3_u07_r17_network.node[15].content_store 	decision_ratio[15] 	0.0043819188191882
scalar tree_4_3_u07_r17_network.node[16].core_layer 	interests[16] 	12754
scalar tree_4_3_u07_r17_network.node[16].core_layer 	data[16] 	8766
scalar tree_4_3_u07_r17_network.node[16].content_store 	p_hit[16] 	0.31268621608907
scalar tree_4_3_u07_r17_network.node[16].content_store 	hits[16] 	3988
scalar tree_4_3_u07_r17_network.node[16].content_store 	misses[16] 	8766
scalar tree_4_3_u07_r17_network.node[16].content_store 	decision_yes[16] 	26
scalar tree_4_3_u07_r17_network.node[16].content_store 	decision_no[16] 	8740
scalar tree_4_3_u07_r17_network.node[16].content_store 	decision_ratio[16] 	0.0029660050193931
scalar tree_4_3_u07_r17_network.node[17].core_layer 	interests[17] 	12297
scalar tree_4_3_u07_r17_network.node[17].core_layer 	data[17] 	8667
scalar tree_4_3_u07_r17_network.node[17].content_store 	p_hit[17] 	0.29511262909653
scalar tree_4_3_u07_r17_network.node[17].content_store 	hits[17] 	3629
scalar tree_4_3_u07_r17_network.node[17].content_store 	misses[17] 	8668
scalar tree_4_3_u07_r17_network.node[17].content_store 	decision_yes[17] 	20
scalar tree_4_3_u07_r17_network.node[17].content_store 	decision_no[17] 	8647
scalar tree_4_3_u07_r17_network.node[17].content_store 	decision_ratio[17] 	0.0023076035537095
scalar tree_4_3_u07_r17_network.node[18].core_layer 	interests[18] 	12941
scalar tree_4_3_u07_r17_network.node[18].core_layer 	data[18] 	8895
scalar tree_4_3_u07_r17_network.node[18].content_store 	p_hit[18] 	0.31257244416969
scalar tree_4_3_u07_r17_network.node[18].content_store 	hits[18] 	4045
scalar tree_4_3_u07_r17_network.node[18].content_store 	misses[18] 	8896
scalar tree_4_3_u07_r17_network.node[18].content_store 	decision_yes[18] 	28
scalar tree_4_3_u07_r17_network.node[18].content_store 	decision_no[18] 	8867
scalar tree_4_3_u07_r17_network.node[18].content_store 	decision_ratio[18] 	0.0031478358628443
scalar tree_4_3_u07_r17_network.node[19].core_layer 	interests[19] 	12534
scalar tree_4_3_u07_r17_network.node[19].core_layer 	data[19] 	8731
scalar tree_4_3_u07_r17_network.node[19].content_store 	p_hit[19] 	0.30341471198341
scalar tree_4_3_u07_r17_network.node[19].content_store 	hits[19] 	3803
scalar tree_4_3_u07_r17_network.node[19].content_store 	misses[19] 	8731
scalar tree_4_3_u07_r17_network.node[19].content_store 	decision_yes[19] 	35
scalar tree_4_3_u07_r17_network.node[19].content_store 	decision_no[19] 	8696
scalar tree_4_3_u07_r17_network.node[19].content_store 	decision_ratio[19] 	0.004008704615737
scalar tree_4_3_u07_r17_network.node[20].core_layer 	interests[20] 	12825
scalar tree_4_3_u07_r17_network.node[20].core_layer 	data[20] 	8809
scalar tree_4_3_u07_r17_network.node[20].content_store 	p_hit[20] 	0.31313840155945
scalar tree_4_3_u07_r17_network.node[20].content_store 	hits[20] 	4016
scalar tree_4_3_u07_r17_network.node[20].content_store 	misses[20] 	8809
scalar tree_4_3_u07_r17_network.node[20].content_store 	decision_yes[20] 	35
scalar tree_4_3_u07_r17_network.node[20].content_store 	decision_no[20] 	8774
scalar tree_4_3_u07_r17_network.node[20].content_store 	decision_ratio[20] 	0.0039732092178454
scalar tree_4_3_u07_r17_network.node[21].core_layer 	interests[21] 	12580
scalar tree_4_3_u07_r17_network.node[21].core_layer 	data[21] 	8896
scalar tree_4_3_u07_r17_network.node[21].content_store 	p_hit[21] 	0.2929252782194
scalar tree_4_3_u07_r17_network.node[21].content_store 	hits[21] 	3685
scalar tree_4_3_u07_r17_network.node[21].content_store 	misses[21] 	8895
scalar tree_4_3_u07_r17_network.node[21].content_store 	decision_yes[21] 	27
scalar tree_4_3_u07_r17_network.node[21].content_store 	decision_no[21] 	8869
scalar tree_4_3_u07_r17_network.node[21].content_store 	decision_ratio[21] 	0.003035071942446
scalar tree_4_3_u07_r17_network.node[22].core_layer 	interests[22] 	12285
scalar tree_4_3_u07_r17_network.node[22].core_layer 	data[22] 	8703
scalar tree_4_3_u07_r17_network.node[22].content_store 	p_hit[22] 	0.29149369149369
scalar tree_4_3_u07_r17_network.node[22].content_store 	hits[22] 	3581
scalar tree_4_3_u07_r17_network.node[22].content_store 	misses[22] 	8704
scalar tree_4_3_u07_r17_network.node[22].content_store 	decision_yes[22] 	23
scalar tree_4_3_u07_r17_network.node[22].content_store 	decision_no[22] 	8680
scalar tree_4_3_u07_r17_network.node[22].content_store 	decision_ratio[22] 	0.0026427668620016
scalar tree_4_3_u07_r17_network.node[23].core_layer 	interests[23] 	12748
scalar tree_4_3_u07_r17_network.node[23].core_layer 	data[23] 	8712
scalar tree_4_3_u07_r17_network.node[23].content_store 	p_hit[23] 	0.31659868214622
scalar tree_4_3_u07_r17_network.node[23].content_store 	hits[23] 	4036
scalar tree_4_3_u07_r17_network.node[23].content_store 	misses[23] 	8712
scalar tree_4_3_u07_r17_network.node[23].content_store 	decision_yes[23] 	28
scalar tree_4_3_u07_r17_network.node[23].content_store 	decision_no[23] 	8684
scalar tree_4_3_u07_r17_network.node[23].content_store 	decision_ratio[23] 	0.0032139577594123
scalar tree_4_3_u07_r17_network.node[24].core_layer 	interests[24] 	12422
scalar tree_4_3_u07_r17_network.node[24].core_layer 	data[24] 	8728
scalar tree_4_3_u07_r17_network.node[24].content_store 	p_hit[24] 	0.29737562389309
scalar tree_4_3_u07_r17_network.node[24].content_store 	hits[24] 	3694
scalar tree_4_3_u07_r17_network.node[24].content_store 	misses[24] 	8728
scalar tree_4_3_u07_r17_network.node[24].content_store 	decision_yes[24] 	33
scalar tree_4_3_u07_r17_network.node[24].content_store 	decision_no[24] 	8695
scalar tree_4_3_u07_r17_network.node[24].content_store 	decision_ratio[24] 	0.0037809349220898
scalar tree_4_3_u07_r17_network.node[25].core_layer 	interests[25] 	12817
scalar tree_4_3_u07_r17_network.node[25].core_layer 	data[25] 	8853
scalar tree_4_3_u07_r17_network.node[25].content_store 	p_hit[25] 	0.30927674182726
scalar tree_4_3_u07_r17_network.node[25].content_store 	hits[25] 	3964
scalar tree_4_3_u07_r17_network.node[25].content_store 	misses[25] 	8853
scalar tree_4_3_u07_r17_network.node[25].content_store 	decision_yes[25] 	24
scalar tree_4_3_u07_r17_network.node[25].content_store 	decision_no[25] 	8829
scalar tree_4_3_u07_r17_network.node[25].content_store 	decision_ratio[25] 	0.002710945442223
scalar tree_4_3_u07_r17_network.node[26].core_layer 	interests[26] 	12414
scalar tree_4_3_u07_r17_network.node[26].core_layer 	data[26] 	8691
scalar tree_4_3_u07_r17_network.node[26].content_store 	p_hit[26] 	0.29990333494442
scalar tree_4_3_u07_r17_network.node[26].content_store 	hits[26] 	3723
scalar tree_4_3_u07_r17_network.node[26].content_store 	misses[26] 	8691
scalar tree_4_3_u07_r17_network.node[26].content_store 	decision_yes[26] 	30
scalar tree_4_3_u07_r17_network.node[26].content_store 	decision_no[26] 	8661
scalar tree_4_3_u07_r17_network.node[26].content_store 	decision_ratio[26] 	0.0034518467380048
scalar tree_4_3_u07_r17_network.node[27].core_layer 	interests[27] 	12532
scalar tree_4_3_u07_r17_network.node[27].core_layer 	data[27] 	8660
scalar tree_4_3_u07_r17_network.node[27].content_store 	p_hit[27] 	0.3089690392595
scalar tree_4_3_u07_r17_network.node[27].content_store 	hits[27] 	3872
scalar tree_4_3_u07_r17_network.node[27].content_store 	misses[27] 	8660
scalar tree_4_3_u07_r17_network.node[27].content_store 	decision_yes[27] 	22
scalar tree_4_3_u07_r17_network.node[27].content_store 	decision_no[27] 	8638
scalar tree_4_3_u07_r17_network.node[27].content_store 	decision_ratio[27] 	0.002540415704388
scalar tree_4_3_u07_r17_network.node[28].core_layer 	interests[28] 	12517
scalar tree_4_3_u07_r17_network.node[28].core_layer 	data[28] 	8842
scalar tree_4_3_u07_r17_network.node[28].content_store 	p_hit[28] 	0.29360070304386
scalar tree_4_3_u07_r17_network.node[28].content_store 	hits[28] 	3675
scalar tree_4_3_u07_r17_network.node[28].content_store 	misses[28] 	8842
scalar tree_4_3_u07_r17_network.node[28].content_store 	decision_yes[28] 	15
scalar tree_4_3_u07_r17_network.node[28].content_store 	decision_no[28] 	8827
scalar tree_4_3_u07_r17_network.node[28].content_store 	decision_ratio[28] 	0.0016964487672472
scalar tree_4_3_u07_r17_network.node[29].core_layer 	interests[29] 	12987
scalar tree_4_3_u07_r17_network.node[29].core_layer 	data[29] 	8867
scalar tree_4_3_u07_r17_network.node[29].content_store 	p_hit[29] 	0.31724031724032
scalar tree_4_3_u07_r17_network.node[29].content_store 	hits[29] 	4120
scalar tree_4_3_u07_r17_network.node[29].content_store 	misses[29] 	8867
scalar tree_4_3_u07_r17_network.node[29].content_store 	decision_yes[29] 	32
scalar tree_4_3_u07_r17_network.node[29].content_store 	decision_no[29] 	8835
scalar tree_4_3_u07_r17_network.node[29].content_store 	decision_ratio[29] 	0.0036088868839517
scalar tree_4_3_u07_r17_network.node[30].core_layer 	interests[30] 	12396
scalar tree_4_3_u07_r17_network.node[30].core_layer 	data[30] 	8690
scalar tree_4_3_u07_r17_network.node[30].content_store 	p_hit[30] 	0.29896740884156
scalar tree_4_3_u07_r17_network.node[30].content_store 	hits[30] 	3706
scalar tree_4_3_u07_r17_network.node[30].content_store 	misses[30] 	8690
scalar tree_4_3_u07_r17_network.node[30].content_store 	decision_yes[30] 	17
scalar tree_4_3_u07_r17_network.node[30].content_store 	decision_no[30] 	8673
scalar tree_4_3_u07_r17_network.node[30].content_store 	decision_ratio[30] 	0.0019562715765247
scalar tree_4_3_u07_r17_network.node[31].core_layer 	interests[31] 	12504
scalar tree_4_3_u07_r17_network.node[31].core_layer 	data[31] 	8689
scalar tree_4_3_u07_r17_network.node[31].content_store 	p_hit[31] 	0.30502239283429
scalar tree_4_3_u07_r17_network.node[31].content_store 	hits[31] 	3814
scalar tree_4_3_u07_r17_network.node[31].content_store 	misses[31] 	8690
scalar tree_4_3_u07_r17_network.node[31].content_store 	decision_yes[31] 	24
scalar tree_4_3_u07_r17_network.node[31].content_store 	decision_no[31] 	8665
scalar tree_4_3_u07_r17_network.node[31].content_store 	decision_ratio[31] 	0.0027621130164576
scalar tree_4_3_u07_r17_network.node[32].core_layer 	interests[32] 	13011
scalar tree_4_3_u07_r17_network.node[32].core_layer 	data[32] 	8789
scalar tree_4_3_u07_r17_network.node[32].content_store 	p_hit[32] 	0.324494658366
scalar tree_4_3_u07_r17_network.node[32].content_store 	hits[32] 	4222
scalar tree_4_3_u07_r17_network.node[32].content_store 	misses[32] 	8789
scalar tree_4_3_u07_r17_network.node[32].content_store 	decision_yes[32] 	38
scalar tree_4_3_u07_r17_network.node[32].content_store 	decision_no[32] 	8751
scalar tree_4_3_u07_r17_network.node[32].content_store 	decision_ratio[32] 	0.0043235863010581
scalar tree_4_3_u07_r17_network.node[33].core_layer 	interests[33] 	12365
scalar tree_4_3_u07_r17_network.node[33].core_layer 	data[33] 	8725
scalar tree_4_3_u07_r17_network.node[33].content_store 	p_hit[33] 	0.29446016983421
scalar tree_4_3_u07_r17_network.node[33].content_store 	hits[33] 	3641
scalar tree_4_3_u07_r17_network.node[33].content_store 	misses[33] 	8724
scalar tree_4_3_u07_r17_network.node[33].content_store 	decision_yes[33] 	20
scalar tree_4_3_u07_r17_network.node[33].content_store 	decision_no[33] 	8705
scalar tree_4_3_u07_r17_network.node[33].content_store 	decision_ratio[33] 	0.0022922636103152
scalar tree_4_3_u07_r17_network.node[34].core_layer 	interests[34] 	12884
scalar tree_4_3_u07_r17_network.node[34].core_layer 	data[34] 	8646
scalar tree_4_3_u07_r17_network.node[34].content_store 	p_hit[34] 	0.32893511331885
scalar tree_4_3_u07_r17_network.node[34].content_store 	hits[34] 	4238
scalar tree_4_3_u07_r17_network.node[34].content_store 	misses[34] 	8646
scalar tree_4_3_u07_r17_network.node[34].content_store 	decision_yes[34] 	26
scalar tree_4_3_u07_r17_network.node[34].content_store 	decision_no[34] 	8620
scalar tree_4_3_u07_r17_network.node[34].content_store 	decision_ratio[34] 	0.0030071709461022
scalar tree_4_3_u07_r17_network.node[35].core_layer 	interests[35] 	12513
scalar tree_4_3_u07_r17_network.node[35].core_layer 	data[35] 	8916
scalar tree_4_3_u07_r17_network.node[35].content_store 	p_hit[35] 	0.28746104051786
scalar tree_4_3_u07_r17_network.node[35].content_store 	hits[35] 	3597
scalar tree_4_3_u07_r17_network.node[35].content_store 	misses[35] 	8916
scalar tree_4_3_u07_r17_network.node[35].content_store 	decision_yes[35] 	33
scalar tree_4_3_u07_r17_network.node[35].content_store 	decision_no[35] 	8883
scalar tree_4_3_u07_r17_network.node[35].content_store 	decision_ratio[35] 	0.0037012113055182
scalar tree_4_3_u07_r17_network.node[36].core_layer 	interests[36] 	12507
scalar tree_4_3_u07_r17_network.node[36].core_layer 	data[36] 	8635
scalar tree_4_3_u07_r17_network.node[36].content_store 	p_hit[36] 	0.30958663148637
scalar tree_4_3_u07_r17_network.node[36].content_store 	hits[36] 	3872
scalar tree_4_3_u07_r17_network.node[36].content_store 	misses[36] 	8635
scalar tree_4_3_u07_r17_network.node[36].content_store 	decision_yes[36] 	25
scalar tree_4_3_u07_r17_network.node[36].content_store 	decision_no[36] 	8610
scalar tree_4_3_u07_r17_network.node[36].content_store 	decision_ratio[36] 	0.0028951939779965
scalar tree_4_3_u07_r17_network.node[37].core_layer 	interests[37] 	12892
scalar tree_4_3_u07_r17_network.node[37].core_layer 	data[37] 	8831
scalar tree_4_3_u07_r17_network.node[37].content_store 	p_hit[37] 	0.31507911883339
scalar tree_4_3_u07_r17_network.node[37].content_store 	hits[37] 	4062
scalar tree_4_3_u07_r17_network.node[37].content_store 	misses[37] 	8830
scalar tree_4_3_u07_r17_network.node[37].content_store 	decision_yes[37] 	32
scalar tree_4_3_u07_r17_network.node[37].content_store 	decision_no[37] 	8799
scalar tree_4_3_u07_r17_network.node[37].content_store 	decision_ratio[37] 	0.0036235986864455
scalar tree_4_3_u07_r17_network.node[38].core_layer 	interests[38] 	12851
scalar tree_4_3_u07_r17_network.node[38].core_layer 	data[38] 	8986
scalar tree_4_3_u07_r17_network.node[38].content_store 	p_hit[38] 	0.30075480507354
scalar tree_4_3_u07_r17_network.node[38].content_store 	hits[38] 	3865
scalar tree_4_3_u07_r17_network.node[38].content_store 	misses[38] 	8986
scalar tree_4_3_u07_r17_network.node[38].content_store 	decision_yes[38] 	20
scalar tree_4_3_u07_r17_network.node[38].content_store 	decision_no[38] 	8966
scalar tree_4_3_u07_r17_network.node[38].content_store 	decision_ratio[38] 	0.0022256843979524
scalar tree_4_3_u07_r17_network.node[39].core_layer 	interests[39] 	12077
scalar tree_4_3_u07_r17_network.node[39].core_layer 	data[39] 	8684
scalar tree_4_3_u07_r17_network.node[39].content_store 	p_hit[39] 	0.28094725511302
scalar tree_4_3_u07_r17_network.node[39].content_store 	hits[39] 	3393
scalar tree_4_3_u07_r17_network.node[39].content_store 	misses[39] 	8684
scalar tree_4_3_u07_r17_network.node[39].content_store 	decision_yes[39] 	25
scalar tree_4_3_u07_r17_network.node[39].content_store 	decision_no[39] 	8659
scalar tree_4_3_u07_r17_network.node[39].content_store 	decision_ratio[39] 	0.0028788576692768
scalar tree_4_3_u07_r17_network.client[13] 	hdistance[13] 	2.661182822914
scalar tree_4_3_u07_r17_network.client[13] 	downloads[13] 	11853
scalar tree_4_3_u07_r17_network.client[13] 	avg_time[13] 	0.004170593086
scalar tree_4_3_u07_r17_network.client[14] 	hdistance[14] 	2.5710865257596
scalar tree_4_3_u07_r17_network.client[14] 	downloads[14] 	12112
scalar tree_4_3_u07_r17_network.client[14] 	avg_time[14] 	0.003998345733
scalar tree_4_3_u07_r17_network.client[15] 	hdistance[15] 	2.5563261163735
scalar tree_4_3_u07_r17_network.client[15] 	downloads[15] 	11824
scalar tree_4_3_u07_r17_network.client[15] 	avg_time[15] 	0.004018941555
scalar tree_4_3_u07_r17_network.client[16] 	hdistance[16] 	2.5813411078717
scalar tree_4_3_u07_r17_network.client[16] 	downloads[16] 	12005
scalar tree_4_3_u07_r17_network.client[16] 	avg_time[16] 	0.00401782292
scalar tree_4_3_u07_r17_network.client[17] 	hdistance[17] 	2.6210103040965
scalar tree_4_3_u07_r17_network.client[17] 	downloads[17] 	11937
scalar tree_4_3_u07_r17_network.client[17] 	avg_time[17] 	0.004098201119
scalar tree_4_3_u07_r17_network.client[18] 	hdistance[18] 	2.5833124739258
scalar tree_4_3_u07_r17_network.client[18] 	downloads[18] 	11985
scalar tree_4_3_u07_r17_network.client[18] 	avg_time[18] 	0.004052562714
scalar tree_4_3_u07_r17_network.client[19] 	hdistance[19] 	2.5919166666666
scalar tree_4_3_u07_r17_network.client[19] 	downloads[19] 	12000
scalar tree_4_3_u07_r17_network.client[19] 	avg_time[19] 	0.004084577827
scalar tree_4_3_u07_r17_network.client[20] 	hdistance[20] 	2.5769392033543
scalar tree_4_3_u07_r17_network.client[20] 	downloads[20] 	11925
scalar tree_4_3_u07_r17_network.client[20] 	avg_time[20] 	0.004041087157
scalar tree_4_3_u07_r17_network.client[21] 	hdistance[21] 	2.6166749297637
scalar tree_4_3_u07_r17_network.client[21] 	downloads[21] 	12102
scalar tree_4_3_u07_r17_network.client[21] 	avg_time[21] 	0.004121299236
scalar tree_4_3_u07_r17_network.client[22] 	hdistance[22] 	2.6553809963875
scalar tree_4_3_u07_r17_network.client[22] 	downloads[22] 	11903
scalar tree_4_3_u07_r17_network.client[22] 	avg_time[22] 	0.004133418909
scalar tree_4_3_u07_r17_network.client[23] 	hdistance[23] 	2.5544972668544
scalar tree_4_3_u07_r17_network.client[23] 	downloads[23] 	12074
scalar tree_4_3_u07_r17_network.client[23] 	avg_time[23] 	0.003950965997
scalar tree_4_3_u07_r17_network.client[24] 	hdistance[24] 	2.6163501238646
scalar tree_4_3_u07_r17_network.client[24] 	downloads[24] 	12110
scalar tree_4_3_u07_r17_network.client[24] 	avg_time[24] 	0.00407348993
scalar tree_4_3_u07_r17_network.client[25] 	hdistance[25] 	2.6006628003314
scalar tree_4_3_u07_r17_network.client[25] 	downloads[25] 	12070
scalar tree_4_3_u07_r17_network.client[25] 	avg_time[25] 	0.004024852013
scalar tree_4_3_u07_r17_network.client[26] 	hdistance[26] 	2.617102532171
scalar tree_4_3_u07_r17_network.client[26] 	downloads[26] 	12045
scalar tree_4_3_u07_r17_network.client[26] 	avg_time[26] 	0.00407023359
scalar tree_4_3_u07_r17_network.client[27] 	hdistance[27] 	2.5611950432864
scalar tree_4_3_u07_r17_network.client[27] 	downloads[27] 	11782
scalar tree_4_3_u07_r17_network.client[27] 	avg_time[27] 	0.00401629308
scalar tree_4_3_u07_r17_network.client[28] 	hdistance[28] 	2.6377665311541
scalar tree_4_3_u07_r17_network.client[28] 	downloads[28] 	12053
scalar tree_4_3_u07_r17_network.client[28] 	avg_time[28] 	0.004158297847
scalar tree_4_3_u07_r17_network.client[29] 	hdistance[29] 	2.5682043650794
scalar tree_4_3_u07_r17_network.client[29] 	downloads[29] 	12096
scalar tree_4_3_u07_r17_network.client[29] 	avg_time[29] 	0.004017688766
scalar tree_4_3_u07_r17_network.client[30] 	hdistance[30] 	2.6127032009385
scalar tree_4_3_u07_r17_network.client[30] 	downloads[30] 	11934
scalar tree_4_3_u07_r17_network.client[30] 	avg_time[30] 	0.004114459854
scalar tree_4_3_u07_r17_network.client[31] 	hdistance[31] 	2.5848600932711
scalar tree_4_3_u07_r17_network.client[31] 	downloads[31] 	12008
scalar tree_4_3_u07_r17_network.client[31] 	avg_time[31] 	0.004074076174
scalar tree_4_3_u07_r17_network.client[32] 	hdistance[32] 	2.5285702403726
scalar tree_4_3_u07_r17_network.client[32] 	downloads[32] 	12023
scalar tree_4_3_u07_r17_network.client[32] 	avg_time[32] 	0.003972882279
scalar tree_4_3_u07_r17_network.client[33] 	hdistance[33] 	2.6350506756757
scalar tree_4_3_u07_r17_network.client[33] 	downloads[33] 	11840
scalar tree_4_3_u07_r17_network.client[33] 	avg_time[33] 	0.004150672729
scalar tree_4_3_u07_r17_network.client[34] 	hdistance[34] 	2.5247864679283
scalar tree_4_3_u07_r17_network.client[34] 	downloads[34] 	11942
scalar tree_4_3_u07_r17_network.client[34] 	avg_time[34] 	0.003954276036
scalar tree_4_3_u07_r17_network.client[35] 	hdistance[35] 	2.664098740888
scalar tree_4_3_u07_r17_network.client[35] 	downloads[35] 	12072
scalar tree_4_3_u07_r17_network.client[35] 	avg_time[35] 	0.004189029463
scalar tree_4_3_u07_r17_network.client[36] 	hdistance[36] 	2.5561340162902
scalar tree_4_3_u07_r17_network.client[36] 	downloads[36] 	11909
scalar tree_4_3_u07_r17_network.client[36] 	avg_time[36] 	0.003988073296
scalar tree_4_3_u07_r17_network.client[37] 	hdistance[37] 	2.5709734216484
scalar tree_4_3_u07_r17_network.client[37] 	downloads[37] 	11927
scalar tree_4_3_u07_r17_network.client[37] 	avg_time[37] 	0.004040744895
scalar tree_4_3_u07_r17_network.client[38] 	hdistance[38] 	2.5982554312047
scalar tree_4_3_u07_r17_network.client[38] 	downloads[38] 	12152
scalar tree_4_3_u07_r17_network.client[38] 	avg_time[38] 	0.00405785062
scalar tree_4_3_u07_r17_network.client[39] 	hdistance[39] 	2.6454706030785
scalar tree_4_3_u07_r17_network.client[39] 	downloads[39] 	11889
scalar tree_4_3_u07_r17_network.client[39] 	avg_time[39] 	0.004149210592
