version 2
run General-59-20160826-11:36:28-19693
attr D tfc
attr F nrr
attr R lru
attr a 0.9
attr configname General
attr datetime 20160826-11:36:28
attr experiment General
attr inifile hw5115/scenario_C/omnetp.ini
attr iterationvars "$net=tiger, $rep=7, $a=0.9, $F=nrr, $D=tfc, $R=lru, $window=60, $variance=0.05, $mytime=600"
attr iterationvars2 "$net=tiger, $rep=7, $a=0.9, $F=nrr, $D=tfc, $R=lru, $window=60, $variance=0.05, $mytime=600, $repetition=0"
attr measurement "$net=tiger, $rep=7, $a=0.9, $F=nrr, $D=tfc, $R=lru, $window=60, $variance=0.05, $mytime=600"
attr mytime 600
attr net tiger
attr network networks.${net=tiger}_network
attr processid 19693
attr rep 7
attr repetition 0
attr replication #0
attr resultdir results
attr runnumber 59
attr seedset 7
attr variance 0.05
attr window 60

scalar . 	a 	0.9
scalar . 	mytime 	600
scalar . 	rep 	7
scalar . 	variance 	0.05
scalar . 	window 	60
scalar tiger_network.content_distribution 	repo-0 	21
scalar tiger_network.content_distribution 	repo-1 	4
scalar tiger_network.content_distribution 	repo-2 	12
scalar tiger_network.content_distribution 	repo-3 	0
scalar tiger_network.content_distribution 	repo-4 	6
scalar tiger_network.content_distribution 	repo-5 	11
scalar tiger_network.content_distribution 	repo-6 	20
scalar tiger_network.content_distribution 	repo-7 	8
scalar tiger_network.content_distribution 	repo-8 	18
scalar tiger_network.content_distribution 	repo-9 	14
scalar tiger_network.content_distribution 	repo-10 	13
scalar tiger_network.content_distribution 	repo-11 	7
scalar tiger_network.content_distribution 	repo-12 	2
scalar tiger_network.content_distribution 	repo-13 	9
scalar tiger_network.content_distribution 	repo-14 	5
scalar tiger_network.content_distribution 	repo-15 	15
scalar tiger_network.content_distribution 	client-0 	21
scalar tiger_network.content_distribution 	client-1 	9
scalar tiger_network.content_distribution 	client-2 	6
scalar tiger_network.content_distribution 	client-3 	2
scalar tiger_network.content_distribution 	client-4 	14
scalar tiger_network.content_distribution 	client-5 	8
scalar tiger_network.content_distribution 	client-6 	17
scalar tiger_network.content_distribution 	client-7 	0
scalar tiger_network.content_distribution 	client-8 	19
scalar tiger_network.content_distribution 	client-9 	10
scalar tiger_network.content_distribution 	client-10 	13
scalar tiger_network.content_distribution 	client-11 	1
scalar tiger_network.content_distribution 	client-12 	3
scalar tiger_network.content_distribution 	client-13 	18
scalar tiger_network.content_distribution 	client-14 	15
scalar tiger_network.content_distribution 	client-15 	16
scalar tiger_network.content_distribution 	client-16 	12
scalar tiger_network.content_distribution 	client-17 	11
scalar tiger_network.content_distribution 	client-18 	7
scalar tiger_network.content_distribution 	client-19 	4
scalar tiger_network.content_distribution 	client-20 	5
scalar tiger_network.content_distribution 	client-21 	20
scalar tiger_network.content_distribution 	repo-0_card 	6345
scalar tiger_network.content_distribution 	repo-0_price 	0
scalar tiger_network.content_distribution 	repo-1_card 	6180
scalar tiger_network.content_distribution 	repo-1_price 	0
scalar tiger_network.content_distribution 	repo-2_card 	6226
scalar tiger_network.content_distribution 	repo-2_price 	0
scalar tiger_network.content_distribution 	repo-3_card 	6310
scalar tiger_network.content_distribution 	repo-3_price 	0
scalar tiger_network.content_distribution 	repo-4_card 	6131
scalar tiger_network.content_distribution 	repo-4_price 	0
scalar tiger_network.content_distribution 	repo-5_card 	6321
scalar tiger_network.content_distribution 	repo-5_price 	0
scalar tiger_network.content_distribution 	repo-6_card 	6231
scalar tiger_network.content_distribution 	repo-6_price 	0
scalar tiger_network.content_distribution 	repo-7_card 	6324
scalar tiger_network.content_distribution 	repo-7_price 	0
scalar tiger_network.content_distribution 	repo-8_card 	6290
scalar tiger_network.content_distribution 	repo-8_price 	0
scalar tiger_network.content_distribution 	repo-9_card 	6223
scalar tiger_network.content_distribution 	repo-9_price 	0
scalar tiger_network.content_distribution 	repo-10_card 	6218
scalar tiger_network.content_distribution 	repo-10_price 	0
scalar tiger_network.content_distribution 	repo-11_card 	6096
scalar tiger_network.content_distribution 	repo-11_price 	0
scalar tiger_network.content_distribution 	repo-12_card 	6253
scalar tiger_network.content_distribution 	repo-12_price 	0
scalar tiger_network.content_distribution 	repo-13_card 	6243
scalar tiger_network.content_distribution 	repo-13_price 	0
scalar tiger_network.content_distribution 	repo-14_card 	6304
scalar tiger_network.content_distribution 	repo-14_price 	0
scalar tiger_network.content_distribution 	repo-15_card 	6305
scalar tiger_network.content_distribution 	repo-15_price 	0
scalar tiger_network.statistics 	stabilization_time 	761.8
scalar tiger_network.statistics 	p_hit 	0.16582018781282
scalar tiger_network.statistics 	interests 	33673.590909091
scalar tiger_network.statistics 	data 	21673.5
scalar tiger_network.statistics 	hdistance 	2.3719355258404
scalar tiger_network.statistics 	avg_time 	0.00068174462
scalar tiger_network.statistics 	downloads 	264002
scalar tiger_network.statistics 	total_cost 	0
scalar tiger_network.statistics 	total_replicas 	100000
scalar tiger_network.statistics 	inner_hit 	0.43401186354649
scalar tiger_network.node[0].core_layer 	interests[0] 	43962
scalar tiger_network.node[0].core_layer 	repo_load[0] 	10093
scalar tiger_network.node[0].core_layer 	data[0] 	28566
scalar tiger_network.node[0].core_layer 	repo_int[0] 	149422
scalar tiger_network.node[0].content_store 	p_hit[0] 	0.12062690505437
scalar tiger_network.node[0].content_store 	hits[0] 	5303
scalar tiger_network.node[0].content_store 	misses[0] 	38659
scalar tiger_network.node[0].content_store 	decision_yes[0] 	393
scalar tiger_network.node[0].content_store 	decision_no[0] 	38266
scalar tiger_network.node[0].content_store 	decision_ratio[0] 	0.010165808737939
scalar tiger_network.node[1].core_layer 	interests[1] 	40795
scalar tiger_network.node[1].core_layer 	data[1] 	35259
scalar tiger_network.node[1].content_store 	p_hit[1] 	0.13570290476774
scalar tiger_network.node[1].content_store 	hits[1] 	5536
scalar tiger_network.node[1].content_store 	misses[1] 	35259
scalar tiger_network.node[1].content_store 	decision_yes[1] 	155
scalar tiger_network.node[1].content_store 	decision_no[1] 	35104
scalar tiger_network.node[1].content_store 	decision_ratio[1] 	0.0043960407271902
scalar tiger_network.node[2].core_layer 	interests[2] 	54534
scalar tiger_network.node[2].core_layer 	repo_load[2] 	10014
scalar tiger_network.node[2].core_layer 	data[2] 	38769
scalar tiger_network.node[2].content_store 	p_hit[2] 	0.10545714600066
scalar tiger_network.node[2].content_store 	hits[2] 	5751
scalar tiger_network.node[2].content_store 	misses[2] 	48783
scalar tiger_network.node[2].content_store 	decision_yes[2] 	384
scalar tiger_network.node[2].content_store 	decision_no[2] 	48399
scalar tiger_network.node[2].content_store 	decision_ratio[2] 	0.0078715946128774
scalar tiger_network.node[3].core_layer 	interests[3] 	43591
scalar tiger_network.node[3].core_layer 	data[3] 	37862
scalar tiger_network.node[3].content_store 	p_hit[3] 	0.13142621183272
scalar tiger_network.node[3].content_store 	hits[3] 	5729
scalar tiger_network.node[3].content_store 	misses[3] 	37862
scalar tiger_network.node[3].content_store 	decision_yes[3] 	190
scalar tiger_network.node[3].content_store 	decision_no[3] 	37672
scalar tiger_network.node[3].content_store 	decision_ratio[3] 	0.0050182240769109
scalar tiger_network.node[4].core_layer 	interests[4] 	34278
scalar tiger_network.node[4].core_layer 	repo_load[4] 	9470
scalar tiger_network.node[4].core_layer 	data[4] 	19774
scalar tiger_network.node[4].content_store 	p_hit[4] 	0.14685804305969
scalar tiger_network.node[4].content_store 	hits[4] 	5034
scalar tiger_network.node[4].content_store 	misses[4] 	29244
scalar tiger_network.node[4].content_store 	decision_yes[4] 	410
scalar tiger_network.node[4].content_store 	decision_no[4] 	28834
scalar tiger_network.node[4].content_store 	decision_ratio[4] 	0.014019969908357
scalar tiger_network.node[5].core_layer 	interests[5] 	25999
scalar tiger_network.node[5].core_layer 	repo_load[5] 	8765
scalar tiger_network.node[5].core_layer 	data[5] 	12431
scalar tiger_network.node[5].content_store 	p_hit[5] 	0.18473787453364
scalar tiger_network.node[5].content_store 	hits[5] 	4803
scalar tiger_network.node[5].content_store 	misses[5] 	21196
scalar tiger_network.node[5].content_store 	decision_yes[5] 	319
scalar tiger_network.node[5].content_store 	decision_no[5] 	20877
scalar tiger_network.node[5].content_store 	decision_ratio[5] 	0.015050009435743
scalar tiger_network.node[6].core_layer 	interests[6] 	36856
scalar tiger_network.node[6].core_layer 	repo_load[6] 	9501
scalar tiger_network.node[6].core_layer 	data[6] 	22594
scalar tiger_network.node[6].content_store 	p_hit[6] 	0.12917842413718
scalar tiger_network.node[6].content_store 	hits[6] 	4761
scalar tiger_network.node[6].content_store 	misses[6] 	32095
scalar tiger_network.node[6].content_store 	decision_yes[6] 	364
scalar tiger_network.node[6].content_store 	decision_no[6] 	31731
scalar tiger_network.node[6].content_store 	decision_ratio[6] 	0.0113413304253
scalar tiger_network.node[7].core_layer 	interests[7] 	41585
scalar tiger_network.node[7].core_layer 	repo_load[7] 	9377
scalar tiger_network.node[7].core_layer 	data[7] 	27017
scalar tiger_network.node[7].content_store 	p_hit[7] 	0.1248286641818
scalar tiger_network.node[7].content_store 	hits[7] 	5191
scalar tiger_network.node[7].content_store 	misses[7] 	36394
scalar tiger_network.node[7].content_store 	decision_yes[7] 	302
scalar tiger_network.node[7].content_store 	decision_no[7] 	36092
scalar tiger_network.node[7].content_store 	decision_ratio[7] 	0.0082980711106226
scalar tiger_network.node[8].core_layer 	interests[8] 	50081
scalar tiger_network.node[8].core_layer 	repo_load[8] 	9484
scalar tiger_network.node[8].core_layer 	data[8] 	35126
scalar tiger_network.node[8].content_store 	p_hit[8] 	0.1092430262974
scalar tiger_network.node[8].content_store 	hits[8] 	5471
scalar tiger_network.node[8].content_store 	misses[8] 	44610
scalar tiger_network.node[8].content_store 	decision_yes[8] 	325
scalar tiger_network.node[8].content_store 	decision_no[8] 	44285
scalar tiger_network.node[8].content_store 	decision_ratio[8] 	0.0072853620264515
scalar tiger_network.node[9].core_layer 	interests[9] 	23194
scalar tiger_network.node[9].core_layer 	repo_load[9] 	8770
scalar tiger_network.node[9].core_layer 	data[9] 	9825
scalar tiger_network.node[9].content_store 	p_hit[9] 	0.1982840389756
scalar tiger_network.node[9].content_store 	hits[9] 	4599
scalar tiger_network.node[9].content_store 	misses[9] 	18595
scalar tiger_network.node[9].content_store 	decision_yes[9] 	314
scalar tiger_network.node[9].content_store 	decision_no[9] 	18281
scalar tiger_network.node[9].content_store 	decision_ratio[9] 	0.016886259747244
scalar tiger_network.node[10].core_layer 	interests[10] 	20571
scalar tiger_network.node[10].core_layer 	data[10] 	15233
scalar tiger_network.node[10].content_store 	p_hit[10] 	0.25949151718439
scalar tiger_network.node[10].content_store 	hits[10] 	5338
scalar tiger_network.node[10].content_store 	misses[10] 	15233
scalar tiger_network.node[10].content_store 	decision_yes[10] 	94
scalar tiger_network.node[10].content_store 	decision_no[10] 	15139
scalar tiger_network.node[10].content_store 	decision_ratio[10] 	0.0061708133657192
scalar tiger_network.node[11].core_layer 	interests[11] 	27639
scalar tiger_network.node[11].core_layer 	repo_load[11] 	9209
scalar tiger_network.node[11].core_layer 	data[11] 	13668
scalar tiger_network.node[11].content_store 	p_hit[11] 	0.17229277470241
scalar tiger_network.node[11].content_store 	hits[11] 	4762
scalar tiger_network.node[11].content_store 	misses[11] 	22877
scalar tiger_network.node[11].content_store 	decision_yes[11] 	377
scalar tiger_network.node[11].content_store 	decision_no[11] 	22500
scalar tiger_network.node[11].content_store 	decision_ratio[11] 	0.016479433492154
scalar tiger_network.node[12].core_layer 	interests[12] 	38437
scalar tiger_network.node[12].core_layer 	repo_load[12] 	9392
scalar tiger_network.node[12].core_layer 	data[12] 	23654
scalar tiger_network.node[12].content_store 	p_hit[12] 	0.14025548299815
scalar tiger_network.node[12].content_store 	hits[12] 	5391
scalar tiger_network.node[12].content_store 	misses[12] 	33046
scalar tiger_network.node[12].content_store 	decision_yes[12] 	363
scalar tiger_network.node[12].content_store 	decision_no[12] 	32683
scalar tiger_network.node[12].content_store 	decision_ratio[12] 	0.010984688010652
scalar tiger_network.node[13].core_layer 	interests[13] 	26253
scalar tiger_network.node[13].core_layer 	repo_load[13] 	8912
scalar tiger_network.node[13].core_layer 	data[13] 	12474
scalar tiger_network.node[13].content_store 	p_hit[13] 	0.18538833657106
scalar tiger_network.node[13].content_store 	hits[13] 	4867
scalar tiger_network.node[13].content_store 	misses[13] 	21386
scalar tiger_network.node[13].content_store 	decision_yes[13] 	283
scalar tiger_network.node[13].content_store 	decision_no[13] 	21103
scalar tiger_network.node[13].content_store 	decision_ratio[13] 	0.013232956139531
scalar tiger_network.node[14].core_layer 	interests[14] 	24598
scalar tiger_network.node[14].core_layer 	repo_load[14] 	8917
scalar tiger_network.node[14].core_layer 	data[14] 	11221
scalar tiger_network.node[14].content_store 	p_hit[14] 	0.18131555411009
scalar tiger_network.node[14].content_store 	hits[14] 	4460
scalar tiger_network.node[14].content_store 	misses[14] 	20138
scalar tiger_network.node[14].content_store 	decision_yes[14] 	333
scalar tiger_network.node[14].content_store 	decision_no[14] 	19805
scalar tiger_network.node[14].content_store 	decision_ratio[14] 	0.016535902274307
scalar tiger_network.node[15].core_layer 	interests[15] 	26765
scalar tiger_network.node[15].core_layer 	repo_load[15] 	9132
scalar tiger_network.node[15].core_layer 	data[15] 	13194
scalar tiger_network.node[15].content_store 	p_hit[15] 	0.16585092471511
scalar tiger_network.node[15].content_store 	hits[15] 	4439
scalar tiger_network.node[15].content_store 	misses[15] 	22326
scalar tiger_network.node[15].content_store 	decision_yes[15] 	304
scalar tiger_network.node[15].content_store 	decision_no[15] 	22022
scalar tiger_network.node[15].content_store 	decision_ratio[15] 	0.013616411358954
scalar tiger_network.node[16].core_layer 	interests[16] 	24258
scalar tiger_network.node[16].core_layer 	data[16] 	18132
scalar tiger_network.node[16].content_store 	p_hit[16] 	0.25253524610438
scalar tiger_network.node[16].content_store 	hits[16] 	6126
scalar tiger_network.node[16].content_store 	misses[16] 	18132
scalar tiger_network.node[16].content_store 	decision_yes[16] 	127
scalar tiger_network.node[16].content_store 	decision_no[16] 	18005
scalar tiger_network.node[16].content_store 	decision_ratio[16] 	0.007004191484668
scalar tiger_network.node[17].core_layer 	interests[17] 	34184
scalar tiger_network.node[17].core_layer 	data[17] 	28071
scalar tiger_network.node[17].content_store 	p_hit[17] 	0.17882635150948
scalar tiger_network.node[17].content_store 	hits[17] 	6113
scalar tiger_network.node[17].content_store 	misses[17] 	28071
scalar tiger_network.node[17].content_store 	decision_yes[17] 	174
scalar tiger_network.node[17].content_store 	decision_no[17] 	27897
scalar tiger_network.node[17].content_store 	decision_ratio[17] 	0.0061985679170674
scalar tiger_network.node[18].core_layer 	interests[18] 	45793
scalar tiger_network.node[18].core_layer 	repo_load[18] 	9839
scalar tiger_network.node[18].core_layer 	data[18] 	30564
scalar tiger_network.node[18].content_store 	p_hit[18] 	0.11770357914965
scalar tiger_network.node[18].content_store 	hits[18] 	5390
scalar tiger_network.node[18].content_store 	misses[18] 	40403
scalar tiger_network.node[18].content_store 	decision_yes[18] 	358
scalar tiger_network.node[18].content_store 	decision_no[18] 	40045
scalar tiger_network.node[18].content_store 	decision_ratio[18] 	0.0088607281637502
scalar tiger_network.node[19].core_layer 	interests[19] 	23541
scalar tiger_network.node[19].core_layer 	data[19] 	17520
scalar tiger_network.node[19].content_store 	p_hit[19] 	0.25576653498152
scalar tiger_network.node[19].content_store 	hits[19] 	6021
scalar tiger_network.node[19].content_store 	misses[19] 	17520
scalar tiger_network.node[19].content_store 	decision_yes[19] 	133
scalar tiger_network.node[19].content_store 	decision_no[19] 	17387
scalar tiger_network.node[19].content_store 	decision_ratio[19] 	0.0075913242009132
scalar tiger_network.node[20].core_layer 	interests[20] 	27007
scalar tiger_network.node[20].core_layer 	repo_load[20] 	8996
scalar tiger_network.node[20].core_layer 	data[20] 	13175
scalar tiger_network.node[20].content_store 	p_hit[20] 	0.17906468693302
scalar tiger_network.node[20].content_store 	hits[20] 	4836
scalar tiger_network.node[20].content_store 	misses[20] 	22171
scalar tiger_network.node[20].content_store 	decision_yes[20] 	329
scalar tiger_network.node[20].content_store 	decision_no[20] 	21842
scalar tiger_network.node[20].content_store 	decision_ratio[20] 	0.014839204366064
scalar tiger_network.node[21].core_layer 	interests[21] 	26898
scalar tiger_network.node[21].core_layer 	repo_load[21] 	9551
scalar tiger_network.node[21].core_layer 	data[21] 	12688
scalar tiger_network.node[21].content_store 	p_hit[21] 	0.17320990408209
scalar tiger_network.node[21].content_store 	hits[21] 	4659
scalar tiger_network.node[21].content_store 	misses[21] 	22239
scalar tiger_network.node[21].content_store 	decision_yes[21] 	384
scalar tiger_network.node[21].content_store 	decision_no[21] 	21855
scalar tiger_network.node[21].content_store 	decision_ratio[21] 	0.017266963442601
scalar tiger_network.client[0] 	hdistance[0] 	2.2042659974906
scalar tiger_network.client[0] 	downloads[0] 	11955
scalar tiger_network.client[0] 	avg_time[0] 	0.000495775679
scalar tiger_network.client[1] 	hdistance[1] 	2.3145720250522
scalar tiger_network.client[1] 	downloads[1] 	11975
scalar tiger_network.client[1] 	avg_time[1] 	0.00078728834
scalar tiger_network.client[2] 	hdistance[2] 	2.1969336722145
scalar tiger_network.client[2] 	downloads[2] 	12197
scalar tiger_network.client[2] 	avg_time[2] 	0.000870939164
scalar tiger_network.client[3] 	hdistance[3] 	2.3547198257811
scalar tiger_network.client[3] 	downloads[3] 	11939
scalar tiger_network.client[3] 	avg_time[3] 	0.000980337581
scalar tiger_network.client[4] 	hdistance[4] 	2.431063261559
scalar tiger_network.client[4] 	downloads[4] 	11982
scalar tiger_network.client[4] 	avg_time[4] 	0.000974339671
scalar tiger_network.client[5] 	hdistance[5] 	2.4599459945995
scalar tiger_network.client[5] 	downloads[5] 	12221
scalar tiger_network.client[5] 	avg_time[5] 	0.000964528519
scalar tiger_network.client[6] 	hdistance[6] 	2.3661068444594
scalar tiger_network.client[6] 	downloads[6] 	11849
scalar tiger_network.client[6] 	avg_time[6] 	0.000674920831
scalar tiger_network.client[7] 	hdistance[7] 	2.2904948677293
scalar tiger_network.client[7] 	downloads[7] 	11983
scalar tiger_network.client[7] 	avg_time[7] 	0.000689456897
scalar tiger_network.client[8] 	hdistance[8] 	2.2892277422528
scalar tiger_network.client[8] 	downloads[8] 	12198
scalar tiger_network.client[8] 	avg_time[8] 	0.000733191905
scalar tiger_network.client[9] 	hdistance[9] 	2.614426828256
scalar tiger_network.client[9] 	downloads[9] 	12047
scalar tiger_network.client[9] 	avg_time[9] 	0.000690727456
scalar tiger_network.client[10] 	hdistance[10] 	2.5494866184144
scalar tiger_network.client[10] 	downloads[10] 	11882
scalar tiger_network.client[10] 	avg_time[10] 	0.000747276796
scalar tiger_network.client[11] 	hdistance[11] 	2.4236837734595
scalar tiger_network.client[11] 	downloads[11] 	12042
scalar tiger_network.client[11] 	avg_time[11] 	0.000454452579
scalar tiger_network.client[12] 	hdistance[12] 	2.2561097256858
scalar tiger_network.client[12] 	downloads[12] 	12030
scalar tiger_network.client[12] 	avg_time[12] 	0.000682457007
scalar tiger_network.client[13] 	hdistance[13] 	2.4325494524153
scalar tiger_network.client[13] 	downloads[13] 	11779
scalar tiger_network.client[13] 	avg_time[13] 	0.000709355564
scalar tiger_network.client[14] 	hdistance[14] 	2.6550287476044
scalar tiger_network.client[14] 	downloads[14] 	12001
scalar tiger_network.client[14] 	avg_time[14] 	0.000681419885
scalar tiger_network.client[15] 	hdistance[15] 	2.5652101952996
scalar tiger_network.client[15] 	downloads[15] 	12084
scalar tiger_network.client[15] 	avg_time[15] 	0.000697053906
scalar tiger_network.client[16] 	hdistance[16] 	2.3304485312474
scalar tiger_network.client[16] 	downloads[16] 	12017
scalar tiger_network.client[16] 	avg_time[16] 	0.000572652747
scalar tiger_network.client[17] 	hdistance[17] 	2.2362152806396
scalar tiger_network.client[17] 	downloads[17] 	12133
scalar tiger_network.client[17] 	avg_time[17] 	0.000635649787
scalar tiger_network.client[18] 	hdistance[18] 	2.1213700034165
scalar tiger_network.client[18] 	downloads[18] 	11708
scalar tiger_network.client[18] 	avg_time[18] 	0.000413197786
scalar tiger_network.client[19] 	hdistance[19] 	2.2007689735874
scalar tiger_network.client[19] 	downloads[19] 	11964
scalar tiger_network.client[19] 	avg_time[19] 	0.000355796791
scalar tiger_network.client[20] 	hdistance[20] 	2.3952824645345
scalar tiger_network.client[20] 	downloads[20] 	11913
scalar tiger_network.client[20] 	avg_time[20] 	0.000573496547
scalar tiger_network.client[21] 	hdistance[21] 	2.494670742791
scalar tiger_network.client[21] 	downloads[21] 	12103
scalar tiger_network.client[21] 	avg_time[21] 	0.000614066219
