version 2
run General-148-20160819-17:18:51-23511
attr a 0.9
attr cd lce
attr configname General
attr cr lru
attr datetime 20160819-17:18:51
attr experiment General
attr fsize 1
attr inifile hw5115/scenario_A/NRR-LCE.ini
attr iterationvars "$name=tree_4_3, $un=07, $rep=9, $cd=lce, $cr=lru, $fsize=1, $a=0.9, $sl=nrr, $ttl=1000, $variance=0.05"
attr iterationvars2 "$name=tree_4_3, $un=07, $rep=9, $cd=lce, $cr=lru, $fsize=1, $a=0.9, $sl=nrr, $ttl=1000, $variance=0.05, $repetition=0"
attr measurement "$name=tree_4_3, $un=07, $rep=9, $cd=lce, $cr=lru, $fsize=1, $a=0.9, $sl=nrr, $ttl=1000, $variance=0.05"
attr name tree_4_3
attr network networks.${name}_u${un}_r${rep}_network
attr processid 23511
attr rep 9
attr repetition 0
attr replication #0
attr resultdir results
attr runnumber 148
attr seedset 9
attr sl nrr
attr ttl 1000
attr un 07
attr variance 0.05

scalar . 	a 	0.9
scalar . 	fsize 	1
scalar . 	rep 	9
scalar . 	ttl 	1000
scalar . 	un 	07
scalar . 	variance 	0.05
scalar tree_4_3_u07_r9_network.content_distribution 	repo-0 	0
scalar tree_4_3_u07_r9_network.content_distribution 	client-0 	13
scalar tree_4_3_u07_r9_network.content_distribution 	client-1 	14
scalar tree_4_3_u07_r9_network.content_distribution 	client-2 	15
scalar tree_4_3_u07_r9_network.content_distribution 	client-3 	16
scalar tree_4_3_u07_r9_network.content_distribution 	client-4 	17
scalar tree_4_3_u07_r9_network.content_distribution 	client-5 	18
scalar tree_4_3_u07_r9_network.content_distribution 	client-6 	19
scalar tree_4_3_u07_r9_network.content_distribution 	client-7 	20
scalar tree_4_3_u07_r9_network.content_distribution 	client-8 	21
scalar tree_4_3_u07_r9_network.content_distribution 	client-9 	22
scalar tree_4_3_u07_r9_network.content_distribution 	client-10 	23
scalar tree_4_3_u07_r9_network.content_distribution 	client-11 	24
scalar tree_4_3_u07_r9_network.content_distribution 	client-12 	25
scalar tree_4_3_u07_r9_network.content_distribution 	client-13 	26
scalar tree_4_3_u07_r9_network.content_distribution 	client-14 	27
scalar tree_4_3_u07_r9_network.content_distribution 	client-15 	28
scalar tree_4_3_u07_r9_network.content_distribution 	client-16 	29
scalar tree_4_3_u07_r9_network.content_distribution 	client-17 	30
scalar tree_4_3_u07_r9_network.content_distribution 	client-18 	31
scalar tree_4_3_u07_r9_network.content_distribution 	client-19 	32
scalar tree_4_3_u07_r9_network.content_distribution 	client-20 	33
scalar tree_4_3_u07_r9_network.content_distribution 	client-21 	34
scalar tree_4_3_u07_r9_network.content_distribution 	client-22 	35
scalar tree_4_3_u07_r9_network.content_distribution 	client-23 	36
scalar tree_4_3_u07_r9_network.content_distribution 	client-24 	37
scalar tree_4_3_u07_r9_network.content_distribution 	client-25 	38
scalar tree_4_3_u07_r9_network.content_distribution 	client-26 	39
scalar tree_4_3_u07_r9_network.content_distribution 	repo-0_card 	100000
scalar tree_4_3_u07_r9_network.content_distribution 	repo-0_price 	0
scalar tree_4_3_u07_r9_network.statistics 	stabilization_time 	472.6
scalar tree_4_3_u07_r9_network.statistics 	p_hit 	0.19585032563238
scalar tree_4_3_u07_r9_network.statistics 	interests 	27571.075
scalar tree_4_3_u07_r9_network.statistics 	data 	19459.425
scalar tree_4_3_u07_r9_network.statistics 	hdistance 	3.0217412278102
scalar tree_4_3_u07_r9_network.statistics 	avg_time 	0.004797888441
scalar tree_4_3_u07_r9_network.statistics 	downloads 	324457
scalar tree_4_3_u07_r9_network.statistics 	total_cost 	0
scalar tree_4_3_u07_r9_network.statistics 	total_replicas 	100000
scalar tree_4_3_u07_r9_network.statistics 	inner_hit 	0.37718711570408
scalar tree_4_3_u07_r9_network.node[0].core_layer 	interests[0] 	202899
scalar tree_4_3_u07_r9_network.node[0].core_layer 	repo_load[0] 	202076
scalar tree_4_3_u07_r9_network.node[0].core_layer 	data[0] 	0
scalar tree_4_3_u07_r9_network.node[0].core_layer 	repo_int[0] 	202076
scalar tree_4_3_u07_r9_network.node[0].content_store 	p_hit[0] 	0.0040562053041168
scalar tree_4_3_u07_r9_network.node[0].content_store 	hits[0] 	823
scalar tree_4_3_u07_r9_network.node[0].content_store 	misses[0] 	202076
scalar tree_4_3_u07_r9_network.node[0].content_store 	decision_yes[0] 	202076
scalar tree_4_3_u07_r9_network.node[0].content_store 	decision_no[0] 	0
scalar tree_4_3_u07_r9_network.node[0].content_store 	decision_ratio[0] 	1
scalar tree_4_3_u07_r9_network.node[1].core_layer 	interests[1] 	69789
scalar tree_4_3_u07_r9_network.node[1].core_layer 	data[1] 	69491
scalar tree_4_3_u07_r9_network.node[1].content_store 	p_hit[1] 	0.0042556849933371
scalar tree_4_3_u07_r9_network.node[1].content_store 	hits[1] 	297
scalar tree_4_3_u07_r9_network.node[1].content_store 	misses[1] 	69492
scalar tree_4_3_u07_r9_network.node[1].content_store 	decision_yes[1] 	69489
scalar tree_4_3_u07_r9_network.node[1].content_store 	decision_no[1] 	0
scalar tree_4_3_u07_r9_network.node[1].content_store 	decision_ratio[1] 	1
scalar tree_4_3_u07_r9_network.node[2].core_layer 	interests[2] 	75944
scalar tree_4_3_u07_r9_network.node[2].core_layer 	data[2] 	75055
scalar tree_4_3_u07_r9_network.node[2].content_store 	p_hit[2] 	0.011679658695881
scalar tree_4_3_u07_r9_network.node[2].content_store 	hits[2] 	887
scalar tree_4_3_u07_r9_network.node[2].content_store 	misses[2] 	75057
scalar tree_4_3_u07_r9_network.node[2].content_store 	decision_yes[2] 	75043
scalar tree_4_3_u07_r9_network.node[2].content_store 	decision_no[2] 	0
scalar tree_4_3_u07_r9_network.node[2].content_store 	decision_ratio[2] 	1
scalar tree_4_3_u07_r9_network.node[3].core_layer 	interests[3] 	86541
scalar tree_4_3_u07_r9_network.node[3].core_layer 	data[3] 	84673
scalar tree_4_3_u07_r9_network.node[3].content_store 	p_hit[3] 	0.021573589396933
scalar tree_4_3_u07_r9_network.node[3].content_store 	hits[3] 	1867
scalar tree_4_3_u07_r9_network.node[3].content_store 	misses[3] 	84674
scalar tree_4_3_u07_r9_network.node[3].content_store 	decision_yes[3] 	84665
scalar tree_4_3_u07_r9_network.node[3].content_store 	decision_no[3] 	0
scalar tree_4_3_u07_r9_network.node[3].content_store 	decision_ratio[3] 	1
scalar tree_4_3_u07_r9_network.node[4].core_layer 	interests[4] 	44584
scalar tree_4_3_u07_r9_network.node[4].core_layer 	data[4] 	43558
scalar tree_4_3_u07_r9_network.node[4].content_store 	p_hit[4] 	0.023035169567558
scalar tree_4_3_u07_r9_network.node[4].content_store 	hits[4] 	1027
scalar tree_4_3_u07_r9_network.node[4].content_store 	misses[4] 	43557
scalar tree_4_3_u07_r9_network.node[4].content_store 	decision_yes[4] 	43555
scalar tree_4_3_u07_r9_network.node[4].content_store 	decision_no[4] 	0
scalar tree_4_3_u07_r9_network.node[4].content_store 	decision_ratio[4] 	1
scalar tree_4_3_u07_r9_network.node[5].core_layer 	interests[5] 	24936
scalar tree_4_3_u07_r9_network.node[5].core_layer 	data[5] 	22357
scalar tree_4_3_u07_r9_network.node[5].content_store 	p_hit[5] 	0.10342476740456
scalar tree_4_3_u07_r9_network.node[5].content_store 	hits[5] 	2579
scalar tree_4_3_u07_r9_network.node[5].content_store 	misses[5] 	22357
scalar tree_4_3_u07_r9_network.node[5].content_store 	decision_yes[5] 	22355
scalar tree_4_3_u07_r9_network.node[5].content_store 	decision_no[5] 	0
scalar tree_4_3_u07_r9_network.node[5].content_store 	decision_ratio[5] 	1
scalar tree_4_3_u07_r9_network.node[6].core_layer 	interests[6] 	31234
scalar tree_4_3_u07_r9_network.node[6].core_layer 	data[6] 	27102
scalar tree_4_3_u07_r9_network.node[6].content_store 	p_hit[6] 	0.13213165140552
scalar tree_4_3_u07_r9_network.node[6].content_store 	hits[6] 	4127
scalar tree_4_3_u07_r9_network.node[6].content_store 	misses[6] 	27107
scalar tree_4_3_u07_r9_network.node[6].content_store 	decision_yes[6] 	27102
scalar tree_4_3_u07_r9_network.node[6].content_store 	decision_no[6] 	0
scalar tree_4_3_u07_r9_network.node[6].content_store 	decision_ratio[6] 	1
scalar tree_4_3_u07_r9_network.node[7].core_layer 	interests[7] 	28692
scalar tree_4_3_u07_r9_network.node[7].core_layer 	data[7] 	27715
scalar tree_4_3_u07_r9_network.node[7].content_store 	p_hit[7] 	0.034016450578558
scalar tree_4_3_u07_r9_network.node[7].content_store 	hits[7] 	976
scalar tree_4_3_u07_r9_network.node[7].content_store 	misses[7] 	27716
scalar tree_4_3_u07_r9_network.node[7].content_store 	decision_yes[7] 	27713
scalar tree_4_3_u07_r9_network.node[7].content_store 	decision_no[7] 	0
scalar tree_4_3_u07_r9_network.node[7].content_store 	decision_ratio[7] 	1
scalar tree_4_3_u07_r9_network.node[8].core_layer 	interests[8] 	39425
scalar tree_4_3_u07_r9_network.node[8].core_layer 	data[8] 	37708
scalar tree_4_3_u07_r9_network.node[8].content_store 	p_hit[8] 	0.043474952441344
scalar tree_4_3_u07_r9_network.node[8].content_store 	hits[8] 	1714
scalar tree_4_3_u07_r9_network.node[8].content_store 	misses[8] 	37711
scalar tree_4_3_u07_r9_network.node[8].content_store 	decision_yes[8] 	37703
scalar tree_4_3_u07_r9_network.node[8].content_store 	decision_no[8] 	0
scalar tree_4_3_u07_r9_network.node[8].content_store 	decision_ratio[8] 	1
scalar tree_4_3_u07_r9_network.node[9].core_layer 	interests[9] 	31967
scalar tree_4_3_u07_r9_network.node[9].core_layer 	data[9] 	27320
scalar tree_4_3_u07_r9_network.node[9].content_store 	p_hit[9] 	0.14524353239278
scalar tree_4_3_u07_r9_network.node[9].content_store 	hits[9] 	4643
scalar tree_4_3_u07_r9_network.node[9].content_store 	misses[9] 	27324
scalar tree_4_3_u07_r9_network.node[9].content_store 	decision_yes[9] 	27317
scalar tree_4_3_u07_r9_network.node[9].content_store 	decision_no[9] 	0
scalar tree_4_3_u07_r9_network.node[9].content_store 	decision_ratio[9] 	1
scalar tree_4_3_u07_r9_network.node[10].core_layer 	interests[10] 	50468
scalar tree_4_3_u07_r9_network.node[10].core_layer 	data[10] 	48714
scalar tree_4_3_u07_r9_network.node[10].content_store 	p_hit[10] 	0.034695252437188
scalar tree_4_3_u07_r9_network.node[10].content_store 	hits[10] 	1751
scalar tree_4_3_u07_r9_network.node[10].content_store 	misses[10] 	48717
scalar tree_4_3_u07_r9_network.node[10].content_store 	decision_yes[10] 	48712
scalar tree_4_3_u07_r9_network.node[10].content_store 	decision_no[10] 	0
scalar tree_4_3_u07_r9_network.node[10].content_store 	decision_ratio[10] 	1
scalar tree_4_3_u07_r9_network.node[11].core_layer 	interests[11] 	33574
scalar tree_4_3_u07_r9_network.node[11].core_layer 	data[11] 	31037
scalar tree_4_3_u07_r9_network.node[11].content_store 	p_hit[11] 	0.075415500089355
scalar tree_4_3_u07_r9_network.node[11].content_store 	hits[11] 	2532
scalar tree_4_3_u07_r9_network.node[11].content_store 	misses[11] 	31042
scalar tree_4_3_u07_r9_network.node[11].content_store 	decision_yes[11] 	31033
scalar tree_4_3_u07_r9_network.node[11].content_store 	decision_no[11] 	0
scalar tree_4_3_u07_r9_network.node[11].content_store 	decision_ratio[11] 	1
scalar tree_4_3_u07_r9_network.node[12].core_layer 	interests[12] 	14241
scalar tree_4_3_u07_r9_network.node[12].core_layer 	data[12] 	10843
scalar tree_4_3_u07_r9_network.node[12].content_store 	p_hit[12] 	0.23860683940734
scalar tree_4_3_u07_r9_network.node[12].content_store 	hits[12] 	3398
scalar tree_4_3_u07_r9_network.node[12].content_store 	misses[12] 	10843
scalar tree_4_3_u07_r9_network.node[12].content_store 	decision_yes[12] 	10843
scalar tree_4_3_u07_r9_network.node[12].content_store 	decision_no[12] 	0
scalar tree_4_3_u07_r9_network.node[12].content_store 	decision_ratio[12] 	1
scalar tree_4_3_u07_r9_network.node[13].core_layer 	interests[13] 	12833
scalar tree_4_3_u07_r9_network.node[13].core_layer 	data[13] 	10200
scalar tree_4_3_u07_r9_network.node[13].content_store 	p_hit[13] 	0.2051741603678
scalar tree_4_3_u07_r9_network.node[13].content_store 	hits[13] 	2633
scalar tree_4_3_u07_r9_network.node[13].content_store 	misses[13] 	10200
scalar tree_4_3_u07_r9_network.node[13].content_store 	decision_yes[13] 	10200
scalar tree_4_3_u07_r9_network.node[13].content_store 	decision_no[13] 	0
scalar tree_4_3_u07_r9_network.node[13].content_store 	decision_ratio[13] 	1
scalar tree_4_3_u07_r9_network.node[14].core_layer 	interests[14] 	14001
scalar tree_4_3_u07_r9_network.node[14].core_layer 	data[14] 	10097
scalar tree_4_3_u07_r9_network.node[14].content_store 	p_hit[14] 	0.27883722591243
scalar tree_4_3_u07_r9_network.node[14].content_store 	hits[14] 	3904
scalar tree_4_3_u07_r9_network.node[14].content_store 	misses[14] 	10097
scalar tree_4_3_u07_r9_network.node[14].content_store 	decision_yes[14] 	10097
scalar tree_4_3_u07_r9_network.node[14].content_store 	decision_no[14] 	0
scalar tree_4_3_u07_r9_network.node[14].content_store 	decision_ratio[14] 	1
scalar tree_4_3_u07_r9_network.node[15].core_layer 	interests[15] 	14294
scalar tree_4_3_u07_r9_network.node[15].core_layer 	data[15] 	9963
scalar tree_4_3_u07_r9_network.node[15].content_store 	p_hit[15] 	0.30299426332727
scalar tree_4_3_u07_r9_network.node[15].content_store 	hits[15] 	4331
scalar tree_4_3_u07_r9_network.node[15].content_store 	misses[15] 	9963
scalar tree_4_3_u07_r9_network.node[15].content_store 	decision_yes[15] 	9963
scalar tree_4_3_u07_r9_network.node[15].content_store 	decision_no[15] 	0
scalar tree_4_3_u07_r9_network.node[15].content_store 	decision_ratio[15] 	1
scalar tree_4_3_u07_r9_network.node[16].core_layer 	interests[16] 	13934
scalar tree_4_3_u07_r9_network.node[16].core_layer 	data[16] 	10040
scalar tree_4_3_u07_r9_network.node[16].content_store 	p_hit[16] 	0.27946031290369
scalar tree_4_3_u07_r9_network.node[16].content_store 	hits[16] 	3894
scalar tree_4_3_u07_r9_network.node[16].content_store 	misses[16] 	10040
scalar tree_4_3_u07_r9_network.node[16].content_store 	decision_yes[16] 	10040
scalar tree_4_3_u07_r9_network.node[16].content_store 	decision_no[16] 	0
scalar tree_4_3_u07_r9_network.node[16].content_store 	decision_ratio[16] 	1
scalar tree_4_3_u07_r9_network.node[17].core_layer 	interests[17] 	12997
scalar tree_4_3_u07_r9_network.node[17].core_layer 	data[17] 	10255
scalar tree_4_3_u07_r9_network.node[17].content_store 	p_hit[17] 	0.21089482188197
scalar tree_4_3_u07_r9_network.node[17].content_store 	hits[17] 	2741
scalar tree_4_3_u07_r9_network.node[17].content_store 	misses[17] 	10256
scalar tree_4_3_u07_r9_network.node[17].content_store 	decision_yes[17] 	10255
scalar tree_4_3_u07_r9_network.node[17].content_store 	decision_no[17] 	0
scalar tree_4_3_u07_r9_network.node[17].content_store 	decision_ratio[17] 	1
scalar tree_4_3_u07_r9_network.node[18].core_layer 	interests[18] 	14721
scalar tree_4_3_u07_r9_network.node[18].core_layer 	data[18] 	10019
scalar tree_4_3_u07_r9_network.node[18].content_store 	p_hit[18] 	0.31933971876911
scalar tree_4_3_u07_r9_network.node[18].content_store 	hits[18] 	4701
scalar tree_4_3_u07_r9_network.node[18].content_store 	misses[18] 	10020
scalar tree_4_3_u07_r9_network.node[18].content_store 	decision_yes[18] 	10019
scalar tree_4_3_u07_r9_network.node[18].content_store 	decision_no[18] 	0
scalar tree_4_3_u07_r9_network.node[18].content_store 	decision_ratio[18] 	1
scalar tree_4_3_u07_r9_network.node[19].core_layer 	interests[19] 	14617
scalar tree_4_3_u07_r9_network.node[19].core_layer 	data[19] 	10206
scalar tree_4_3_u07_r9_network.node[19].content_store 	p_hit[19] 	0.30184032291168
scalar tree_4_3_u07_r9_network.node[19].content_store 	hits[19] 	4412
scalar tree_4_3_u07_r9_network.node[19].content_store 	misses[19] 	10205
scalar tree_4_3_u07_r9_network.node[19].content_store 	decision_yes[19] 	10206
scalar tree_4_3_u07_r9_network.node[19].content_store 	decision_no[19] 	0
scalar tree_4_3_u07_r9_network.node[19].content_store 	decision_ratio[19] 	1
scalar tree_4_3_u07_r9_network.node[20].core_layer 	interests[20] 	13279
scalar tree_4_3_u07_r9_network.node[20].core_layer 	data[20] 	10159
scalar tree_4_3_u07_r9_network.node[20].content_store 	p_hit[20] 	0.23495745161533
scalar tree_4_3_u07_r9_network.node[20].content_store 	hits[20] 	3120
scalar tree_4_3_u07_r9_network.node[20].content_store 	misses[20] 	10159
scalar tree_4_3_u07_r9_network.node[20].content_store 	decision_yes[20] 	10159
scalar tree_4_3_u07_r9_network.node[20].content_store 	decision_no[20] 	0
scalar tree_4_3_u07_r9_network.node[20].content_store 	decision_ratio[20] 	1
scalar tree_4_3_u07_r9_network.node[21].core_layer 	interests[21] 	13454
scalar tree_4_3_u07_r9_network.node[21].core_layer 	data[21] 	10270
scalar tree_4_3_u07_r9_network.node[21].content_store 	p_hit[21] 	0.23665824290174
scalar tree_4_3_u07_r9_network.node[21].content_store 	hits[21] 	3184
scalar tree_4_3_u07_r9_network.node[21].content_store 	misses[21] 	10270
scalar tree_4_3_u07_r9_network.node[21].content_store 	decision_yes[21] 	10270
scalar tree_4_3_u07_r9_network.node[21].content_store 	decision_no[21] 	0
scalar tree_4_3_u07_r9_network.node[21].content_store 	decision_ratio[21] 	1
scalar tree_4_3_u07_r9_network.node[22].core_layer 	interests[22] 	12594
scalar tree_4_3_u07_r9_network.node[22].core_layer 	data[22] 	10116
scalar tree_4_3_u07_r9_network.node[22].content_store 	p_hit[22] 	0.19660155629665
scalar tree_4_3_u07_r9_network.node[22].content_store 	hits[22] 	2476
scalar tree_4_3_u07_r9_network.node[22].content_store 	misses[22] 	10118
scalar tree_4_3_u07_r9_network.node[22].content_store 	decision_yes[22] 	10116
scalar tree_4_3_u07_r9_network.node[22].content_store 	decision_no[22] 	0
scalar tree_4_3_u07_r9_network.node[22].content_store 	decision_ratio[22] 	1
scalar tree_4_3_u07_r9_network.node[23].core_layer 	interests[23] 	13807
scalar tree_4_3_u07_r9_network.node[23].core_layer 	data[23] 	10084
scalar tree_4_3_u07_r9_network.node[23].content_store 	p_hit[23] 	0.26957340479467
scalar tree_4_3_u07_r9_network.node[23].content_store 	hits[23] 	3722
scalar tree_4_3_u07_r9_network.node[23].content_store 	misses[23] 	10085
scalar tree_4_3_u07_r9_network.node[23].content_store 	decision_yes[23] 	10084
scalar tree_4_3_u07_r9_network.node[23].content_store 	decision_no[23] 	0
scalar tree_4_3_u07_r9_network.node[23].content_store 	decision_ratio[23] 	1
scalar tree_4_3_u07_r9_network.node[24].core_layer 	interests[24] 	14527
scalar tree_4_3_u07_r9_network.node[24].core_layer 	data[24] 	10123
scalar tree_4_3_u07_r9_network.node[24].content_store 	p_hit[24] 	0.30309079644799
scalar tree_4_3_u07_r9_network.node[24].content_store 	hits[24] 	4403
scalar tree_4_3_u07_r9_network.node[24].content_store 	misses[24] 	10124
scalar tree_4_3_u07_r9_network.node[24].content_store 	decision_yes[24] 	10123
scalar tree_4_3_u07_r9_network.node[24].content_store 	decision_no[24] 	0
scalar tree_4_3_u07_r9_network.node[24].content_store 	decision_ratio[24] 	1
scalar tree_4_3_u07_r9_network.node[25].core_layer 	interests[25] 	13078
scalar tree_4_3_u07_r9_network.node[25].core_layer 	data[25] 	10119
scalar tree_4_3_u07_r9_network.node[25].content_store 	p_hit[25] 	0.22618137329867
scalar tree_4_3_u07_r9_network.node[25].content_store 	hits[25] 	2958
scalar tree_4_3_u07_r9_network.node[25].content_store 	misses[25] 	10120
scalar tree_4_3_u07_r9_network.node[25].content_store 	decision_yes[25] 	10119
scalar tree_4_3_u07_r9_network.node[25].content_store 	decision_no[25] 	0
scalar tree_4_3_u07_r9_network.node[25].content_store 	decision_ratio[25] 	1
scalar tree_4_3_u07_r9_network.node[26].core_layer 	interests[26] 	12962
scalar tree_4_3_u07_r9_network.node[26].core_layer 	data[26] 	10096
scalar tree_4_3_u07_r9_network.node[26].content_store 	p_hit[26] 	0.22095355654992
scalar tree_4_3_u07_r9_network.node[26].content_store 	hits[26] 	2864
scalar tree_4_3_u07_r9_network.node[26].content_store 	misses[26] 	10098
scalar tree_4_3_u07_r9_network.node[26].content_store 	decision_yes[26] 	10096
scalar tree_4_3_u07_r9_network.node[26].content_store 	decision_no[26] 	0
scalar tree_4_3_u07_r9_network.node[26].content_store 	decision_ratio[26] 	1
scalar tree_4_3_u07_r9_network.node[27].core_layer 	interests[27] 	14646
scalar tree_4_3_u07_r9_network.node[27].core_layer 	data[27] 	9954
scalar tree_4_3_u07_r9_network.node[27].content_store 	p_hit[27] 	0.32036050798853
scalar tree_4_3_u07_r9_network.node[27].content_store 	hits[27] 	4692
scalar tree_4_3_u07_r9_network.node[27].content_store 	misses[27] 	9954
scalar tree_4_3_u07_r9_network.node[27].content_store 	decision_yes[27] 	9954
scalar tree_4_3_u07_r9_network.node[27].content_store 	decision_no[27] 	0
scalar tree_4_3_u07_r9_network.node[27].content_store 	decision_ratio[27] 	1
scalar tree_4_3_u07_r9_network.node[28].core_layer 	interests[28] 	13259
scalar tree_4_3_u07_r9_network.node[28].core_layer 	data[28] 	9917
scalar tree_4_3_u07_r9_network.node[28].content_store 	p_hit[28] 	0.25205520778339
scalar tree_4_3_u07_r9_network.node[28].content_store 	hits[28] 	3342
scalar tree_4_3_u07_r9_network.node[28].content_store 	misses[28] 	9917
scalar tree_4_3_u07_r9_network.node[28].content_store 	decision_yes[28] 	9917
scalar tree_4_3_u07_r9_network.node[28].content_store 	decision_no[28] 	0
scalar tree_4_3_u07_r9_network.node[28].content_store 	decision_ratio[28] 	1
scalar tree_4_3_u07_r9_network.node[29].core_layer 	interests[29] 	14601
scalar tree_4_3_u07_r9_network.node[29].core_layer 	data[29] 	10032
scalar tree_4_3_u07_r9_network.node[29].content_store 	p_hit[29] 	0.31292377234436
scalar tree_4_3_u07_r9_network.node[29].content_store 	hits[29] 	4569
scalar tree_4_3_u07_r9_network.node[29].content_store 	misses[29] 	10032
scalar tree_4_3_u07_r9_network.node[29].content_store 	decision_yes[29] 	10032
scalar tree_4_3_u07_r9_network.node[29].content_store 	decision_no[29] 	0
scalar tree_4_3_u07_r9_network.node[29].content_store 	decision_ratio[29] 	1
scalar tree_4_3_u07_r9_network.node[30].core_layer 	interests[30] 	13348
scalar tree_4_3_u07_r9_network.node[30].core_layer 	data[30] 	10057
scalar tree_4_3_u07_r9_network.node[30].content_store 	p_hit[30] 	0.24655379083009
scalar tree_4_3_u07_r9_network.node[30].content_store 	hits[30] 	3291
scalar tree_4_3_u07_r9_network.node[30].content_store 	misses[30] 	10057
scalar tree_4_3_u07_r9_network.node[30].content_store 	decision_yes[30] 	10057
scalar tree_4_3_u07_r9_network.node[30].content_store 	decision_no[30] 	0
scalar tree_4_3_u07_r9_network.node[30].content_store 	decision_ratio[30] 	1
scalar tree_4_3_u07_r9_network.node[31].core_layer 	interests[31] 	13230
scalar tree_4_3_u07_r9_network.node[31].core_layer 	data[31] 	10065
scalar tree_4_3_u07_r9_network.node[31].content_store 	p_hit[31] 	0.23907785336357
scalar tree_4_3_u07_r9_network.node[31].content_store 	hits[31] 	3163
scalar tree_4_3_u07_r9_network.node[31].content_store 	misses[31] 	10067
scalar tree_4_3_u07_r9_network.node[31].content_store 	decision_yes[31] 	10065
scalar tree_4_3_u07_r9_network.node[31].content_store 	decision_no[31] 	0
scalar tree_4_3_u07_r9_network.node[31].content_store 	decision_ratio[31] 	1
scalar tree_4_3_u07_r9_network.node[32].core_layer 	interests[32] 	14075
scalar tree_4_3_u07_r9_network.node[32].core_layer 	data[32] 	10195
scalar tree_4_3_u07_r9_network.node[32].content_store 	p_hit[32] 	0.27566607460036
scalar tree_4_3_u07_r9_network.node[32].content_store 	hits[32] 	3880
scalar tree_4_3_u07_r9_network.node[32].content_store 	misses[32] 	10195
scalar tree_4_3_u07_r9_network.node[32].content_store 	decision_yes[32] 	10195
scalar tree_4_3_u07_r9_network.node[32].content_store 	decision_no[32] 	0
scalar tree_4_3_u07_r9_network.node[32].content_store 	decision_ratio[32] 	1
scalar tree_4_3_u07_r9_network.node[33].core_layer 	interests[33] 	13897
scalar tree_4_3_u07_r9_network.node[33].core_layer 	data[33] 	10192
scalar tree_4_3_u07_r9_network.node[33].content_store 	p_hit[33] 	0.266604303087
scalar tree_4_3_u07_r9_network.node[33].content_store 	hits[33] 	3705
scalar tree_4_3_u07_r9_network.node[33].content_store 	misses[33] 	10192
scalar tree_4_3_u07_r9_network.node[33].content_store 	decision_yes[33] 	10192
scalar tree_4_3_u07_r9_network.node[33].content_store 	decision_no[33] 	0
scalar tree_4_3_u07_r9_network.node[33].content_store 	decision_ratio[33] 	1
scalar tree_4_3_u07_r9_network.node[34].core_layer 	interests[34] 	14068
scalar tree_4_3_u07_r9_network.node[34].core_layer 	data[34] 	10048
scalar tree_4_3_u07_r9_network.node[34].content_store 	p_hit[34] 	0.28568382143873
scalar tree_4_3_u07_r9_network.node[34].content_store 	hits[34] 	4019
scalar tree_4_3_u07_r9_network.node[34].content_store 	misses[34] 	10049
scalar tree_4_3_u07_r9_network.node[34].content_store 	decision_yes[34] 	10048
scalar tree_4_3_u07_r9_network.node[34].content_store 	decision_no[34] 	0
scalar tree_4_3_u07_r9_network.node[34].content_store 	decision_ratio[34] 	1
scalar tree_4_3_u07_r9_network.node[35].core_layer 	interests[35] 	13254
scalar tree_4_3_u07_r9_network.node[35].core_layer 	data[35] 	10167
scalar tree_4_3_u07_r9_network.node[35].content_store 	p_hit[35] 	0.2328353704542
scalar tree_4_3_u07_r9_network.node[35].content_store 	hits[35] 	3086
scalar tree_4_3_u07_r9_network.node[35].content_store 	misses[35] 	10168
scalar tree_4_3_u07_r9_network.node[35].content_store 	decision_yes[35] 	10167
scalar tree_4_3_u07_r9_network.node[35].content_store 	decision_no[35] 	0
scalar tree_4_3_u07_r9_network.node[35].content_store 	decision_ratio[35] 	1
scalar tree_4_3_u07_r9_network.node[36].core_layer 	interests[36] 	13100
scalar tree_4_3_u07_r9_network.node[36].core_layer 	data[36] 	10194
scalar tree_4_3_u07_r9_network.node[36].content_store 	p_hit[36] 	0.2218320610687
scalar tree_4_3_u07_r9_network.node[36].content_store 	hits[36] 	2906
scalar tree_4_3_u07_r9_network.node[36].content_store 	misses[36] 	10194
scalar tree_4_3_u07_r9_network.node[36].content_store 	decision_yes[36] 	10194
scalar tree_4_3_u07_r9_network.node[36].content_store 	decision_no[36] 	0
scalar tree_4_3_u07_r9_network.node[36].content_store 	decision_ratio[36] 	1
scalar tree_4_3_u07_r9_network.node[37].core_layer 	interests[37] 	13760
scalar tree_4_3_u07_r9_network.node[37].core_layer 	data[37] 	10088
scalar tree_4_3_u07_r9_network.node[37].content_store 	p_hit[37] 	0.26686046511628
scalar tree_4_3_u07_r9_network.node[37].content_store 	hits[37] 	3672
scalar tree_4_3_u07_r9_network.node[37].content_store 	misses[37] 	10088
scalar tree_4_3_u07_r9_network.node[37].content_store 	decision_yes[37] 	10088
scalar tree_4_3_u07_r9_network.node[37].content_store 	decision_no[37] 	0
scalar tree_4_3_u07_r9_network.node[37].content_store 	decision_ratio[37] 	1
scalar tree_4_3_u07_r9_network.node[38].core_layer 	interests[38] 	13986
scalar tree_4_3_u07_r9_network.node[38].core_layer 	data[38] 	10042
scalar tree_4_3_u07_r9_network.node[38].content_store 	p_hit[38] 	0.28192478192478
scalar tree_4_3_u07_r9_network.node[38].content_store 	hits[38] 	3943
scalar tree_4_3_u07_r9_network.node[38].content_store 	misses[38] 	10043
scalar tree_4_3_u07_r9_network.node[38].content_store 	decision_yes[38] 	10042
scalar tree_4_3_u07_r9_network.node[38].content_store 	decision_no[38] 	0
scalar tree_4_3_u07_r9_network.node[38].content_store 	decision_ratio[38] 	1
scalar tree_4_3_u07_r9_network.node[39].core_layer 	interests[39] 	12227
scalar tree_4_3_u07_r9_network.node[39].core_layer 	data[39] 	10106
scalar tree_4_3_u07_r9_network.node[39].content_store 	p_hit[39] 	0.17346855320193
scalar tree_4_3_u07_r9_network.node[39].content_store 	hits[39] 	2121
scalar tree_4_3_u07_r9_network.node[39].content_store 	misses[39] 	10106
scalar tree_4_3_u07_r9_network.node[39].content_store 	decision_yes[39] 	10106
scalar tree_4_3_u07_r9_network.node[39].content_store 	decision_no[39] 	0
scalar tree_4_3_u07_r9_network.node[39].content_store 	decision_ratio[39] 	1
scalar tree_4_3_u07_r9_network.client[13] 	hdistance[13] 	3.1191882225734
scalar tree_4_3_u07_r9_network.client[13] 	downloads[13] 	12023
scalar tree_4_3_u07_r9_network.client[13] 	avg_time[13] 	0.00486666919
scalar tree_4_3_u07_r9_network.client[14] 	hdistance[14] 	2.9841506928886
scalar tree_4_3_u07_r9_network.client[14] 	downloads[14] 	12051
scalar tree_4_3_u07_r9_network.client[14] 	avg_time[14] 	0.004710975319
scalar tree_4_3_u07_r9_network.client[15] 	hdistance[15] 	2.9429912810195
scalar tree_4_3_u07_r9_network.client[15] 	downloads[15] 	11928
scalar tree_4_3_u07_r9_network.client[15] 	avg_time[15] 	0.00468109907
scalar tree_4_3_u07_r9_network.client[16] 	hdistance[16] 	2.9776466677746
scalar tree_4_3_u07_r9_network.client[16] 	downloads[16] 	12034
scalar tree_4_3_u07_r9_network.client[16] 	avg_time[16] 	0.004710858402
scalar tree_4_3_u07_r9_network.client[17] 	hdistance[17] 	3.0818309047501
scalar tree_4_3_u07_r9_network.client[17] 	downloads[17] 	12147
scalar tree_4_3_u07_r9_network.client[17] 	avg_time[17] 	0.004914073363
scalar tree_4_3_u07_r9_network.client[18] 	hdistance[18] 	2.9480508616363
scalar tree_4_3_u07_r9_network.client[18] 	downloads[18] 	11954
scalar tree_4_3_u07_r9_network.client[18] 	avg_time[18] 	0.00470091497
scalar tree_4_3_u07_r9_network.client[19] 	hdistance[19] 	2.9735023041475
scalar tree_4_3_u07_r9_network.client[19] 	downloads[19] 	12152
scalar tree_4_3_u07_r9_network.client[19] 	avg_time[19] 	0.00472118975
scalar tree_4_3_u07_r9_network.client[20] 	hdistance[20] 	3.0492553457026
scalar tree_4_3_u07_r9_network.client[20] 	downloads[20] 	12019
scalar tree_4_3_u07_r9_network.client[20] 	avg_time[20] 	0.004874038369
scalar tree_4_3_u07_r9_network.client[21] 	hdistance[21] 	3.0274693642569
scalar tree_4_3_u07_r9_network.client[21] 	downloads[21] 	12159
scalar tree_4_3_u07_r9_network.client[21] 	avg_time[21] 	0.004842810961
scalar tree_4_3_u07_r9_network.client[22] 	hdistance[22] 	3.160265011741
scalar tree_4_3_u07_r9_network.client[22] 	downloads[22] 	11924
scalar tree_4_3_u07_r9_network.client[22] 	avg_time[22] 	0.005011584612
scalar tree_4_3_u07_r9_network.client[23] 	hdistance[23] 	3.0299525750894
scalar tree_4_3_u07_r9_network.client[23] 	downloads[23] 	12019
scalar tree_4_3_u07_r9_network.client[23] 	avg_time[23] 	0.004745483354
scalar tree_4_3_u07_r9_network.client[24] 	hdistance[24] 	2.9708585147777
scalar tree_4_3_u07_r9_network.client[24] 	downloads[24] 	12079
scalar tree_4_3_u07_r9_network.client[24] 	avg_time[24] 	0.004738732136
scalar tree_4_3_u07_r9_network.client[25] 	hdistance[25] 	3.0689056166763
scalar tree_4_3_u07_r9_network.client[25] 	downloads[25] 	12089
scalar tree_4_3_u07_r9_network.client[25] 	avg_time[25] 	0.004838522036
scalar tree_4_3_u07_r9_network.client[26] 	hdistance[26] 	3.0846905537459
scalar tree_4_3_u07_r9_network.client[26] 	downloads[26] 	11973
scalar tree_4_3_u07_r9_network.client[26] 	avg_time[26] 	0.004859982792
scalar tree_4_3_u07_r9_network.client[27] 	hdistance[27] 	2.938785792258
scalar tree_4_3_u07_r9_network.client[27] 	downloads[27] 	11909
scalar tree_4_3_u07_r9_network.client[27] 	avg_time[27] 	0.004683177784
scalar tree_4_3_u07_r9_network.client[28] 	hdistance[28] 	3.0275540483256
scalar tree_4_3_u07_r9_network.client[28] 	downloads[28] 	11795
scalar tree_4_3_u07_r9_network.client[28] 	avg_time[28] 	0.00485797457
scalar tree_4_3_u07_r9_network.client[29] 	hdistance[29] 	2.9423285273773
scalar tree_4_3_u07_r9_network.client[29] 	downloads[29] 	11999
scalar tree_4_3_u07_r9_network.client[29] 	avg_time[29] 	0.004692721403
scalar tree_4_3_u07_r9_network.client[30] 	hdistance[30] 	3.0431666807183
scalar tree_4_3_u07_r9_network.client[30] 	downloads[30] 	11861
scalar tree_4_3_u07_r9_network.client[30] 	avg_time[30] 	0.004882553297
scalar tree_4_3_u07_r9_network.client[31] 	hdistance[31] 	3.0570928488081
scalar tree_4_3_u07_r9_network.client[31] 	downloads[31] 	11998
scalar tree_4_3_u07_r9_network.client[31] 	avg_time[31] 	0.004863251153
scalar tree_4_3_u07_r9_network.client[32] 	hdistance[32] 	3.0121527777778
scalar tree_4_3_u07_r9_network.client[32] 	downloads[32] 	12096
scalar tree_4_3_u07_r9_network.client[32] 	avg_time[32] 	0.004759586924
scalar tree_4_3_u07_r9_network.client[33] 	hdistance[33] 	2.9857718562382
scalar tree_4_3_u07_r9_network.client[33] 	downloads[33] 	12159
scalar tree_4_3_u07_r9_network.client[33] 	avg_time[33] 	0.00473147158
scalar tree_4_3_u07_r9_network.client[34] 	hdistance[34] 	2.973778406726
scalar tree_4_3_u07_r9_network.client[34] 	downloads[34] 	12013
scalar tree_4_3_u07_r9_network.client[34] 	avg_time[34] 	0.004709073893
scalar tree_4_3_u07_r9_network.client[35] 	hdistance[35] 	3.0543919198609
scalar tree_4_3_u07_r9_network.client[35] 	downloads[35] 	12079
scalar tree_4_3_u07_r9_network.client[35] 	avg_time[35] 	0.004867789679
scalar tree_4_3_u07_r9_network.client[36] 	hdistance[36] 	3.0924334695921
scalar tree_4_3_u07_r9_network.client[36] 	downloads[36] 	11987
scalar tree_4_3_u07_r9_network.client[36] 	avg_time[36] 	0.00492665434
scalar tree_4_3_u07_r9_network.client[37] 	hdistance[37] 	2.9803774839943
scalar tree_4_3_u07_r9_network.client[37] 	downloads[37] 	12027
scalar tree_4_3_u07_r9_network.client[37] 	avg_time[37] 	0.004719194187
scalar tree_4_3_u07_r9_network.client[38] 	hdistance[38] 	2.9698232744248
scalar tree_4_3_u07_r9_network.client[38] 	downloads[38] 	11996
scalar tree_4_3_u07_r9_network.client[38] 	avg_time[38] 	0.004695261283
scalar tree_4_3_u07_r9_network.client[39] 	hdistance[39] 	3.0905981479937
scalar tree_4_3_u07_r9_network.client[39] 	downloads[39] 	11987
scalar tree_4_3_u07_r9_network.client[39] 	avg_time[39] 	0.004937343515
