version 2
run General-158-20160819-17:30:03-23511
attr a 0.9
attr cd lce
attr configname General
attr cr lru
attr datetime 20160819-17:30:03
attr experiment General
attr fsize 1
attr inifile hw5115/scenario_A/NRR-LCE.ini
attr iterationvars "$name=tree_4_3, $un=07, $rep=19, $cd=lce, $cr=lru, $fsize=1, $a=0.9, $sl=nrr, $ttl=1000, $variance=0.05"
attr iterationvars2 "$name=tree_4_3, $un=07, $rep=19, $cd=lce, $cr=lru, $fsize=1, $a=0.9, $sl=nrr, $ttl=1000, $variance=0.05, $repetition=0"
attr measurement "$name=tree_4_3, $un=07, $rep=19, $cd=lce, $cr=lru, $fsize=1, $a=0.9, $sl=nrr, $ttl=1000, $variance=0.05"
attr name tree_4_3
attr network networks.${name}_u${un}_r${rep}_network
attr processid 23511
attr rep 19
attr repetition 0
attr replication #0
attr resultdir results
attr runnumber 158
attr seedset 19
attr sl nrr
attr ttl 1000
attr un 07
attr variance 0.05

scalar . 	a 	0.9
scalar . 	fsize 	1
scalar . 	rep 	19
scalar . 	ttl 	1000
scalar . 	un 	07
scalar . 	variance 	0.05
scalar tree_4_3_u07_r19_network.content_distribution 	repo-0 	0
scalar tree_4_3_u07_r19_network.content_distribution 	client-0 	13
scalar tree_4_3_u07_r19_network.content_distribution 	client-1 	14
scalar tree_4_3_u07_r19_network.content_distribution 	client-2 	15
scalar tree_4_3_u07_r19_network.content_distribution 	client-3 	16
scalar tree_4_3_u07_r19_network.content_distribution 	client-4 	17
scalar tree_4_3_u07_r19_network.content_distribution 	client-5 	18
scalar tree_4_3_u07_r19_network.content_distribution 	client-6 	19
scalar tree_4_3_u07_r19_network.content_distribution 	client-7 	20
scalar tree_4_3_u07_r19_network.content_distribution 	client-8 	21
scalar tree_4_3_u07_r19_network.content_distribution 	client-9 	22
scalar tree_4_3_u07_r19_network.content_distribution 	client-10 	23
scalar tree_4_3_u07_r19_network.content_distribution 	client-11 	24
scalar tree_4_3_u07_r19_network.content_distribution 	client-12 	25
scalar tree_4_3_u07_r19_network.content_distribution 	client-13 	26
scalar tree_4_3_u07_r19_network.content_distribution 	client-14 	27
scalar tree_4_3_u07_r19_network.content_distribution 	client-15 	28
scalar tree_4_3_u07_r19_network.content_distribution 	client-16 	29
scalar tree_4_3_u07_r19_network.content_distribution 	client-17 	30
scalar tree_4_3_u07_r19_network.content_distribution 	client-18 	31
scalar tree_4_3_u07_r19_network.content_distribution 	client-19 	32
scalar tree_4_3_u07_r19_network.content_distribution 	client-20 	33
scalar tree_4_3_u07_r19_network.content_distribution 	client-21 	34
scalar tree_4_3_u07_r19_network.content_distribution 	client-22 	35
scalar tree_4_3_u07_r19_network.content_distribution 	client-23 	36
scalar tree_4_3_u07_r19_network.content_distribution 	client-24 	37
scalar tree_4_3_u07_r19_network.content_distribution 	client-25 	38
scalar tree_4_3_u07_r19_network.content_distribution 	client-26 	39
scalar tree_4_3_u07_r19_network.content_distribution 	repo-0_card 	100000
scalar tree_4_3_u07_r19_network.content_distribution 	repo-0_price 	0
scalar tree_4_3_u07_r19_network.statistics 	stabilization_time 	412.6
scalar tree_4_3_u07_r19_network.statistics 	p_hit 	0.20023979759938
scalar tree_4_3_u07_r19_network.statistics 	interests 	27582.55
scalar tree_4_3_u07_r19_network.statistics 	data 	19497.375
scalar tree_4_3_u07_r19_network.statistics 	hdistance 	3.0139284829109
scalar tree_4_3_u07_r19_network.statistics 	avg_time 	0.004822817331
scalar tree_4_3_u07_r19_network.statistics 	downloads 	323389
scalar tree_4_3_u07_r19_network.statistics 	total_cost 	0
scalar tree_4_3_u07_r19_network.statistics 	total_replicas 	100000
scalar tree_4_3_u07_r19_network.statistics 	inner_hit 	0.39745012971993
scalar tree_4_3_u07_r19_network.node[0].core_layer 	interests[0] 	195336
scalar tree_4_3_u07_r19_network.node[0].core_layer 	repo_load[0] 	194858
scalar tree_4_3_u07_r19_network.node[0].core_layer 	data[0] 	0
scalar tree_4_3_u07_r19_network.node[0].core_layer 	repo_int[0] 	194858
scalar tree_4_3_u07_r19_network.node[0].content_store 	p_hit[0] 	0.0024470655690707
scalar tree_4_3_u07_r19_network.node[0].content_store 	hits[0] 	478
scalar tree_4_3_u07_r19_network.node[0].content_store 	misses[0] 	194858
scalar tree_4_3_u07_r19_network.node[0].content_store 	decision_yes[0] 	194858
scalar tree_4_3_u07_r19_network.node[0].content_store 	decision_no[0] 	0
scalar tree_4_3_u07_r19_network.node[0].content_store 	decision_ratio[0] 	1
scalar tree_4_3_u07_r19_network.node[1].core_layer 	interests[1] 	128760
scalar tree_4_3_u07_r19_network.node[1].core_layer 	data[1] 	127590
scalar tree_4_3_u07_r19_network.node[1].content_store 	p_hit[1] 	0.0090556073314694
scalar tree_4_3_u07_r19_network.node[1].content_store 	hits[1] 	1166
scalar tree_4_3_u07_r19_network.node[1].content_store 	misses[1] 	127594
scalar tree_4_3_u07_r19_network.node[1].content_store 	decision_yes[1] 	127575
scalar tree_4_3_u07_r19_network.node[1].content_store 	decision_no[1] 	0
scalar tree_4_3_u07_r19_network.node[1].content_store 	decision_ratio[1] 	1
scalar tree_4_3_u07_r19_network.node[2].core_layer 	interests[2] 	77478
scalar tree_4_3_u07_r19_network.node[2].core_layer 	data[2] 	76046
scalar tree_4_3_u07_r19_network.node[2].content_store 	p_hit[2] 	0.018443945378043
scalar tree_4_3_u07_r19_network.node[2].content_store 	hits[2] 	1429
scalar tree_4_3_u07_r19_network.node[2].content_store 	misses[2] 	76049
scalar tree_4_3_u07_r19_network.node[2].content_store 	decision_yes[2] 	76038
scalar tree_4_3_u07_r19_network.node[2].content_store 	decision_no[2] 	0
scalar tree_4_3_u07_r19_network.node[2].content_store 	decision_ratio[2] 	1
scalar tree_4_3_u07_r19_network.node[3].core_layer 	interests[3] 	28838
scalar tree_4_3_u07_r19_network.node[3].core_layer 	data[3] 	25597
scalar tree_4_3_u07_r19_network.node[3].content_store 	p_hit[3] 	0.1123864345655
scalar tree_4_3_u07_r19_network.node[3].content_store 	hits[3] 	3241
scalar tree_4_3_u07_r19_network.node[3].content_store 	misses[3] 	25597
scalar tree_4_3_u07_r19_network.node[3].content_store 	decision_yes[3] 	25594
scalar tree_4_3_u07_r19_network.node[3].content_store 	decision_no[3] 	0
scalar tree_4_3_u07_r19_network.node[3].content_store 	decision_ratio[3] 	1
scalar tree_4_3_u07_r19_network.node[4].core_layer 	interests[4] 	47380
scalar tree_4_3_u07_r19_network.node[4].core_layer 	data[4] 	45573
scalar tree_4_3_u07_r19_network.node[4].content_store 	p_hit[4] 	0.038054031236809
scalar tree_4_3_u07_r19_network.node[4].content_store 	hits[4] 	1803
scalar tree_4_3_u07_r19_network.node[4].content_store 	misses[4] 	45577
scalar tree_4_3_u07_r19_network.node[4].content_store 	decision_yes[4] 	45571
scalar tree_4_3_u07_r19_network.node[4].content_store 	decision_no[4] 	0
scalar tree_4_3_u07_r19_network.node[4].content_store 	decision_ratio[4] 	1
scalar tree_4_3_u07_r19_network.node[5].core_layer 	interests[5] 	27205
scalar tree_4_3_u07_r19_network.node[5].core_layer 	data[5] 	23343
scalar tree_4_3_u07_r19_network.node[5].content_store 	p_hit[5] 	0.14195919867671
scalar tree_4_3_u07_r19_network.node[5].content_store 	hits[5] 	3862
scalar tree_4_3_u07_r19_network.node[5].content_store 	misses[5] 	23343
scalar tree_4_3_u07_r19_network.node[5].content_store 	decision_yes[5] 	23340
scalar tree_4_3_u07_r19_network.node[5].content_store 	decision_no[5] 	0
scalar tree_4_3_u07_r19_network.node[5].content_store 	decision_ratio[5] 	1
scalar tree_4_3_u07_r19_network.node[6].core_layer 	interests[6] 	27717
scalar tree_4_3_u07_r19_network.node[6].core_layer 	data[6] 	23963
scalar tree_4_3_u07_r19_network.node[6].content_store 	p_hit[6] 	0.13536818559007
scalar tree_4_3_u07_r19_network.node[6].content_store 	hits[6] 	3752
scalar tree_4_3_u07_r19_network.node[6].content_store 	misses[6] 	23965
scalar tree_4_3_u07_r19_network.node[6].content_store 	decision_yes[6] 	23960
scalar tree_4_3_u07_r19_network.node[6].content_store 	decision_no[6] 	0
scalar tree_4_3_u07_r19_network.node[6].content_store 	decision_ratio[6] 	1
scalar tree_4_3_u07_r19_network.node[7].core_layer 	interests[7] 	42445
scalar tree_4_3_u07_r19_network.node[7].core_layer 	data[7] 	39870
scalar tree_4_3_u07_r19_network.node[7].content_store 	p_hit[7] 	0.060643185298622
scalar tree_4_3_u07_r19_network.node[7].content_store 	hits[7] 	2574
scalar tree_4_3_u07_r19_network.node[7].content_store 	misses[7] 	39871
scalar tree_4_3_u07_r19_network.node[7].content_store 	decision_yes[7] 	39866
scalar tree_4_3_u07_r19_network.node[7].content_store 	decision_no[7] 	0
scalar tree_4_3_u07_r19_network.node[7].content_store 	decision_ratio[7] 	1
scalar tree_4_3_u07_r19_network.node[8].core_layer 	interests[8] 	21436
scalar tree_4_3_u07_r19_network.node[8].core_layer 	data[8] 	19413
scalar tree_4_3_u07_r19_network.node[8].content_store 	p_hit[8] 	0.094327299869379
scalar tree_4_3_u07_r19_network.node[8].content_store 	hits[8] 	2022
scalar tree_4_3_u07_r19_network.node[8].content_store 	misses[8] 	19414
scalar tree_4_3_u07_r19_network.node[8].content_store 	decision_yes[8] 	19411
scalar tree_4_3_u07_r19_network.node[8].content_store 	decision_no[8] 	0
scalar tree_4_3_u07_r19_network.node[8].content_store 	decision_ratio[8] 	1
scalar tree_4_3_u07_r19_network.node[9].core_layer 	interests[9] 	37710
scalar tree_4_3_u07_r19_network.node[9].core_layer 	data[9] 	33798
scalar tree_4_3_u07_r19_network.node[9].content_store 	p_hit[9] 	0.10363298859719
scalar tree_4_3_u07_r19_network.node[9].content_store 	hits[9] 	3908
scalar tree_4_3_u07_r19_network.node[9].content_store 	misses[9] 	33802
scalar tree_4_3_u07_r19_network.node[9].content_store 	decision_yes[9] 	33795
scalar tree_4_3_u07_r19_network.node[9].content_store 	decision_no[9] 	0
scalar tree_4_3_u07_r19_network.node[9].content_store 	decision_ratio[9] 	1
scalar tree_4_3_u07_r19_network.node[10].core_layer 	interests[10] 	33405
scalar tree_4_3_u07_r19_network.node[10].core_layer 	data[10] 	30816
scalar tree_4_3_u07_r19_network.node[10].content_store 	p_hit[10] 	0.077503367759317
scalar tree_4_3_u07_r19_network.node[10].content_store 	hits[10] 	2589
scalar tree_4_3_u07_r19_network.node[10].content_store 	misses[10] 	30816
scalar tree_4_3_u07_r19_network.node[10].content_store 	decision_yes[10] 	30810
scalar tree_4_3_u07_r19_network.node[10].content_store 	decision_no[10] 	0
scalar tree_4_3_u07_r19_network.node[10].content_store 	decision_ratio[10] 	1
scalar tree_4_3_u07_r19_network.node[11].core_layer 	interests[11] 	43408
scalar tree_4_3_u07_r19_network.node[11].core_layer 	data[11] 	40900
scalar tree_4_3_u07_r19_network.node[11].content_store 	p_hit[11] 	0.057731293770734
scalar tree_4_3_u07_r19_network.node[11].content_store 	hits[11] 	2506
scalar tree_4_3_u07_r19_network.node[11].content_store 	misses[11] 	40902
scalar tree_4_3_u07_r19_network.node[11].content_store 	decision_yes[11] 	40897
scalar tree_4_3_u07_r19_network.node[11].content_store 	decision_no[11] 	0
scalar tree_4_3_u07_r19_network.node[11].content_store 	decision_ratio[11] 	1
scalar tree_4_3_u07_r19_network.node[12].core_layer 	interests[12] 	24401
scalar tree_4_3_u07_r19_network.node[12].core_layer 	data[12] 	21777
scalar tree_4_3_u07_r19_network.node[12].content_store 	p_hit[12] 	0.10745461251588
scalar tree_4_3_u07_r19_network.node[12].content_store 	hits[12] 	2622
scalar tree_4_3_u07_r19_network.node[12].content_store 	misses[12] 	21779
scalar tree_4_3_u07_r19_network.node[12].content_store 	decision_yes[12] 	21777
scalar tree_4_3_u07_r19_network.node[12].content_store 	decision_no[12] 	0
scalar tree_4_3_u07_r19_network.node[12].content_store 	decision_ratio[12] 	1
scalar tree_4_3_u07_r19_network.node[13].core_layer 	interests[13] 	12956
scalar tree_4_3_u07_r19_network.node[13].core_layer 	data[13] 	9950
scalar tree_4_3_u07_r19_network.node[13].content_store 	p_hit[13] 	0.23201605433776
scalar tree_4_3_u07_r19_network.node[13].content_store 	hits[13] 	3006
scalar tree_4_3_u07_r19_network.node[13].content_store 	misses[13] 	9950
scalar tree_4_3_u07_r19_network.node[13].content_store 	decision_yes[13] 	9950
scalar tree_4_3_u07_r19_network.node[13].content_store 	decision_no[13] 	0
scalar tree_4_3_u07_r19_network.node[13].content_store 	decision_ratio[13] 	1
scalar tree_4_3_u07_r19_network.node[14].core_layer 	interests[14] 	14322
scalar tree_4_3_u07_r19_network.node[14].core_layer 	data[14] 	10069
scalar tree_4_3_u07_r19_network.node[14].content_store 	p_hit[14] 	0.29681608713867
scalar tree_4_3_u07_r19_network.node[14].content_store 	hits[14] 	4251
scalar tree_4_3_u07_r19_network.node[14].content_store 	misses[14] 	10071
scalar tree_4_3_u07_r19_network.node[14].content_store 	decision_yes[14] 	10069
scalar tree_4_3_u07_r19_network.node[14].content_store 	decision_no[14] 	0
scalar tree_4_3_u07_r19_network.node[14].content_store 	decision_ratio[14] 	1
scalar tree_4_3_u07_r19_network.node[15].core_layer 	interests[15] 	14354
scalar tree_4_3_u07_r19_network.node[15].core_layer 	data[15] 	10048
scalar tree_4_3_u07_r19_network.node[15].content_store 	p_hit[15] 	0.29991639960986
scalar tree_4_3_u07_r19_network.node[15].content_store 	hits[15] 	4305
scalar tree_4_3_u07_r19_network.node[15].content_store 	misses[15] 	10049
scalar tree_4_3_u07_r19_network.node[15].content_store 	decision_yes[15] 	10048
scalar tree_4_3_u07_r19_network.node[15].content_store 	decision_no[15] 	0
scalar tree_4_3_u07_r19_network.node[15].content_store 	decision_ratio[15] 	1
scalar tree_4_3_u07_r19_network.node[16].core_layer 	interests[16] 	14212
scalar tree_4_3_u07_r19_network.node[16].core_layer 	data[16] 	9965
scalar tree_4_3_u07_r19_network.node[16].content_store 	p_hit[16] 	0.29876160990712
scalar tree_4_3_u07_r19_network.node[16].content_store 	hits[16] 	4246
scalar tree_4_3_u07_r19_network.node[16].content_store 	misses[16] 	9966
scalar tree_4_3_u07_r19_network.node[16].content_store 	decision_yes[16] 	9965
scalar tree_4_3_u07_r19_network.node[16].content_store 	decision_no[16] 	0
scalar tree_4_3_u07_r19_network.node[16].content_store 	decision_ratio[16] 	1
scalar tree_4_3_u07_r19_network.node[17].core_layer 	interests[17] 	13019
scalar tree_4_3_u07_r19_network.node[17].core_layer 	data[17] 	9996
scalar tree_4_3_u07_r19_network.node[17].content_store 	p_hit[17] 	0.23219909363238
scalar tree_4_3_u07_r19_network.node[17].content_store 	hits[17] 	3023
scalar tree_4_3_u07_r19_network.node[17].content_store 	misses[17] 	9996
scalar tree_4_3_u07_r19_network.node[17].content_store 	decision_yes[17] 	9996
scalar tree_4_3_u07_r19_network.node[17].content_store 	decision_no[17] 	0
scalar tree_4_3_u07_r19_network.node[17].content_store 	decision_ratio[17] 	1
scalar tree_4_3_u07_r19_network.node[18].core_layer 	interests[18] 	13026
scalar tree_4_3_u07_r19_network.node[18].core_layer 	data[18] 	10013
scalar tree_4_3_u07_r19_network.node[18].content_store 	p_hit[18] 	0.23122984799632
scalar tree_4_3_u07_r19_network.node[18].content_store 	hits[18] 	3012
scalar tree_4_3_u07_r19_network.node[18].content_store 	misses[18] 	10014
scalar tree_4_3_u07_r19_network.node[18].content_store 	decision_yes[18] 	10013
scalar tree_4_3_u07_r19_network.node[18].content_store 	decision_no[18] 	0
scalar tree_4_3_u07_r19_network.node[18].content_store 	decision_ratio[18] 	1
scalar tree_4_3_u07_r19_network.node[19].core_layer 	interests[19] 	14489
scalar tree_4_3_u07_r19_network.node[19].core_layer 	data[19] 	10083
scalar tree_4_3_u07_r19_network.node[19].content_store 	p_hit[19] 	0.30409276002485
scalar tree_4_3_u07_r19_network.node[19].content_store 	hits[19] 	4406
scalar tree_4_3_u07_r19_network.node[19].content_store 	misses[19] 	10083
scalar tree_4_3_u07_r19_network.node[19].content_store 	decision_yes[19] 	10083
scalar tree_4_3_u07_r19_network.node[19].content_store 	decision_no[19] 	0
scalar tree_4_3_u07_r19_network.node[19].content_store 	decision_ratio[19] 	1
scalar tree_4_3_u07_r19_network.node[20].core_layer 	interests[20] 	13219
scalar tree_4_3_u07_r19_network.node[20].core_layer 	data[20] 	10103
scalar tree_4_3_u07_r19_network.node[20].content_store 	p_hit[20] 	0.23564566154777
scalar tree_4_3_u07_r19_network.node[20].content_store 	hits[20] 	3115
scalar tree_4_3_u07_r19_network.node[20].content_store 	misses[20] 	10104
scalar tree_4_3_u07_r19_network.node[20].content_store 	decision_yes[20] 	10103
scalar tree_4_3_u07_r19_network.node[20].content_store 	decision_no[20] 	0
scalar tree_4_3_u07_r19_network.node[20].content_store 	decision_ratio[20] 	1
scalar tree_4_3_u07_r19_network.node[21].core_layer 	interests[21] 	13194
scalar tree_4_3_u07_r19_network.node[21].core_layer 	data[21] 	9999
scalar tree_4_3_u07_r19_network.node[21].content_store 	p_hit[21] 	0.24207973321207
scalar tree_4_3_u07_r19_network.node[21].content_store 	hits[21] 	3194
scalar tree_4_3_u07_r19_network.node[21].content_store 	misses[21] 	10000
scalar tree_4_3_u07_r19_network.node[21].content_store 	decision_yes[21] 	9999
scalar tree_4_3_u07_r19_network.node[21].content_store 	decision_no[21] 	0
scalar tree_4_3_u07_r19_network.node[21].content_store 	decision_ratio[21] 	1
scalar tree_4_3_u07_r19_network.node[22].core_layer 	interests[22] 	13448
scalar tree_4_3_u07_r19_network.node[22].core_layer 	data[22] 	10187
scalar tree_4_3_u07_r19_network.node[22].content_store 	p_hit[22] 	0.24248958953004
scalar tree_4_3_u07_r19_network.node[22].content_store 	hits[22] 	3261
scalar tree_4_3_u07_r19_network.node[22].content_store 	misses[22] 	10187
scalar tree_4_3_u07_r19_network.node[22].content_store 	decision_yes[22] 	10187
scalar tree_4_3_u07_r19_network.node[22].content_store 	decision_no[22] 	0
scalar tree_4_3_u07_r19_network.node[22].content_store 	decision_ratio[22] 	1
scalar tree_4_3_u07_r19_network.node[23].core_layer 	interests[23] 	13981
scalar tree_4_3_u07_r19_network.node[23].core_layer 	data[23] 	10041
scalar tree_4_3_u07_r19_network.node[23].content_store 	p_hit[23] 	0.28188255489593
scalar tree_4_3_u07_r19_network.node[23].content_store 	hits[23] 	3941
scalar tree_4_3_u07_r19_network.node[23].content_store 	misses[23] 	10040
scalar tree_4_3_u07_r19_network.node[23].content_store 	decision_yes[23] 	10041
scalar tree_4_3_u07_r19_network.node[23].content_store 	decision_no[23] 	0
scalar tree_4_3_u07_r19_network.node[23].content_store 	decision_ratio[23] 	1
scalar tree_4_3_u07_r19_network.node[24].core_layer 	interests[24] 	14481
scalar tree_4_3_u07_r19_network.node[24].core_layer 	data[24] 	9928
scalar tree_4_3_u07_r19_network.node[24].content_store 	p_hit[24] 	0.31441198812237
scalar tree_4_3_u07_r19_network.node[24].content_store 	hits[24] 	4553
scalar tree_4_3_u07_r19_network.node[24].content_store 	misses[24] 	9928
scalar tree_4_3_u07_r19_network.node[24].content_store 	decision_yes[24] 	9928
scalar tree_4_3_u07_r19_network.node[24].content_store 	decision_no[24] 	0
scalar tree_4_3_u07_r19_network.node[24].content_store 	decision_ratio[24] 	1
scalar tree_4_3_u07_r19_network.node[25].core_layer 	interests[25] 	13942
scalar tree_4_3_u07_r19_network.node[25].core_layer 	data[25] 	10071
scalar tree_4_3_u07_r19_network.node[25].content_store 	p_hit[25] 	0.27765026538517
scalar tree_4_3_u07_r19_network.node[25].content_store 	hits[25] 	3871
scalar tree_4_3_u07_r19_network.node[25].content_store 	misses[25] 	10071
scalar tree_4_3_u07_r19_network.node[25].content_store 	decision_yes[25] 	10071
scalar tree_4_3_u07_r19_network.node[25].content_store 	decision_no[25] 	0
scalar tree_4_3_u07_r19_network.node[25].content_store 	decision_ratio[25] 	1
scalar tree_4_3_u07_r19_network.node[26].core_layer 	interests[26] 	12684
scalar tree_4_3_u07_r19_network.node[26].core_layer 	data[26] 	10194
scalar tree_4_3_u07_r19_network.node[26].content_store 	p_hit[26] 	0.19623147272154
scalar tree_4_3_u07_r19_network.node[26].content_store 	hits[26] 	2489
scalar tree_4_3_u07_r19_network.node[26].content_store 	misses[26] 	10195
scalar tree_4_3_u07_r19_network.node[26].content_store 	decision_yes[26] 	10194
scalar tree_4_3_u07_r19_network.node[26].content_store 	decision_no[26] 	0
scalar tree_4_3_u07_r19_network.node[26].content_store 	decision_ratio[26] 	1
scalar tree_4_3_u07_r19_network.node[27].core_layer 	interests[27] 	14450
scalar tree_4_3_u07_r19_network.node[27].core_layer 	data[27] 	10032
scalar tree_4_3_u07_r19_network.node[27].content_store 	p_hit[27] 	0.30574394463668
scalar tree_4_3_u07_r19_network.node[27].content_store 	hits[27] 	4418
scalar tree_4_3_u07_r19_network.node[27].content_store 	misses[27] 	10032
scalar tree_4_3_u07_r19_network.node[27].content_store 	decision_yes[27] 	10032
scalar tree_4_3_u07_r19_network.node[27].content_store 	decision_no[27] 	0
scalar tree_4_3_u07_r19_network.node[27].content_store 	decision_ratio[27] 	1
scalar tree_4_3_u07_r19_network.node[28].core_layer 	interests[28] 	13246
scalar tree_4_3_u07_r19_network.node[28].core_layer 	data[28] 	9928
scalar tree_4_3_u07_r19_network.node[28].content_store 	p_hit[28] 	0.25041521968896
scalar tree_4_3_u07_r19_network.node[28].content_store 	hits[28] 	3317
scalar tree_4_3_u07_r19_network.node[28].content_store 	misses[28] 	9929
scalar tree_4_3_u07_r19_network.node[28].content_store 	decision_yes[28] 	9928
scalar tree_4_3_u07_r19_network.node[28].content_store 	decision_no[28] 	0
scalar tree_4_3_u07_r19_network.node[28].content_store 	decision_ratio[28] 	1
scalar tree_4_3_u07_r19_network.node[29].core_layer 	interests[29] 	13314
scalar tree_4_3_u07_r19_network.node[29].core_layer 	data[29] 	9981
scalar tree_4_3_u07_r19_network.node[29].content_store 	p_hit[29] 	0.25033799008562
scalar tree_4_3_u07_r19_network.node[29].content_store 	hits[29] 	3333
scalar tree_4_3_u07_r19_network.node[29].content_store 	misses[29] 	9981
scalar tree_4_3_u07_r19_network.node[29].content_store 	decision_yes[29] 	9981
scalar tree_4_3_u07_r19_network.node[29].content_store 	decision_no[29] 	0
scalar tree_4_3_u07_r19_network.node[29].content_store 	decision_ratio[29] 	1
scalar tree_4_3_u07_r19_network.node[30].core_layer 	interests[30] 	13402
scalar tree_4_3_u07_r19_network.node[30].core_layer 	data[30] 	9980
scalar tree_4_3_u07_r19_network.node[30].content_store 	p_hit[30] 	0.25526040889419
scalar tree_4_3_u07_r19_network.node[30].content_store 	hits[30] 	3421
scalar tree_4_3_u07_r19_network.node[30].content_store 	misses[30] 	9981
scalar tree_4_3_u07_r19_network.node[30].content_store 	decision_yes[30] 	9980
scalar tree_4_3_u07_r19_network.node[30].content_store 	decision_no[30] 	0
scalar tree_4_3_u07_r19_network.node[30].content_store 	decision_ratio[30] 	1
scalar tree_4_3_u07_r19_network.node[31].core_layer 	interests[31] 	13322
scalar tree_4_3_u07_r19_network.node[31].core_layer 	data[31] 	10120
scalar tree_4_3_u07_r19_network.node[31].content_store 	p_hit[31] 	0.24035430115598
scalar tree_4_3_u07_r19_network.node[31].content_store 	hits[31] 	3202
scalar tree_4_3_u07_r19_network.node[31].content_store 	misses[31] 	10120
scalar tree_4_3_u07_r19_network.node[31].content_store 	decision_yes[31] 	10120
scalar tree_4_3_u07_r19_network.node[31].content_store 	decision_no[31] 	0
scalar tree_4_3_u07_r19_network.node[31].content_store 	decision_ratio[31] 	1
scalar tree_4_3_u07_r19_network.node[32].core_layer 	interests[32] 	13298
scalar tree_4_3_u07_r19_network.node[32].core_layer 	data[32] 	10140
scalar tree_4_3_u07_r19_network.node[32].content_store 	p_hit[32] 	0.23740412092044
scalar tree_4_3_u07_r19_network.node[32].content_store 	hits[32] 	3157
scalar tree_4_3_u07_r19_network.node[32].content_store 	misses[32] 	10141
scalar tree_4_3_u07_r19_network.node[32].content_store 	decision_yes[32] 	10140
scalar tree_4_3_u07_r19_network.node[32].content_store 	decision_no[32] 	0
scalar tree_4_3_u07_r19_network.node[32].content_store 	decision_ratio[32] 	1
scalar tree_4_3_u07_r19_network.node[33].core_layer 	interests[33] 	14252
scalar tree_4_3_u07_r19_network.node[33].core_layer 	data[33] 	9934
scalar tree_4_3_u07_r19_network.node[33].content_store 	p_hit[33] 	0.30297502104968
scalar tree_4_3_u07_r19_network.node[33].content_store 	hits[33] 	4318
scalar tree_4_3_u07_r19_network.node[33].content_store 	misses[33] 	9934
scalar tree_4_3_u07_r19_network.node[33].content_store 	decision_yes[33] 	9934
scalar tree_4_3_u07_r19_network.node[33].content_store 	decision_no[33] 	0
scalar tree_4_3_u07_r19_network.node[33].content_store 	decision_ratio[33] 	1
scalar tree_4_3_u07_r19_network.node[34].core_layer 	interests[34] 	13571
scalar tree_4_3_u07_r19_network.node[34].core_layer 	data[34] 	10281
scalar tree_4_3_u07_r19_network.node[34].content_store 	p_hit[34] 	0.242428708275
scalar tree_4_3_u07_r19_network.node[34].content_store 	hits[34] 	3290
scalar tree_4_3_u07_r19_network.node[34].content_store 	misses[34] 	10281
scalar tree_4_3_u07_r19_network.node[34].content_store 	decision_yes[34] 	10281
scalar tree_4_3_u07_r19_network.node[34].content_store 	decision_no[34] 	0
scalar tree_4_3_u07_r19_network.node[34].content_store 	decision_ratio[34] 	1
scalar tree_4_3_u07_r19_network.node[35].core_layer 	interests[35] 	13410
scalar tree_4_3_u07_r19_network.node[35].core_layer 	data[35] 	10066
scalar tree_4_3_u07_r19_network.node[35].content_store 	p_hit[35] 	0.24921700223714
scalar tree_4_3_u07_r19_network.node[35].content_store 	hits[35] 	3342
scalar tree_4_3_u07_r19_network.node[35].content_store 	misses[35] 	10068
scalar tree_4_3_u07_r19_network.node[35].content_store 	decision_yes[35] 	10066
scalar tree_4_3_u07_r19_network.node[35].content_store 	decision_no[35] 	0
scalar tree_4_3_u07_r19_network.node[35].content_store 	decision_ratio[35] 	1
scalar tree_4_3_u07_r19_network.node[36].core_layer 	interests[36] 	14256
scalar tree_4_3_u07_r19_network.node[36].core_layer 	data[36] 	9958
scalar tree_4_3_u07_r19_network.node[36].content_store 	p_hit[36] 	0.30141694725028
scalar tree_4_3_u07_r19_network.node[36].content_store 	hits[36] 	4297
scalar tree_4_3_u07_r19_network.node[36].content_store 	misses[36] 	9959
scalar tree_4_3_u07_r19_network.node[36].content_store 	decision_yes[36] 	9958
scalar tree_4_3_u07_r19_network.node[36].content_store 	decision_no[36] 	0
scalar tree_4_3_u07_r19_network.node[36].content_store 	decision_ratio[36] 	1
scalar tree_4_3_u07_r19_network.node[37].core_layer 	interests[37] 	12879
scalar tree_4_3_u07_r19_network.node[37].core_layer 	data[37] 	10142
scalar tree_4_3_u07_r19_network.node[37].content_store 	p_hit[37] 	0.21243885394829
scalar tree_4_3_u07_r19_network.node[37].content_store 	hits[37] 	2736
scalar tree_4_3_u07_r19_network.node[37].content_store 	misses[37] 	10143
scalar tree_4_3_u07_r19_network.node[37].content_store 	decision_yes[37] 	10142
scalar tree_4_3_u07_r19_network.node[37].content_store 	decision_no[37] 	0
scalar tree_4_3_u07_r19_network.node[37].content_store 	decision_ratio[37] 	1
scalar tree_4_3_u07_r19_network.node[38].core_layer 	interests[38] 	14221
scalar tree_4_3_u07_r19_network.node[38].core_layer 	data[38] 	9940
scalar tree_4_3_u07_r19_network.node[38].content_store 	p_hit[38] 	0.3009633640391
scalar tree_4_3_u07_r19_network.node[38].content_store 	hits[38] 	4280
scalar tree_4_3_u07_r19_network.node[38].content_store 	misses[38] 	9941
scalar tree_4_3_u07_r19_network.node[38].content_store 	decision_yes[38] 	9940
scalar tree_4_3_u07_r19_network.node[38].content_store 	decision_no[38] 	0
scalar tree_4_3_u07_r19_network.node[38].content_store 	decision_ratio[38] 	1
scalar tree_4_3_u07_r19_network.node[39].core_layer 	interests[39] 	12835
scalar tree_4_3_u07_r19_network.node[39].core_layer 	data[39] 	10060
scalar tree_4_3_u07_r19_network.node[39].content_store 	p_hit[39] 	0.21620568757304
scalar tree_4_3_u07_r19_network.node[39].content_store 	hits[39] 	2775
scalar tree_4_3_u07_r19_network.node[39].content_store 	misses[39] 	10060
scalar tree_4_3_u07_r19_network.node[39].content_store 	decision_yes[39] 	10060
scalar tree_4_3_u07_r19_network.node[39].content_store 	decision_no[39] 	0
scalar tree_4_3_u07_r19_network.node[39].content_store 	decision_ratio[39] 	1
scalar tree_4_3_u07_r19_network.client[13] 	hdistance[13] 	3.0617555123764
scalar tree_4_3_u07_r19_network.client[13] 	downloads[13] 	11837
scalar tree_4_3_u07_r19_network.client[13] 	avg_time[13] 	0.004862648044
scalar tree_4_3_u07_r19_network.client[14] 	hdistance[14] 	2.9424049059418
scalar tree_4_3_u07_r19_network.client[14] 	downloads[14] 	12067
scalar tree_4_3_u07_r19_network.client[14] 	avg_time[14] 	0.004695667031
scalar tree_4_3_u07_r19_network.client[15] 	hdistance[15] 	2.9702689159846
scalar tree_4_3_u07_r19_network.client[15] 	downloads[15] 	11974
scalar tree_4_3_u07_r19_network.client[15] 	avg_time[15] 	0.00473133194
scalar tree_4_3_u07_r19_network.client[16] 	hdistance[16] 	2.9633104372592
scalar tree_4_3_u07_r19_network.client[16] 	downloads[16] 	11938
scalar tree_4_3_u07_r19_network.client[16] 	avg_time[16] 	0.004728740666
scalar tree_4_3_u07_r19_network.client[17] 	hdistance[17] 	3.0486210076285
scalar tree_4_3_u07_r19_network.client[17] 	downloads[17] 	11929
scalar tree_4_3_u07_r19_network.client[17] 	avg_time[17] 	0.004897138434
scalar tree_4_3_u07_r19_network.client[18] 	hdistance[18] 	3.0492904525989
scalar tree_4_3_u07_r19_network.client[18] 	downloads[18] 	11909
scalar tree_4_3_u07_r19_network.client[18] 	avg_time[18] 	0.004895188957
scalar tree_4_3_u07_r19_network.client[19] 	hdistance[19] 	2.9559966914806
scalar tree_4_3_u07_r19_network.client[19] 	downloads[19] 	12090
scalar tree_4_3_u07_r19_network.client[19] 	avg_time[19] 	0.00471875443
scalar tree_4_3_u07_r19_network.client[20] 	hdistance[20] 	3.0377890113533
scalar tree_4_3_u07_r19_network.client[20] 	downloads[20] 	12067
scalar tree_4_3_u07_r19_network.client[20] 	avg_time[20] 	0.004882187065
scalar tree_4_3_u07_r19_network.client[21] 	hdistance[21] 	3.0113276694986
scalar tree_4_3_u07_r19_network.client[21] 	downloads[21] 	12006
scalar tree_4_3_u07_r19_network.client[21] 	avg_time[21] 	0.004848609118
scalar tree_4_3_u07_r19_network.client[22] 	hdistance[22] 	3.0547526633083
scalar tree_4_3_u07_r19_network.client[22] 	downloads[22] 	12109
scalar tree_4_3_u07_r19_network.client[22] 	avg_time[22] 	0.004910428108
scalar tree_4_3_u07_r19_network.client[23] 	hdistance[23] 	2.9674553756746
scalar tree_4_3_u07_r19_network.client[23] 	downloads[23] 	12045
scalar tree_4_3_u07_r19_network.client[23] 	avg_time[23] 	0.004740973319
scalar tree_4_3_u07_r19_network.client[24] 	hdistance[24] 	2.9479651408749
scalar tree_4_3_u07_r19_network.client[24] 	downloads[24] 	11819
scalar tree_4_3_u07_r19_network.client[24] 	avg_time[24] 	0.004695487364
scalar tree_4_3_u07_r19_network.client[25] 	hdistance[25] 	3.0109431125219
scalar tree_4_3_u07_r19_network.client[25] 	downloads[25] 	11971
scalar tree_4_3_u07_r19_network.client[25] 	avg_time[25] 	0.00480026435
scalar tree_4_3_u07_r19_network.client[26] 	hdistance[26] 	3.1067751577549
scalar tree_4_3_u07_r19_network.client[26] 	downloads[26] 	12044
scalar tree_4_3_u07_r19_network.client[26] 	avg_time[26] 	0.004953499756
scalar tree_4_3_u07_r19_network.client[27] 	hdistance[27] 	2.9538448721153
scalar tree_4_3_u07_r19_network.client[27] 	downloads[27] 	12003
scalar tree_4_3_u07_r19_network.client[27] 	avg_time[27] 	0.004706824525
scalar tree_4_3_u07_r19_network.client[28] 	hdistance[28] 	3.012524329356
scalar tree_4_3_u07_r19_network.client[28] 	downloads[28] 	11817
scalar tree_4_3_u07_r19_network.client[28] 	avg_time[28] 	0.004834388176
scalar tree_4_3_u07_r19_network.client[29] 	hdistance[29] 	3.0163011511638
scalar tree_4_3_u07_r19_network.client[29] 	downloads[29] 	11901
scalar tree_4_3_u07_r19_network.client[29] 	avg_time[29] 	0.004824969719
scalar tree_4_3_u07_r19_network.client[30] 	hdistance[30] 	2.9979063730006
scalar tree_4_3_u07_r19_network.client[30] 	downloads[30] 	11941
scalar tree_4_3_u07_r19_network.client[30] 	avg_time[30] 	0.004810921237
scalar tree_4_3_u07_r19_network.client[31] 	hdistance[31] 	3.0644867549669
scalar tree_4_3_u07_r19_network.client[31] 	downloads[31] 	12080
scalar tree_4_3_u07_r19_network.client[31] 	avg_time[31] 	0.004935427447
scalar tree_4_3_u07_r19_network.client[32] 	hdistance[32] 	3.0736920901605
scalar tree_4_3_u07_r19_network.client[32] 	downloads[32] 	12023
scalar tree_4_3_u07_r19_network.client[32] 	avg_time[32] 	0.004963906767
scalar tree_4_3_u07_r19_network.client[33] 	hdistance[33] 	2.9650948145662
scalar tree_4_3_u07_r19_network.client[33] 	downloads[33] 	11918
scalar tree_4_3_u07_r19_network.client[33] 	avg_time[33] 	0.004738375951
scalar tree_4_3_u07_r19_network.client[34] 	hdistance[34] 	3.0498851329176
scalar tree_4_3_u07_r19_network.client[34] 	downloads[34] 	12188
scalar tree_4_3_u07_r19_network.client[34] 	avg_time[34] 	0.004913158534
scalar tree_4_3_u07_r19_network.client[35] 	hdistance[35] 	3.0505227938101
scalar tree_4_3_u07_r19_network.client[35] 	downloads[35] 	11955
scalar tree_4_3_u07_r19_network.client[35] 	avg_time[35] 	0.004905610741
scalar tree_4_3_u07_r19_network.client[36] 	hdistance[36] 	2.9639170932282
scalar tree_4_3_u07_r19_network.client[36] 	downloads[36] 	11917
scalar tree_4_3_u07_r19_network.client[36] 	avg_time[36] 	0.004725980065
scalar tree_4_3_u07_r19_network.client[37] 	hdistance[37] 	3.0703567855952
scalar tree_4_3_u07_r19_network.client[37] 	downloads[37] 	11996
scalar tree_4_3_u07_r19_network.client[37] 	avg_time[37] 	0.004886130803
scalar tree_4_3_u07_r19_network.client[38] 	hdistance[38] 	2.9749915796565
scalar tree_4_3_u07_r19_network.client[38] 	downloads[38] 	11876
scalar tree_4_3_u07_r19_network.client[38] 	avg_time[38] 	0.004751190281
scalar tree_4_3_u07_r19_network.client[39] 	hdistance[39] 	3.0538892138023
scalar tree_4_3_u07_r19_network.client[39] 	downloads[39] 	11969
scalar tree_4_3_u07_r19_network.client[39] 	avg_time[39] 	0.004858265118
