version 2
run General-146-20160819-17:16:43-23511
attr a 0.9
attr cd lce
attr configname General
attr cr lru
attr datetime 20160819-17:16:43
attr experiment General
attr fsize 1
attr inifile hw5115/scenario_A/NRR-LCE.ini
attr iterationvars "$name=tree_4_3, $un=07, $rep=7, $cd=lce, $cr=lru, $fsize=1, $a=0.9, $sl=nrr, $ttl=1000, $variance=0.05"
attr iterationvars2 "$name=tree_4_3, $un=07, $rep=7, $cd=lce, $cr=lru, $fsize=1, $a=0.9, $sl=nrr, $ttl=1000, $variance=0.05, $repetition=0"
attr measurement "$name=tree_4_3, $un=07, $rep=7, $cd=lce, $cr=lru, $fsize=1, $a=0.9, $sl=nrr, $ttl=1000, $variance=0.05"
attr name tree_4_3
attr network networks.${name}_u${un}_r${rep}_network
attr processid 23511
attr rep 7
attr repetition 0
attr replication #0
attr resultdir results
attr runnumber 146
attr seedset 7
attr sl nrr
attr ttl 1000
attr un 07
attr variance 0.05

scalar . 	a 	0.9
scalar . 	fsize 	1
scalar . 	rep 	7
scalar . 	ttl 	1000
scalar . 	un 	07
scalar . 	variance 	0.05
scalar tree_4_3_u07_r7_network.content_distribution 	repo-0 	0
scalar tree_4_3_u07_r7_network.content_distribution 	client-0 	13
scalar tree_4_3_u07_r7_network.content_distribution 	client-1 	14
scalar tree_4_3_u07_r7_network.content_distribution 	client-2 	15
scalar tree_4_3_u07_r7_network.content_distribution 	client-3 	16
scalar tree_4_3_u07_r7_network.content_distribution 	client-4 	17
scalar tree_4_3_u07_r7_network.content_distribution 	client-5 	18
scalar tree_4_3_u07_r7_network.content_distribution 	client-6 	19
scalar tree_4_3_u07_r7_network.content_distribution 	client-7 	20
scalar tree_4_3_u07_r7_network.content_distribution 	client-8 	21
scalar tree_4_3_u07_r7_network.content_distribution 	client-9 	22
scalar tree_4_3_u07_r7_network.content_distribution 	client-10 	23
scalar tree_4_3_u07_r7_network.content_distribution 	client-11 	24
scalar tree_4_3_u07_r7_network.content_distribution 	client-12 	25
scalar tree_4_3_u07_r7_network.content_distribution 	client-13 	26
scalar tree_4_3_u07_r7_network.content_distribution 	client-14 	27
scalar tree_4_3_u07_r7_network.content_distribution 	client-15 	28
scalar tree_4_3_u07_r7_network.content_distribution 	client-16 	29
scalar tree_4_3_u07_r7_network.content_distribution 	client-17 	30
scalar tree_4_3_u07_r7_network.content_distribution 	client-18 	31
scalar tree_4_3_u07_r7_network.content_distribution 	client-19 	32
scalar tree_4_3_u07_r7_network.content_distribution 	client-20 	33
scalar tree_4_3_u07_r7_network.content_distribution 	client-21 	34
scalar tree_4_3_u07_r7_network.content_distribution 	client-22 	35
scalar tree_4_3_u07_r7_network.content_distribution 	client-23 	36
scalar tree_4_3_u07_r7_network.content_distribution 	client-24 	37
scalar tree_4_3_u07_r7_network.content_distribution 	client-25 	38
scalar tree_4_3_u07_r7_network.content_distribution 	client-26 	39
scalar tree_4_3_u07_r7_network.content_distribution 	repo-0_card 	100000
scalar tree_4_3_u07_r7_network.content_distribution 	repo-0_price 	0
scalar tree_4_3_u07_r7_network.statistics 	stabilization_time 	474
scalar tree_4_3_u07_r7_network.statistics 	p_hit 	0.1972423449772
scalar tree_4_3_u07_r7_network.statistics 	interests 	27620.975
scalar tree_4_3_u07_r7_network.statistics 	data 	19514.225
scalar tree_4_3_u07_r7_network.statistics 	hdistance 	3.0207088536548
scalar tree_4_3_u07_r7_network.statistics 	avg_time 	0.004814328131
scalar tree_4_3_u07_r7_network.statistics 	downloads 	324248
scalar tree_4_3_u07_r7_network.statistics 	total_cost 	0
scalar tree_4_3_u07_r7_network.statistics 	total_replicas 	100000
scalar tree_4_3_u07_r7_network.statistics 	inner_hit 	0.3863493375441
scalar tree_4_3_u07_r7_network.node[0].core_layer 	interests[0] 	199524
scalar tree_4_3_u07_r7_network.node[0].core_layer 	repo_load[0] 	198975
scalar tree_4_3_u07_r7_network.node[0].core_layer 	data[0] 	0
scalar tree_4_3_u07_r7_network.node[0].core_layer 	repo_int[0] 	198975
scalar tree_4_3_u07_r7_network.node[0].content_store 	p_hit[0] 	0.0027515486858724
scalar tree_4_3_u07_r7_network.node[0].content_store 	hits[0] 	549
scalar tree_4_3_u07_r7_network.node[0].content_store 	misses[0] 	198975
scalar tree_4_3_u07_r7_network.node[0].content_store 	decision_yes[0] 	198975
scalar tree_4_3_u07_r7_network.node[0].content_store 	decision_no[0] 	0
scalar tree_4_3_u07_r7_network.node[0].content_store 	decision_ratio[0] 	1
scalar tree_4_3_u07_r7_network.node[1].core_layer 	interests[1] 	148200
scalar tree_4_3_u07_r7_network.node[1].core_layer 	data[1] 	146864
scalar tree_4_3_u07_r7_network.node[1].content_store 	p_hit[1] 	0.0089878542510121
scalar tree_4_3_u07_r7_network.node[1].content_store 	hits[1] 	1332
scalar tree_4_3_u07_r7_network.node[1].content_store 	misses[1] 	146868
scalar tree_4_3_u07_r7_network.node[1].content_store 	decision_yes[1] 	146840
scalar tree_4_3_u07_r7_network.node[1].content_store 	decision_no[1] 	0
scalar tree_4_3_u07_r7_network.node[1].content_store 	decision_ratio[1] 	1
scalar tree_4_3_u07_r7_network.node[2].core_layer 	interests[2] 	63589
scalar tree_4_3_u07_r7_network.node[2].core_layer 	data[2] 	61859
scalar tree_4_3_u07_r7_network.node[2].content_store 	p_hit[2] 	0.027190237305194
scalar tree_4_3_u07_r7_network.node[2].content_store 	hits[2] 	1729
scalar tree_4_3_u07_r7_network.node[2].content_store 	misses[2] 	61860
scalar tree_4_3_u07_r7_network.node[2].content_store 	decision_yes[2] 	61849
scalar tree_4_3_u07_r7_network.node[2].content_store 	decision_no[2] 	0
scalar tree_4_3_u07_r7_network.node[2].content_store 	decision_ratio[2] 	1
scalar tree_4_3_u07_r7_network.node[3].core_layer 	interests[3] 	22931
scalar tree_4_3_u07_r7_network.node[3].core_layer 	data[3] 	21281
scalar tree_4_3_u07_r7_network.node[3].content_store 	p_hit[3] 	0.071954995421046
scalar tree_4_3_u07_r7_network.node[3].content_store 	hits[3] 	1650
scalar tree_4_3_u07_r7_network.node[3].content_store 	misses[3] 	21281
scalar tree_4_3_u07_r7_network.node[3].content_store 	decision_yes[3] 	21276
scalar tree_4_3_u07_r7_network.node[3].content_store 	decision_no[3] 	0
scalar tree_4_3_u07_r7_network.node[3].content_store 	decision_ratio[3] 	1
scalar tree_4_3_u07_r7_network.node[4].core_layer 	interests[4] 	49180
scalar tree_4_3_u07_r7_network.node[4].core_layer 	data[4] 	47315
scalar tree_4_3_u07_r7_network.node[4].content_store 	p_hit[4] 	0.037779585197235
scalar tree_4_3_u07_r7_network.node[4].content_store 	hits[4] 	1858
scalar tree_4_3_u07_r7_network.node[4].content_store 	misses[4] 	47322
scalar tree_4_3_u07_r7_network.node[4].content_store 	decision_yes[4] 	47311
scalar tree_4_3_u07_r7_network.node[4].content_store 	decision_no[4] 	0
scalar tree_4_3_u07_r7_network.node[4].content_store 	decision_ratio[4] 	1
scalar tree_4_3_u07_r7_network.node[5].core_layer 	interests[5] 	26082
scalar tree_4_3_u07_r7_network.node[5].core_layer 	data[5] 	22570
scalar tree_4_3_u07_r7_network.node[5].content_store 	p_hit[5] 	0.13461390997623
scalar tree_4_3_u07_r7_network.node[5].content_store 	hits[5] 	3511
scalar tree_4_3_u07_r7_network.node[5].content_store 	misses[5] 	22571
scalar tree_4_3_u07_r7_network.node[5].content_store 	decision_yes[5] 	22564
scalar tree_4_3_u07_r7_network.node[5].content_store 	decision_no[5] 	0
scalar tree_4_3_u07_r7_network.node[5].content_store 	decision_ratio[5] 	1
scalar tree_4_3_u07_r7_network.node[6].core_layer 	interests[6] 	25006
scalar tree_4_3_u07_r7_network.node[6].core_layer 	data[6] 	21855
scalar tree_4_3_u07_r7_network.node[6].content_store 	p_hit[6] 	0.12592977685356
scalar tree_4_3_u07_r7_network.node[6].content_store 	hits[6] 	3149
scalar tree_4_3_u07_r7_network.node[6].content_store 	misses[6] 	21857
scalar tree_4_3_u07_r7_network.node[6].content_store 	decision_yes[6] 	21854
scalar tree_4_3_u07_r7_network.node[6].content_store 	decision_no[6] 	0
scalar tree_4_3_u07_r7_network.node[6].content_store 	decision_ratio[6] 	1
scalar tree_4_3_u07_r7_network.node[7].core_layer 	interests[7] 	43954
scalar tree_4_3_u07_r7_network.node[7].core_layer 	data[7] 	41113
scalar tree_4_3_u07_r7_network.node[7].content_store 	p_hit[7] 	0.064522000273013
scalar tree_4_3_u07_r7_network.node[7].content_store 	hits[7] 	2836
scalar tree_4_3_u07_r7_network.node[7].content_store 	misses[7] 	41118
scalar tree_4_3_u07_r7_network.node[7].content_store 	decision_yes[7] 	41106
scalar tree_4_3_u07_r7_network.node[7].content_store 	decision_no[7] 	0
scalar tree_4_3_u07_r7_network.node[7].content_store 	decision_ratio[7] 	1
scalar tree_4_3_u07_r7_network.node[8].core_layer 	interests[8] 	32383
scalar tree_4_3_u07_r7_network.node[8].core_layer 	data[8] 	30074
scalar tree_4_3_u07_r7_network.node[8].content_store 	p_hit[8] 	0.071241083284439
scalar tree_4_3_u07_r7_network.node[8].content_store 	hits[8] 	2307
scalar tree_4_3_u07_r7_network.node[8].content_store 	misses[8] 	30076
scalar tree_4_3_u07_r7_network.node[8].content_store 	decision_yes[8] 	30069
scalar tree_4_3_u07_r7_network.node[8].content_store 	decision_no[8] 	0
scalar tree_4_3_u07_r7_network.node[8].content_store 	decision_ratio[8] 	1
scalar tree_4_3_u07_r7_network.node[9].core_layer 	interests[9] 	24398
scalar tree_4_3_u07_r7_network.node[9].core_layer 	data[9] 	21809
scalar tree_4_3_u07_r7_network.node[9].content_store 	p_hit[9] 	0.1061152553488
scalar tree_4_3_u07_r7_network.node[9].content_store 	hits[9] 	2589
scalar tree_4_3_u07_r7_network.node[9].content_store 	misses[9] 	21809
scalar tree_4_3_u07_r7_network.node[9].content_store 	decision_yes[9] 	21808
scalar tree_4_3_u07_r7_network.node[9].content_store 	decision_no[9] 	0
scalar tree_4_3_u07_r7_network.node[9].content_store 	decision_ratio[9] 	1
scalar tree_4_3_u07_r7_network.node[10].core_layer 	interests[10] 	53857
scalar tree_4_3_u07_r7_network.node[10].core_layer 	data[10] 	50871
scalar tree_4_3_u07_r7_network.node[10].content_store 	p_hit[10] 	0.055387414820729
scalar tree_4_3_u07_r7_network.node[10].content_store 	hits[10] 	2983
scalar tree_4_3_u07_r7_network.node[10].content_store 	misses[10] 	50874
scalar tree_4_3_u07_r7_network.node[10].content_store 	decision_yes[10] 	50866
scalar tree_4_3_u07_r7_network.node[10].content_store 	decision_no[10] 	0
scalar tree_4_3_u07_r7_network.node[10].content_store 	decision_ratio[10] 	1
scalar tree_4_3_u07_r7_network.node[11].core_layer 	interests[11] 	25337
scalar tree_4_3_u07_r7_network.node[11].core_layer 	data[11] 	22100
scalar tree_4_3_u07_r7_network.node[11].content_store 	p_hit[11] 	0.12767888858192
scalar tree_4_3_u07_r7_network.node[11].content_store 	hits[11] 	3235
scalar tree_4_3_u07_r7_network.node[11].content_store 	misses[11] 	22102
scalar tree_4_3_u07_r7_network.node[11].content_store 	decision_yes[11] 	22100
scalar tree_4_3_u07_r7_network.node[11].content_store 	decision_no[11] 	0
scalar tree_4_3_u07_r7_network.node[11].content_store 	decision_ratio[11] 	1
scalar tree_4_3_u07_r7_network.node[12].core_layer 	interests[12] 	22361
scalar tree_4_3_u07_r7_network.node[12].core_layer 	data[12] 	20782
scalar tree_4_3_u07_r7_network.node[12].content_store 	p_hit[12] 	0.07056929475426
scalar tree_4_3_u07_r7_network.node[12].content_store 	hits[12] 	1578
scalar tree_4_3_u07_r7_network.node[12].content_store 	misses[12] 	20783
scalar tree_4_3_u07_r7_network.node[12].content_store 	decision_yes[12] 	20780
scalar tree_4_3_u07_r7_network.node[12].content_store 	decision_no[12] 	0
scalar tree_4_3_u07_r7_network.node[12].content_store 	decision_ratio[12] 	1
scalar tree_4_3_u07_r7_network.node[13].core_layer 	interests[13] 	13436
scalar tree_4_3_u07_r7_network.node[13].core_layer 	data[13] 	10228
scalar tree_4_3_u07_r7_network.node[13].content_store 	p_hit[13] 	0.23861268234594
scalar tree_4_3_u07_r7_network.node[13].content_store 	hits[13] 	3206
scalar tree_4_3_u07_r7_network.node[13].content_store 	misses[13] 	10230
scalar tree_4_3_u07_r7_network.node[13].content_store 	decision_yes[13] 	10228
scalar tree_4_3_u07_r7_network.node[13].content_store 	decision_no[13] 	0
scalar tree_4_3_u07_r7_network.node[13].content_store 	decision_ratio[13] 	1
scalar tree_4_3_u07_r7_network.node[14].core_layer 	interests[14] 	14206
scalar tree_4_3_u07_r7_network.node[14].core_layer 	data[14] 	9909
scalar tree_4_3_u07_r7_network.node[14].content_store 	p_hit[14] 	0.30240743347881
scalar tree_4_3_u07_r7_network.node[14].content_store 	hits[14] 	4296
scalar tree_4_3_u07_r7_network.node[14].content_store 	misses[14] 	9910
scalar tree_4_3_u07_r7_network.node[14].content_store 	decision_yes[14] 	9909
scalar tree_4_3_u07_r7_network.node[14].content_store 	decision_no[14] 	0
scalar tree_4_3_u07_r7_network.node[14].content_store 	decision_ratio[14] 	1
scalar tree_4_3_u07_r7_network.node[15].core_layer 	interests[15] 	14012
scalar tree_4_3_u07_r7_network.node[15].core_layer 	data[15] 	9958
scalar tree_4_3_u07_r7_network.node[15].content_store 	p_hit[15] 	0.28932343705395
scalar tree_4_3_u07_r7_network.node[15].content_store 	hits[15] 	4054
scalar tree_4_3_u07_r7_network.node[15].content_store 	misses[15] 	9958
scalar tree_4_3_u07_r7_network.node[15].content_store 	decision_yes[15] 	9958
scalar tree_4_3_u07_r7_network.node[15].content_store 	decision_no[15] 	0
scalar tree_4_3_u07_r7_network.node[15].content_store 	decision_ratio[15] 	1
scalar tree_4_3_u07_r7_network.node[16].core_layer 	interests[16] 	14154
scalar tree_4_3_u07_r7_network.node[16].core_layer 	data[16] 	10056
scalar tree_4_3_u07_r7_network.node[16].content_store 	p_hit[16] 	0.28952946163629
scalar tree_4_3_u07_r7_network.node[16].content_store 	hits[16] 	4098
scalar tree_4_3_u07_r7_network.node[16].content_store 	misses[16] 	10056
scalar tree_4_3_u07_r7_network.node[16].content_store 	decision_yes[16] 	10056
scalar tree_4_3_u07_r7_network.node[16].content_store 	decision_no[16] 	0
scalar tree_4_3_u07_r7_network.node[16].content_store 	decision_ratio[16] 	1
scalar tree_4_3_u07_r7_network.node[17].core_layer 	interests[17] 	13048
scalar tree_4_3_u07_r7_network.node[17].core_layer 	data[17] 	10273
scalar tree_4_3_u07_r7_network.node[17].content_store 	p_hit[17] 	0.21275291232373
scalar tree_4_3_u07_r7_network.node[17].content_store 	hits[17] 	2776
scalar tree_4_3_u07_r7_network.node[17].content_store 	misses[17] 	10272
scalar tree_4_3_u07_r7_network.node[17].content_store 	decision_yes[17] 	10273
scalar tree_4_3_u07_r7_network.node[17].content_store 	decision_no[17] 	0
scalar tree_4_3_u07_r7_network.node[17].content_store 	decision_ratio[17] 	1
scalar tree_4_3_u07_r7_network.node[18].core_layer 	interests[18] 	14341
scalar tree_4_3_u07_r7_network.node[18].core_layer 	data[18] 	10090
scalar tree_4_3_u07_r7_network.node[18].content_store 	p_hit[18] 	0.29642284359529
scalar tree_4_3_u07_r7_network.node[18].content_store 	hits[18] 	4251
scalar tree_4_3_u07_r7_network.node[18].content_store 	misses[18] 	10090
scalar tree_4_3_u07_r7_network.node[18].content_store 	decision_yes[18] 	10090
scalar tree_4_3_u07_r7_network.node[18].content_store 	decision_no[18] 	0
scalar tree_4_3_u07_r7_network.node[18].content_store 	decision_ratio[18] 	1
scalar tree_4_3_u07_r7_network.node[19].core_layer 	interests[19] 	14043
scalar tree_4_3_u07_r7_network.node[19].core_layer 	data[19] 	10029
scalar tree_4_3_u07_r7_network.node[19].content_store 	p_hit[19] 	0.28583635975219
scalar tree_4_3_u07_r7_network.node[19].content_store 	hits[19] 	4014
scalar tree_4_3_u07_r7_network.node[19].content_store 	misses[19] 	10029
scalar tree_4_3_u07_r7_network.node[19].content_store 	decision_yes[19] 	10029
scalar tree_4_3_u07_r7_network.node[19].content_store 	decision_no[19] 	0
scalar tree_4_3_u07_r7_network.node[19].content_store 	decision_ratio[19] 	1
scalar tree_4_3_u07_r7_network.node[20].core_layer 	interests[20] 	12883
scalar tree_4_3_u07_r7_network.node[20].core_layer 	data[20] 	10138
scalar tree_4_3_u07_r7_network.node[20].content_store 	p_hit[20] 	0.21299386788791
scalar tree_4_3_u07_r7_network.node[20].content_store 	hits[20] 	2744
scalar tree_4_3_u07_r7_network.node[20].content_store 	misses[20] 	10139
scalar tree_4_3_u07_r7_network.node[20].content_store 	decision_yes[20] 	10138
scalar tree_4_3_u07_r7_network.node[20].content_store 	decision_no[20] 	0
scalar tree_4_3_u07_r7_network.node[20].content_store 	decision_ratio[20] 	1
scalar tree_4_3_u07_r7_network.node[21].core_layer 	interests[21] 	12971
scalar tree_4_3_u07_r7_network.node[21].core_layer 	data[21] 	10207
scalar tree_4_3_u07_r7_network.node[21].content_store 	p_hit[21] 	0.21285945570889
scalar tree_4_3_u07_r7_network.node[21].content_store 	hits[21] 	2761
scalar tree_4_3_u07_r7_network.node[21].content_store 	misses[21] 	10210
scalar tree_4_3_u07_r7_network.node[21].content_store 	decision_yes[21] 	10207
scalar tree_4_3_u07_r7_network.node[21].content_store 	decision_no[21] 	0
scalar tree_4_3_u07_r7_network.node[21].content_store 	decision_ratio[21] 	1
scalar tree_4_3_u07_r7_network.node[22].core_layer 	interests[22] 	13512
scalar tree_4_3_u07_r7_network.node[22].core_layer 	data[22] 	10182
scalar tree_4_3_u07_r7_network.node[22].content_store 	p_hit[22] 	0.24644760213144
scalar tree_4_3_u07_r7_network.node[22].content_store 	hits[22] 	3330
scalar tree_4_3_u07_r7_network.node[22].content_store 	misses[22] 	10182
scalar tree_4_3_u07_r7_network.node[22].content_store 	decision_yes[22] 	10182
scalar tree_4_3_u07_r7_network.node[22].content_store 	decision_no[22] 	0
scalar tree_4_3_u07_r7_network.node[22].content_store 	decision_ratio[22] 	1
scalar tree_4_3_u07_r7_network.node[23].core_layer 	interests[23] 	14362
scalar tree_4_3_u07_r7_network.node[23].core_layer 	data[23] 	9869
scalar tree_4_3_u07_r7_network.node[23].content_store 	p_hit[23] 	0.31270018103328
scalar tree_4_3_u07_r7_network.node[23].content_store 	hits[23] 	4491
scalar tree_4_3_u07_r7_network.node[23].content_store 	misses[23] 	9871
scalar tree_4_3_u07_r7_network.node[23].content_store 	decision_yes[23] 	9869
scalar tree_4_3_u07_r7_network.node[23].content_store 	decision_no[23] 	0
scalar tree_4_3_u07_r7_network.node[23].content_store 	decision_ratio[23] 	1
scalar tree_4_3_u07_r7_network.node[24].core_layer 	interests[24] 	13478
scalar tree_4_3_u07_r7_network.node[24].core_layer 	data[24] 	10027
scalar tree_4_3_u07_r7_network.node[24].content_store 	p_hit[24] 	0.25589850126131
scalar tree_4_3_u07_r7_network.node[24].content_store 	hits[24] 	3449
scalar tree_4_3_u07_r7_network.node[24].content_store 	misses[24] 	10029
scalar tree_4_3_u07_r7_network.node[24].content_store 	decision_yes[24] 	10027
scalar tree_4_3_u07_r7_network.node[24].content_store 	decision_no[24] 	0
scalar tree_4_3_u07_r7_network.node[24].content_store 	decision_ratio[24] 	1
scalar tree_4_3_u07_r7_network.node[25].core_layer 	interests[25] 	14608
scalar tree_4_3_u07_r7_network.node[25].core_layer 	data[25] 	10099
scalar tree_4_3_u07_r7_network.node[25].content_store 	p_hit[25] 	0.30859802847755
scalar tree_4_3_u07_r7_network.node[25].content_store 	hits[25] 	4508
scalar tree_4_3_u07_r7_network.node[25].content_store 	misses[25] 	10100
scalar tree_4_3_u07_r7_network.node[25].content_store 	decision_yes[25] 	10099
scalar tree_4_3_u07_r7_network.node[25].content_store 	decision_no[25] 	0
scalar tree_4_3_u07_r7_network.node[25].content_store 	decision_ratio[25] 	1
scalar tree_4_3_u07_r7_network.node[26].core_layer 	interests[26] 	12924
scalar tree_4_3_u07_r7_network.node[26].core_layer 	data[26] 	10048
scalar tree_4_3_u07_r7_network.node[26].content_store 	p_hit[26] 	0.22245434849892
scalar tree_4_3_u07_r7_network.node[26].content_store 	hits[26] 	2875
scalar tree_4_3_u07_r7_network.node[26].content_store 	misses[26] 	10049
scalar tree_4_3_u07_r7_network.node[26].content_store 	decision_yes[26] 	10048
scalar tree_4_3_u07_r7_network.node[26].content_store 	decision_no[26] 	0
scalar tree_4_3_u07_r7_network.node[26].content_store 	decision_ratio[26] 	1
scalar tree_4_3_u07_r7_network.node[27].core_layer 	interests[27] 	12980
scalar tree_4_3_u07_r7_network.node[27].core_layer 	data[27] 	9976
scalar tree_4_3_u07_r7_network.node[27].content_store 	p_hit[27] 	0.23143297380586
scalar tree_4_3_u07_r7_network.node[27].content_store 	hits[27] 	3004
scalar tree_4_3_u07_r7_network.node[27].content_store 	misses[27] 	9976
scalar tree_4_3_u07_r7_network.node[27].content_store 	decision_yes[27] 	9976
scalar tree_4_3_u07_r7_network.node[27].content_store 	decision_no[27] 	0
scalar tree_4_3_u07_r7_network.node[27].content_store 	decision_ratio[27] 	1
scalar tree_4_3_u07_r7_network.node[28].core_layer 	interests[28] 	12824
scalar tree_4_3_u07_r7_network.node[28].core_layer 	data[28] 	10069
scalar tree_4_3_u07_r7_network.node[28].content_store 	p_hit[28] 	0.21475358702433
scalar tree_4_3_u07_r7_network.node[28].content_store 	hits[28] 	2754
scalar tree_4_3_u07_r7_network.node[28].content_store 	misses[28] 	10070
scalar tree_4_3_u07_r7_network.node[28].content_store 	decision_yes[28] 	10069
scalar tree_4_3_u07_r7_network.node[28].content_store 	decision_no[28] 	0
scalar tree_4_3_u07_r7_network.node[28].content_store 	decision_ratio[28] 	1
scalar tree_4_3_u07_r7_network.node[29].core_layer 	interests[29] 	14182
scalar tree_4_3_u07_r7_network.node[29].core_layer 	data[29] 	9922
scalar tree_4_3_u07_r7_network.node[29].content_store 	p_hit[29] 	0.30031025243266
scalar tree_4_3_u07_r7_network.node[29].content_store 	hits[29] 	4259
scalar tree_4_3_u07_r7_network.node[29].content_store 	misses[29] 	9923
scalar tree_4_3_u07_r7_network.node[29].content_store 	decision_yes[29] 	9922
scalar tree_4_3_u07_r7_network.node[29].content_store 	decision_no[29] 	0
scalar tree_4_3_u07_r7_network.node[29].content_store 	decision_ratio[29] 	1
scalar tree_4_3_u07_r7_network.node[30].core_layer 	interests[30] 	12753
scalar tree_4_3_u07_r7_network.node[30].core_layer 	data[30] 	9901
scalar tree_4_3_u07_r7_network.node[30].content_store 	p_hit[30] 	0.22363365482632
scalar tree_4_3_u07_r7_network.node[30].content_store 	hits[30] 	2852
scalar tree_4_3_u07_r7_network.node[30].content_store 	misses[30] 	9901
scalar tree_4_3_u07_r7_network.node[30].content_store 	decision_yes[30] 	9901
scalar tree_4_3_u07_r7_network.node[30].content_store 	decision_no[30] 	0
scalar tree_4_3_u07_r7_network.node[30].content_store 	decision_ratio[30] 	1
scalar tree_4_3_u07_r7_network.node[31].core_layer 	interests[31] 	13799
scalar tree_4_3_u07_r7_network.node[31].core_layer 	data[31] 	10239
scalar tree_4_3_u07_r7_network.node[31].content_store 	p_hit[31] 	0.25791724037974
scalar tree_4_3_u07_r7_network.node[31].content_store 	hits[31] 	3559
scalar tree_4_3_u07_r7_network.node[31].content_store 	misses[31] 	10240
scalar tree_4_3_u07_r7_network.node[31].content_store 	decision_yes[31] 	10239
scalar tree_4_3_u07_r7_network.node[31].content_store 	decision_no[31] 	0
scalar tree_4_3_u07_r7_network.node[31].content_store 	decision_ratio[31] 	1
scalar tree_4_3_u07_r7_network.node[32].core_layer 	interests[32] 	14368
scalar tree_4_3_u07_r7_network.node[32].core_layer 	data[32] 	9926
scalar tree_4_3_u07_r7_network.node[32].content_store 	p_hit[32] 	0.30915924276169
scalar tree_4_3_u07_r7_network.node[32].content_store 	hits[32] 	4442
scalar tree_4_3_u07_r7_network.node[32].content_store 	misses[32] 	9926
scalar tree_4_3_u07_r7_network.node[32].content_store 	decision_yes[32] 	9926
scalar tree_4_3_u07_r7_network.node[32].content_store 	decision_no[32] 	0
scalar tree_4_3_u07_r7_network.node[32].content_store 	decision_ratio[32] 	1
scalar tree_4_3_u07_r7_network.node[33].core_layer 	interests[33] 	14456
scalar tree_4_3_u07_r7_network.node[33].core_layer 	data[33] 	10211
scalar tree_4_3_u07_r7_network.node[33].content_store 	p_hit[33] 	0.29351134477034
scalar tree_4_3_u07_r7_network.node[33].content_store 	hits[33] 	4243
scalar tree_4_3_u07_r7_network.node[33].content_store 	misses[33] 	10213
scalar tree_4_3_u07_r7_network.node[33].content_store 	decision_yes[33] 	10211
scalar tree_4_3_u07_r7_network.node[33].content_store 	decision_no[33] 	0
scalar tree_4_3_u07_r7_network.node[33].content_store 	decision_ratio[33] 	1
scalar tree_4_3_u07_r7_network.node[34].core_layer 	interests[34] 	14875
scalar tree_4_3_u07_r7_network.node[34].core_layer 	data[34] 	10290
scalar tree_4_3_u07_r7_network.node[34].content_store 	p_hit[34] 	0.30823529411765
scalar tree_4_3_u07_r7_network.node[34].content_store 	hits[34] 	4585
scalar tree_4_3_u07_r7_network.node[34].content_store 	misses[34] 	10290
scalar tree_4_3_u07_r7_network.node[34].content_store 	decision_yes[34] 	10290
scalar tree_4_3_u07_r7_network.node[34].content_store 	decision_no[34] 	0
scalar tree_4_3_u07_r7_network.node[34].content_store 	decision_ratio[34] 	1
scalar tree_4_3_u07_r7_network.node[35].core_layer 	interests[35] 	13000
scalar tree_4_3_u07_r7_network.node[35].core_layer 	data[35] 	10083
scalar tree_4_3_u07_r7_network.node[35].content_store 	p_hit[35] 	0.22430769230769
scalar tree_4_3_u07_r7_network.node[35].content_store 	hits[35] 	2916
scalar tree_4_3_u07_r7_network.node[35].content_store 	misses[35] 	10084
scalar tree_4_3_u07_r7_network.node[35].content_store 	decision_yes[35] 	10083
scalar tree_4_3_u07_r7_network.node[35].content_store 	decision_no[35] 	0
scalar tree_4_3_u07_r7_network.node[35].content_store 	decision_ratio[35] 	1
scalar tree_4_3_u07_r7_network.node[36].core_layer 	interests[36] 	12861
scalar tree_4_3_u07_r7_network.node[36].core_layer 	data[36] 	9932
scalar tree_4_3_u07_r7_network.node[36].content_store 	p_hit[36] 	0.22774278827463
scalar tree_4_3_u07_r7_network.node[36].content_store 	hits[36] 	2929
scalar tree_4_3_u07_r7_network.node[36].content_store 	misses[36] 	9932
scalar tree_4_3_u07_r7_network.node[36].content_store 	decision_yes[36] 	9932
scalar tree_4_3_u07_r7_network.node[36].content_store 	decision_no[36] 	0
scalar tree_4_3_u07_r7_network.node[36].content_store 	decision_ratio[36] 	1
scalar tree_4_3_u07_r7_network.node[37].core_layer 	interests[37] 	14521
scalar tree_4_3_u07_r7_network.node[37].core_layer 	data[37] 	10074
scalar tree_4_3_u07_r7_network.node[37].content_store 	p_hit[37] 	0.30624612629984
scalar tree_4_3_u07_r7_network.node[37].content_store 	hits[37] 	4447
scalar tree_4_3_u07_r7_network.node[37].content_store 	misses[37] 	10074
scalar tree_4_3_u07_r7_network.node[37].content_store 	decision_yes[37] 	10074
scalar tree_4_3_u07_r7_network.node[37].content_store 	decision_no[37] 	0
scalar tree_4_3_u07_r7_network.node[37].content_store 	decision_ratio[37] 	1
scalar tree_4_3_u07_r7_network.node[38].core_layer 	interests[38] 	12562
scalar tree_4_3_u07_r7_network.node[38].core_layer 	data[38] 	10034
scalar tree_4_3_u07_r7_network.node[38].content_store 	p_hit[38] 	0.20124184047126
scalar tree_4_3_u07_r7_network.node[38].content_store 	hits[38] 	2528
scalar tree_4_3_u07_r7_network.node[38].content_store 	misses[38] 	10034
scalar tree_4_3_u07_r7_network.node[38].content_store 	decision_yes[38] 	10034
scalar tree_4_3_u07_r7_network.node[38].content_store 	decision_no[38] 	0
scalar tree_4_3_u07_r7_network.node[38].content_store 	decision_ratio[38] 	1
scalar tree_4_3_u07_r7_network.node[39].core_layer 	interests[39] 	12878
scalar tree_4_3_u07_r7_network.node[39].core_layer 	data[39] 	10306
scalar tree_4_3_u07_r7_network.node[39].content_store 	p_hit[39] 	0.19964280167728
scalar tree_4_3_u07_r7_network.node[39].content_store 	hits[39] 	2571
scalar tree_4_3_u07_r7_network.node[39].content_store 	misses[39] 	10307
scalar tree_4_3_u07_r7_network.node[39].content_store 	decision_yes[39] 	10306
scalar tree_4_3_u07_r7_network.node[39].content_store 	decision_no[39] 	0
scalar tree_4_3_u07_r7_network.node[39].content_store 	decision_ratio[39] 	1
scalar tree_4_3_u07_r7_network.client[13] 	hdistance[13] 	3.0550016345211
scalar tree_4_3_u07_r7_network.client[13] 	downloads[13] 	12236
scalar tree_4_3_u07_r7_network.client[13] 	avg_time[13] 	0.00484775377
scalar tree_4_3_u07_r7_network.client[14] 	hdistance[14] 	2.9360917999832
scalar tree_4_3_u07_r7_network.client[14] 	downloads[14] 	11939
scalar tree_4_3_u07_r7_network.client[14] 	avg_time[14] 	0.004680664508
scalar tree_4_3_u07_r7_network.client[15] 	hdistance[15] 	2.9711844530072
scalar tree_4_3_u07_r7_network.client[15] 	downloads[15] 	11938
scalar tree_4_3_u07_r7_network.client[15] 	avg_time[15] 	0.004698593456
scalar tree_4_3_u07_r7_network.client[16] 	hdistance[16] 	2.9845909052843
scalar tree_4_3_u07_r7_network.client[16] 	downloads[16] 	11941
scalar tree_4_3_u07_r7_network.client[16] 	avg_time[16] 	0.004760250072
scalar tree_4_3_u07_r7_network.client[17] 	hdistance[17] 	3.0799075449893
scalar tree_4_3_u07_r7_network.client[17] 	downloads[17] 	12114
scalar tree_4_3_u07_r7_network.client[17] 	avg_time[17] 	0.004951181038
scalar tree_4_3_u07_r7_network.client[18] 	hdistance[18] 	2.9314819406563
scalar tree_4_3_u07_r7_network.client[18] 	downloads[18] 	12099
scalar tree_4_3_u07_r7_network.client[18] 	avg_time[18] 	0.00466385351
scalar tree_4_3_u07_r7_network.client[19] 	hdistance[19] 	2.9697297297297
scalar tree_4_3_u07_r7_network.client[19] 	downloads[19] 	12025
scalar tree_4_3_u07_r7_network.client[19] 	avg_time[19] 	0.004696182716
scalar tree_4_3_u07_r7_network.client[20] 	hdistance[20] 	3.0567823343849
scalar tree_4_3_u07_r7_network.client[20] 	downloads[20] 	12046
scalar tree_4_3_u07_r7_network.client[20] 	avg_time[20] 	0.004855542616
scalar tree_4_3_u07_r7_network.client[21] 	hdistance[21] 	3.067381443299
scalar tree_4_3_u07_r7_network.client[21] 	downloads[21] 	12125
scalar tree_4_3_u07_r7_network.client[21] 	avg_time[21] 	0.004884386707
scalar tree_4_3_u07_r7_network.client[22] 	hdistance[22] 	3.0696881496881
scalar tree_4_3_u07_r7_network.client[22] 	downloads[22] 	12025
scalar tree_4_3_u07_r7_network.client[22] 	avg_time[22] 	0.004929399141
scalar tree_4_3_u07_r7_network.client[23] 	hdistance[23] 	2.9473728457335
scalar tree_4_3_u07_r7_network.client[23] 	downloads[23] 	11895
scalar tree_4_3_u07_r7_network.client[23] 	avg_time[23] 	0.00469021316
scalar tree_4_3_u07_r7_network.client[24] 	hdistance[24] 	3.0570732117341
scalar tree_4_3_u07_r7_network.client[24] 	downloads[24] 	11897
scalar tree_4_3_u07_r7_network.client[24] 	avg_time[24] 	0.004906309591
scalar tree_4_3_u07_r7_network.client[25] 	hdistance[25] 	2.9488150098749
scalar tree_4_3_u07_r7_network.client[25] 	downloads[25] 	12152
scalar tree_4_3_u07_r7_network.client[25] 	avg_time[25] 	0.004706680698
scalar tree_4_3_u07_r7_network.client[26] 	hdistance[26] 	3.0753166149459
scalar tree_4_3_u07_r7_network.client[26] 	downloads[26] 	11923
scalar tree_4_3_u07_r7_network.client[26] 	avg_time[26] 	0.004878132569
scalar tree_4_3_u07_r7_network.client[27] 	hdistance[27] 	3.0420231504781
scalar tree_4_3_u07_r7_network.client[27] 	downloads[27] 	11922
scalar tree_4_3_u07_r7_network.client[27] 	avg_time[27] 	0.004836089951
scalar tree_4_3_u07_r7_network.client[28] 	hdistance[28] 	3.1006880349052
scalar tree_4_3_u07_r7_network.client[28] 	downloads[28] 	11918
scalar tree_4_3_u07_r7_network.client[28] 	avg_time[28] 	0.004978623658
scalar tree_4_3_u07_r7_network.client[29] 	hdistance[29] 	2.9732548359966
scalar tree_4_3_u07_r7_network.client[29] 	downloads[29] 	11890
scalar tree_4_3_u07_r7_network.client[29] 	avg_time[29] 	0.004722360175
scalar tree_4_3_u07_r7_network.client[30] 	hdistance[30] 	3.0875074411089
scalar tree_4_3_u07_r7_network.client[30] 	downloads[30] 	11759
scalar tree_4_3_u07_r7_network.client[30] 	avg_time[30] 	0.004959942635
scalar tree_4_3_u07_r7_network.client[31] 	hdistance[31] 	3.0347347676137
scalar tree_4_3_u07_r7_network.client[31] 	downloads[31] 	12178
scalar tree_4_3_u07_r7_network.client[31] 	avg_time[31] 	0.004863357114
scalar tree_4_3_u07_r7_network.client[32] 	hdistance[32] 	2.9516990085586
scalar tree_4_3_u07_r7_network.client[32] 	downloads[32] 	11801
scalar tree_4_3_u07_r7_network.client[32] 	avg_time[32] 	0.004719766585
scalar tree_4_3_u07_r7_network.client[33] 	hdistance[33] 	2.9882149332454
scalar tree_4_3_u07_r7_network.client[33] 	downloads[33] 	12134
scalar tree_4_3_u07_r7_network.client[33] 	avg_time[33] 	0.004763207524
scalar tree_4_3_u07_r7_network.client[34] 	hdistance[34] 	2.9590016366612
scalar tree_4_3_u07_r7_network.client[34] 	downloads[34] 	12220
scalar tree_4_3_u07_r7_network.client[34] 	avg_time[34] 	0.004726180404
scalar tree_4_3_u07_r7_network.client[35] 	hdistance[35] 	3.0495833333333
scalar tree_4_3_u07_r7_network.client[35] 	downloads[35] 	12000
scalar tree_4_3_u07_r7_network.client[35] 	avg_time[35] 	0.004884763038
scalar tree_4_3_u07_r7_network.client[36] 	hdistance[36] 	3.0426412226632
scalar tree_4_3_u07_r7_network.client[36] 	downloads[36] 	11843
scalar tree_4_3_u07_r7_network.client[36] 	avg_time[36] 	0.004865253771
scalar tree_4_3_u07_r7_network.client[37] 	hdistance[37] 	2.9496569397371
scalar tree_4_3_u07_r7_network.client[37] 	downloads[37] 	12097
scalar tree_4_3_u07_r7_network.client[37] 	avg_time[37] 	0.004706783767
scalar tree_4_3_u07_r7_network.client[38] 	hdistance[38] 	3.1137432795699
scalar tree_4_3_u07_r7_network.client[38] 	downloads[38] 	11904
scalar tree_4_3_u07_r7_network.client[38] 	avg_time[38] 	0.004904105666
scalar tree_4_3_u07_r7_network.client[39] 	hdistance[39] 	3.115972846978
scalar tree_4_3_u07_r7_network.client[39] 	downloads[39] 	12227
scalar tree_4_3_u07_r7_network.client[39] 	avg_time[39] 	0.004907281713
