version 2
run General-143-20160819-17:13:36-23511
attr a 0.9
attr cd lce
attr configname General
attr cr lru
attr datetime 20160819-17:13:36
attr experiment General
attr fsize 1
attr inifile hw5115/scenario_A/NRR-LCE.ini
attr iterationvars "$name=tree_4_3, $un=07, $rep=4, $cd=lce, $cr=lru, $fsize=1, $a=0.9, $sl=nrr, $ttl=1000, $variance=0.05"
attr iterationvars2 "$name=tree_4_3, $un=07, $rep=4, $cd=lce, $cr=lru, $fsize=1, $a=0.9, $sl=nrr, $ttl=1000, $variance=0.05, $repetition=0"
attr measurement "$name=tree_4_3, $un=07, $rep=4, $cd=lce, $cr=lru, $fsize=1, $a=0.9, $sl=nrr, $ttl=1000, $variance=0.05"
attr name tree_4_3
attr network networks.${name}_u${un}_r${rep}_network
attr processid 23511
attr rep 4
attr repetition 0
attr replication #0
attr resultdir results
attr runnumber 143
attr seedset 4
attr sl nrr
attr ttl 1000
attr un 07
attr variance 0.05

scalar . 	a 	0.9
scalar . 	fsize 	1
scalar . 	rep 	4
scalar . 	ttl 	1000
scalar . 	un 	07
scalar . 	variance 	0.05
scalar tree_4_3_u07_r4_network.content_distribution 	repo-0 	0
scalar tree_4_3_u07_r4_network.content_distribution 	client-0 	13
scalar tree_4_3_u07_r4_network.content_distribution 	client-1 	14
scalar tree_4_3_u07_r4_network.content_distribution 	client-2 	15
scalar tree_4_3_u07_r4_network.content_distribution 	client-3 	16
scalar tree_4_3_u07_r4_network.content_distribution 	client-4 	17
scalar tree_4_3_u07_r4_network.content_distribution 	client-5 	18
scalar tree_4_3_u07_r4_network.content_distribution 	client-6 	19
scalar tree_4_3_u07_r4_network.content_distribution 	client-7 	20
scalar tree_4_3_u07_r4_network.content_distribution 	client-8 	21
scalar tree_4_3_u07_r4_network.content_distribution 	client-9 	22
scalar tree_4_3_u07_r4_network.content_distribution 	client-10 	23
scalar tree_4_3_u07_r4_network.content_distribution 	client-11 	24
scalar tree_4_3_u07_r4_network.content_distribution 	client-12 	25
scalar tree_4_3_u07_r4_network.content_distribution 	client-13 	26
scalar tree_4_3_u07_r4_network.content_distribution 	client-14 	27
scalar tree_4_3_u07_r4_network.content_distribution 	client-15 	28
scalar tree_4_3_u07_r4_network.content_distribution 	client-16 	29
scalar tree_4_3_u07_r4_network.content_distribution 	client-17 	30
scalar tree_4_3_u07_r4_network.content_distribution 	client-18 	31
scalar tree_4_3_u07_r4_network.content_distribution 	client-19 	32
scalar tree_4_3_u07_r4_network.content_distribution 	client-20 	33
scalar tree_4_3_u07_r4_network.content_distribution 	client-21 	34
scalar tree_4_3_u07_r4_network.content_distribution 	client-22 	35
scalar tree_4_3_u07_r4_network.content_distribution 	client-23 	36
scalar tree_4_3_u07_r4_network.content_distribution 	client-24 	37
scalar tree_4_3_u07_r4_network.content_distribution 	client-25 	38
scalar tree_4_3_u07_r4_network.content_distribution 	client-26 	39
scalar tree_4_3_u07_r4_network.content_distribution 	repo-0_card 	100000
scalar tree_4_3_u07_r4_network.content_distribution 	repo-0_price 	0
scalar tree_4_3_u07_r4_network.statistics 	stabilization_time 	492.2
scalar tree_4_3_u07_r4_network.statistics 	p_hit 	0.19333097753663
scalar tree_4_3_u07_r4_network.statistics 	interests 	27283.575
scalar tree_4_3_u07_r4_network.statistics 	data 	19196.05
scalar tree_4_3_u07_r4_network.statistics 	hdistance 	3.0166147388566
scalar tree_4_3_u07_r4_network.statistics 	avg_time 	0.004747006863
scalar tree_4_3_u07_r4_network.statistics 	downloads 	323483
scalar tree_4_3_u07_r4_network.statistics 	total_cost 	0
scalar tree_4_3_u07_r4_network.statistics 	total_replicas 	100000
scalar tree_4_3_u07_r4_network.statistics 	inner_hit 	0.35688737893491
scalar tree_4_3_u07_r4_network.node[0].core_layer 	interests[0] 	209021
scalar tree_4_3_u07_r4_network.node[0].core_layer 	repo_load[0] 	208036
scalar tree_4_3_u07_r4_network.node[0].core_layer 	data[0] 	0
scalar tree_4_3_u07_r4_network.node[0].core_layer 	repo_int[0] 	208036
scalar tree_4_3_u07_r4_network.node[0].content_store 	p_hit[0] 	0.0047124451610125
scalar tree_4_3_u07_r4_network.node[0].content_store 	hits[0] 	985
scalar tree_4_3_u07_r4_network.node[0].content_store 	misses[0] 	208036
scalar tree_4_3_u07_r4_network.node[0].content_store 	decision_yes[0] 	208036
scalar tree_4_3_u07_r4_network.node[0].content_store 	decision_no[0] 	0
scalar tree_4_3_u07_r4_network.node[0].content_store 	decision_ratio[0] 	1
scalar tree_4_3_u07_r4_network.node[1].core_layer 	interests[1] 	116434
scalar tree_4_3_u07_r4_network.node[1].core_layer 	data[1] 	115545
scalar tree_4_3_u07_r4_network.node[1].content_store 	p_hit[1] 	0.0075836954841369
scalar tree_4_3_u07_r4_network.node[1].content_store 	hits[1] 	883
scalar tree_4_3_u07_r4_network.node[1].content_store 	misses[1] 	115551
scalar tree_4_3_u07_r4_network.node[1].content_store 	decision_yes[1] 	115533
scalar tree_4_3_u07_r4_network.node[1].content_store 	decision_no[1] 	0
scalar tree_4_3_u07_r4_network.node[1].content_store 	decision_ratio[1] 	1
scalar tree_4_3_u07_r4_network.node[2].core_layer 	interests[2] 	69387
scalar tree_4_3_u07_r4_network.node[2].core_layer 	data[2] 	68521
scalar tree_4_3_u07_r4_network.node[2].content_store 	p_hit[2] 	0.012451900211855
scalar tree_4_3_u07_r4_network.node[2].content_store 	hits[2] 	864
scalar tree_4_3_u07_r4_network.node[2].content_store 	misses[2] 	68523
scalar tree_4_3_u07_r4_network.node[2].content_store 	decision_yes[2] 	68511
scalar tree_4_3_u07_r4_network.node[2].content_store 	decision_no[2] 	0
scalar tree_4_3_u07_r4_network.node[2].content_store 	decision_ratio[2] 	1
scalar tree_4_3_u07_r4_network.node[3].core_layer 	interests[3] 	44248
scalar tree_4_3_u07_r4_network.node[3].core_layer 	data[3] 	43697
scalar tree_4_3_u07_r4_network.node[3].content_store 	p_hit[3] 	0.012407340444766
scalar tree_4_3_u07_r4_network.node[3].content_store 	hits[3] 	549
scalar tree_4_3_u07_r4_network.node[3].content_store 	misses[3] 	43699
scalar tree_4_3_u07_r4_network.node[3].content_store 	decision_yes[3] 	43697
scalar tree_4_3_u07_r4_network.node[3].content_store 	decision_no[3] 	0
scalar tree_4_3_u07_r4_network.node[3].content_store 	decision_ratio[3] 	1
scalar tree_4_3_u07_r4_network.node[4].core_layer 	interests[4] 	39126
scalar tree_4_3_u07_r4_network.node[4].core_layer 	data[4] 	37830
scalar tree_4_3_u07_r4_network.node[4].content_store 	p_hit[4] 	0.033098195573276
scalar tree_4_3_u07_r4_network.node[4].content_store 	hits[4] 	1295
scalar tree_4_3_u07_r4_network.node[4].content_store 	misses[4] 	37831
scalar tree_4_3_u07_r4_network.node[4].content_store 	decision_yes[4] 	37830
scalar tree_4_3_u07_r4_network.node[4].content_store 	decision_no[4] 	0
scalar tree_4_3_u07_r4_network.node[4].content_store 	decision_ratio[4] 	1
scalar tree_4_3_u07_r4_network.node[5].core_layer 	interests[5] 	41206
scalar tree_4_3_u07_r4_network.node[5].core_layer 	data[5] 	39271
scalar tree_4_3_u07_r4_network.node[5].content_store 	p_hit[5] 	0.046886375770519
scalar tree_4_3_u07_r4_network.node[5].content_store 	hits[5] 	1932
scalar tree_4_3_u07_r4_network.node[5].content_store 	misses[5] 	39274
scalar tree_4_3_u07_r4_network.node[5].content_store 	decision_yes[5] 	39268
scalar tree_4_3_u07_r4_network.node[5].content_store 	decision_no[5] 	0
scalar tree_4_3_u07_r4_network.node[5].content_store 	decision_ratio[5] 	1
scalar tree_4_3_u07_r4_network.node[6].core_layer 	interests[6] 	14736
scalar tree_4_3_u07_r4_network.node[6].core_layer 	data[6] 	11205
scalar tree_4_3_u07_r4_network.node[6].content_store 	p_hit[6] 	0.23961726384365
scalar tree_4_3_u07_r4_network.node[6].content_store 	hits[6] 	3531
scalar tree_4_3_u07_r4_network.node[6].content_store 	misses[6] 	11205
scalar tree_4_3_u07_r4_network.node[6].content_store 	decision_yes[6] 	11204
scalar tree_4_3_u07_r4_network.node[6].content_store 	decision_no[6] 	0
scalar tree_4_3_u07_r4_network.node[6].content_store 	decision_ratio[6] 	1
scalar tree_4_3_u07_r4_network.node[7].core_layer 	interests[7] 	53116
scalar tree_4_3_u07_r4_network.node[7].core_layer 	data[7] 	50387
scalar tree_4_3_u07_r4_network.node[7].content_store 	p_hit[7] 	0.051321635665336
scalar tree_4_3_u07_r4_network.node[7].content_store 	hits[7] 	2726
scalar tree_4_3_u07_r4_network.node[7].content_store 	misses[7] 	50390
scalar tree_4_3_u07_r4_network.node[7].content_store 	decision_yes[7] 	50384
scalar tree_4_3_u07_r4_network.node[7].content_store 	decision_no[7] 	0
scalar tree_4_3_u07_r4_network.node[7].content_store 	decision_ratio[7] 	1
scalar tree_4_3_u07_r4_network.node[8].core_layer 	interests[8] 	30834
scalar tree_4_3_u07_r4_network.node[8].core_layer 	data[8] 	29103
scalar tree_4_3_u07_r4_network.node[8].content_store 	p_hit[8] 	0.05613932671726
scalar tree_4_3_u07_r4_network.node[8].content_store 	hits[8] 	1731
scalar tree_4_3_u07_r4_network.node[8].content_store 	misses[8] 	29103
scalar tree_4_3_u07_r4_network.node[8].content_store 	decision_yes[8] 	29103
scalar tree_4_3_u07_r4_network.node[8].content_store 	decision_no[8] 	0
scalar tree_4_3_u07_r4_network.node[8].content_store 	decision_ratio[8] 	1
scalar tree_4_3_u07_r4_network.node[9].core_layer 	interests[9] 	14938
scalar tree_4_3_u07_r4_network.node[9].core_layer 	data[9] 	11485
scalar tree_4_3_u07_r4_network.node[9].content_store 	p_hit[9] 	0.23115544249565
scalar tree_4_3_u07_r4_network.node[9].content_store 	hits[9] 	3453
scalar tree_4_3_u07_r4_network.node[9].content_store 	misses[9] 	11485
scalar tree_4_3_u07_r4_network.node[9].content_store 	decision_yes[9] 	11485
scalar tree_4_3_u07_r4_network.node[9].content_store 	decision_no[9] 	0
scalar tree_4_3_u07_r4_network.node[9].content_store 	decision_ratio[9] 	1
scalar tree_4_3_u07_r4_network.node[10].core_layer 	interests[10] 	40518
scalar tree_4_3_u07_r4_network.node[10].core_layer 	data[10] 	39049
scalar tree_4_3_u07_r4_network.node[10].content_store 	p_hit[10] 	0.036230810997581
scalar tree_4_3_u07_r4_network.node[10].content_store 	hits[10] 	1468
scalar tree_4_3_u07_r4_network.node[10].content_store 	misses[10] 	39050
scalar tree_4_3_u07_r4_network.node[10].content_store 	decision_yes[10] 	39049
scalar tree_4_3_u07_r4_network.node[10].content_store 	decision_no[10] 	0
scalar tree_4_3_u07_r4_network.node[10].content_store 	decision_ratio[10] 	1
scalar tree_4_3_u07_r4_network.node[11].core_layer 	interests[11] 	42334
scalar tree_4_3_u07_r4_network.node[11].core_layer 	data[11] 	40319
scalar tree_4_3_u07_r4_network.node[11].content_store 	p_hit[11] 	0.047550432276657
scalar tree_4_3_u07_r4_network.node[11].content_store 	hits[11] 	2013
scalar tree_4_3_u07_r4_network.node[11].content_store 	misses[11] 	40321
scalar tree_4_3_u07_r4_network.node[11].content_store 	decision_yes[11] 	40316
scalar tree_4_3_u07_r4_network.node[11].content_store 	decision_no[11] 	0
scalar tree_4_3_u07_r4_network.node[11].content_store 	decision_ratio[11] 	1
scalar tree_4_3_u07_r4_network.node[12].core_layer 	interests[12] 	12783
scalar tree_4_3_u07_r4_network.node[12].core_layer 	data[12] 	10583
scalar tree_4_3_u07_r4_network.node[12].content_store 	p_hit[12] 	0.17210357506063
scalar tree_4_3_u07_r4_network.node[12].content_store 	hits[12] 	2200
scalar tree_4_3_u07_r4_network.node[12].content_store 	misses[12] 	10583
scalar tree_4_3_u07_r4_network.node[12].content_store 	decision_yes[12] 	10583
scalar tree_4_3_u07_r4_network.node[12].content_store 	decision_no[12] 	0
scalar tree_4_3_u07_r4_network.node[12].content_store 	decision_ratio[12] 	1
scalar tree_4_3_u07_r4_network.node[13].core_layer 	interests[13] 	12861
scalar tree_4_3_u07_r4_network.node[13].core_layer 	data[13] 	10020
scalar tree_4_3_u07_r4_network.node[13].content_store 	p_hit[13] 	0.22074488764482
scalar tree_4_3_u07_r4_network.node[13].content_store 	hits[13] 	2839
scalar tree_4_3_u07_r4_network.node[13].content_store 	misses[13] 	10022
scalar tree_4_3_u07_r4_network.node[13].content_store 	decision_yes[13] 	10020
scalar tree_4_3_u07_r4_network.node[13].content_store 	decision_no[13] 	0
scalar tree_4_3_u07_r4_network.node[13].content_store 	decision_ratio[13] 	1
scalar tree_4_3_u07_r4_network.node[14].core_layer 	interests[14] 	14199
scalar tree_4_3_u07_r4_network.node[14].core_layer 	data[14] 	10247
scalar tree_4_3_u07_r4_network.node[14].content_store 	p_hit[14] 	0.27832945982111
scalar tree_4_3_u07_r4_network.node[14].content_store 	hits[14] 	3952
scalar tree_4_3_u07_r4_network.node[14].content_store 	misses[14] 	10247
scalar tree_4_3_u07_r4_network.node[14].content_store 	decision_yes[14] 	10247
scalar tree_4_3_u07_r4_network.node[14].content_store 	decision_no[14] 	0
scalar tree_4_3_u07_r4_network.node[14].content_store 	decision_ratio[14] 	1
scalar tree_4_3_u07_r4_network.node[15].core_layer 	interests[15] 	13212
scalar tree_4_3_u07_r4_network.node[15].core_layer 	data[15] 	9856
scalar tree_4_3_u07_r4_network.node[15].content_store 	p_hit[15] 	0.25393581592492
scalar tree_4_3_u07_r4_network.node[15].content_store 	hits[15] 	3355
scalar tree_4_3_u07_r4_network.node[15].content_store 	misses[15] 	9857
scalar tree_4_3_u07_r4_network.node[15].content_store 	decision_yes[15] 	9856
scalar tree_4_3_u07_r4_network.node[15].content_store 	decision_no[15] 	0
scalar tree_4_3_u07_r4_network.node[15].content_store 	decision_ratio[15] 	1
scalar tree_4_3_u07_r4_network.node[16].core_layer 	interests[16] 	13162
scalar tree_4_3_u07_r4_network.node[16].core_layer 	data[16] 	10099
scalar tree_4_3_u07_r4_network.node[16].content_store 	p_hit[16] 	0.23271539279745
scalar tree_4_3_u07_r4_network.node[16].content_store 	hits[16] 	3063
scalar tree_4_3_u07_r4_network.node[16].content_store 	misses[16] 	10099
scalar tree_4_3_u07_r4_network.node[16].content_store 	decision_yes[16] 	10099
scalar tree_4_3_u07_r4_network.node[16].content_store 	decision_no[16] 	0
scalar tree_4_3_u07_r4_network.node[16].content_store 	decision_ratio[16] 	1
scalar tree_4_3_u07_r4_network.node[17].core_layer 	interests[17] 	13334
scalar tree_4_3_u07_r4_network.node[17].core_layer 	data[17] 	10364
scalar tree_4_3_u07_r4_network.node[17].content_store 	p_hit[17] 	0.22266386680666
scalar tree_4_3_u07_r4_network.node[17].content_store 	hits[17] 	2969
scalar tree_4_3_u07_r4_network.node[17].content_store 	misses[17] 	10365
scalar tree_4_3_u07_r4_network.node[17].content_store 	decision_yes[17] 	10364
scalar tree_4_3_u07_r4_network.node[17].content_store 	decision_no[17] 	0
scalar tree_4_3_u07_r4_network.node[17].content_store 	decision_ratio[17] 	1
scalar tree_4_3_u07_r4_network.node[18].core_layer 	interests[18] 	13489
scalar tree_4_3_u07_r4_network.node[18].core_layer 	data[18] 	9844
scalar tree_4_3_u07_r4_network.node[18].content_store 	p_hit[18] 	0.27022017940544
scalar tree_4_3_u07_r4_network.node[18].content_store 	hits[18] 	3645
scalar tree_4_3_u07_r4_network.node[18].content_store 	misses[18] 	9844
scalar tree_4_3_u07_r4_network.node[18].content_store 	decision_yes[18] 	9844
scalar tree_4_3_u07_r4_network.node[18].content_store 	decision_no[18] 	0
scalar tree_4_3_u07_r4_network.node[18].content_store 	decision_ratio[18] 	1
scalar tree_4_3_u07_r4_network.node[19].core_layer 	interests[19] 	13525
scalar tree_4_3_u07_r4_network.node[19].core_layer 	data[19] 	10075
scalar tree_4_3_u07_r4_network.node[19].content_store 	p_hit[19] 	0.25486136783734
scalar tree_4_3_u07_r4_network.node[19].content_store 	hits[19] 	3447
scalar tree_4_3_u07_r4_network.node[19].content_store 	misses[19] 	10078
scalar tree_4_3_u07_r4_network.node[19].content_store 	decision_yes[19] 	10075
scalar tree_4_3_u07_r4_network.node[19].content_store 	decision_no[19] 	0
scalar tree_4_3_u07_r4_network.node[19].content_store 	decision_ratio[19] 	1
scalar tree_4_3_u07_r4_network.node[20].core_layer 	interests[20] 	13342
scalar tree_4_3_u07_r4_network.node[20].core_layer 	data[20] 	9740
scalar tree_4_3_u07_r4_network.node[20].content_store 	p_hit[20] 	0.26997451656423
scalar tree_4_3_u07_r4_network.node[20].content_store 	hits[20] 	3602
scalar tree_4_3_u07_r4_network.node[20].content_store 	misses[20] 	9740
scalar tree_4_3_u07_r4_network.node[20].content_store 	decision_yes[20] 	9740
scalar tree_4_3_u07_r4_network.node[20].content_store 	decision_no[20] 	0
scalar tree_4_3_u07_r4_network.node[20].content_store 	decision_ratio[20] 	1
scalar tree_4_3_u07_r4_network.node[21].core_layer 	interests[21] 	12116
scalar tree_4_3_u07_r4_network.node[21].core_layer 	data[21] 	9926
scalar tree_4_3_u07_r4_network.node[21].content_store 	p_hit[21] 	0.18075272367118
scalar tree_4_3_u07_r4_network.node[21].content_store 	hits[21] 	2190
scalar tree_4_3_u07_r4_network.node[21].content_store 	misses[21] 	9926
scalar tree_4_3_u07_r4_network.node[21].content_store 	decision_yes[21] 	9926
scalar tree_4_3_u07_r4_network.node[21].content_store 	decision_no[21] 	0
scalar tree_4_3_u07_r4_network.node[21].content_store 	decision_ratio[21] 	1
scalar tree_4_3_u07_r4_network.node[22].core_layer 	interests[22] 	13568
scalar tree_4_3_u07_r4_network.node[22].core_layer 	data[22] 	9983
scalar tree_4_3_u07_r4_network.node[22].content_store 	p_hit[22] 	0.26422464622642
scalar tree_4_3_u07_r4_network.node[22].content_store 	hits[22] 	3585
scalar tree_4_3_u07_r4_network.node[22].content_store 	misses[22] 	9983
scalar tree_4_3_u07_r4_network.node[22].content_store 	decision_yes[22] 	9983
scalar tree_4_3_u07_r4_network.node[22].content_store 	decision_no[22] 	0
scalar tree_4_3_u07_r4_network.node[22].content_store 	decision_ratio[22] 	1
scalar tree_4_3_u07_r4_network.node[23].core_layer 	interests[23] 	14426
scalar tree_4_3_u07_r4_network.node[23].core_layer 	data[23] 	10101
scalar tree_4_3_u07_r4_network.node[23].content_store 	p_hit[23] 	0.29980590600305
scalar tree_4_3_u07_r4_network.node[23].content_store 	hits[23] 	4325
scalar tree_4_3_u07_r4_network.node[23].content_store 	misses[23] 	10101
scalar tree_4_3_u07_r4_network.node[23].content_store 	decision_yes[23] 	10101
scalar tree_4_3_u07_r4_network.node[23].content_store 	decision_no[23] 	0
scalar tree_4_3_u07_r4_network.node[23].content_store 	decision_ratio[23] 	1
scalar tree_4_3_u07_r4_network.node[24].core_layer 	interests[24] 	14402
scalar tree_4_3_u07_r4_network.node[24].core_layer 	data[24] 	10019
scalar tree_4_3_u07_r4_network.node[24].content_store 	p_hit[24] 	0.30433273156506
scalar tree_4_3_u07_r4_network.node[24].content_store 	hits[24] 	4383
scalar tree_4_3_u07_r4_network.node[24].content_store 	misses[24] 	10019
scalar tree_4_3_u07_r4_network.node[24].content_store 	decision_yes[24] 	10019
scalar tree_4_3_u07_r4_network.node[24].content_store 	decision_no[24] 	0
scalar tree_4_3_u07_r4_network.node[24].content_store 	decision_ratio[24] 	1
scalar tree_4_3_u07_r4_network.node[25].core_layer 	interests[25] 	14435
scalar tree_4_3_u07_r4_network.node[25].core_layer 	data[25] 	9967
scalar tree_4_3_u07_r4_network.node[25].content_store 	p_hit[25] 	0.30945618288881
scalar tree_4_3_u07_r4_network.node[25].content_store 	hits[25] 	4467
scalar tree_4_3_u07_r4_network.node[25].content_store 	misses[25] 	9968
scalar tree_4_3_u07_r4_network.node[25].content_store 	decision_yes[25] 	9967
scalar tree_4_3_u07_r4_network.node[25].content_store 	decision_no[25] 	0
scalar tree_4_3_u07_r4_network.node[25].content_store 	decision_ratio[25] 	1
scalar tree_4_3_u07_r4_network.node[26].core_layer 	interests[26] 	12895
scalar tree_4_3_u07_r4_network.node[26].core_layer 	data[26] 	10085
scalar tree_4_3_u07_r4_network.node[26].content_store 	p_hit[26] 	0.21791392012408
scalar tree_4_3_u07_r4_network.node[26].content_store 	hits[26] 	2810
scalar tree_4_3_u07_r4_network.node[26].content_store 	misses[26] 	10085
scalar tree_4_3_u07_r4_network.node[26].content_store 	decision_yes[26] 	10085
scalar tree_4_3_u07_r4_network.node[26].content_store 	decision_no[26] 	0
scalar tree_4_3_u07_r4_network.node[26].content_store 	decision_ratio[26] 	1
scalar tree_4_3_u07_r4_network.node[27].core_layer 	interests[27] 	13324
scalar tree_4_3_u07_r4_network.node[27].core_layer 	data[27] 	9982
scalar tree_4_3_u07_r4_network.node[27].content_store 	p_hit[27] 	0.25082557790453
scalar tree_4_3_u07_r4_network.node[27].content_store 	hits[27] 	3342
scalar tree_4_3_u07_r4_network.node[27].content_store 	misses[27] 	9982
scalar tree_4_3_u07_r4_network.node[27].content_store 	decision_yes[27] 	9982
scalar tree_4_3_u07_r4_network.node[27].content_store 	decision_no[27] 	0
scalar tree_4_3_u07_r4_network.node[27].content_store 	decision_ratio[27] 	1
scalar tree_4_3_u07_r4_network.node[28].core_layer 	interests[28] 	14405
scalar tree_4_3_u07_r4_network.node[28].core_layer 	data[28] 	9978
scalar tree_4_3_u07_r4_network.node[28].content_store 	p_hit[28] 	0.30732384588684
scalar tree_4_3_u07_r4_network.node[28].content_store 	hits[28] 	4427
scalar tree_4_3_u07_r4_network.node[28].content_store 	misses[28] 	9978
scalar tree_4_3_u07_r4_network.node[28].content_store 	decision_yes[28] 	9978
scalar tree_4_3_u07_r4_network.node[28].content_store 	decision_no[28] 	0
scalar tree_4_3_u07_r4_network.node[28].content_store 	decision_ratio[28] 	1
scalar tree_4_3_u07_r4_network.node[29].core_layer 	interests[29] 	13451
scalar tree_4_3_u07_r4_network.node[29].core_layer 	data[29] 	10045
scalar tree_4_3_u07_r4_network.node[29].content_store 	p_hit[29] 	0.25321537432161
scalar tree_4_3_u07_r4_network.node[29].content_store 	hits[29] 	3406
scalar tree_4_3_u07_r4_network.node[29].content_store 	misses[29] 	10045
scalar tree_4_3_u07_r4_network.node[29].content_store 	decision_yes[29] 	10045
scalar tree_4_3_u07_r4_network.node[29].content_store 	decision_no[29] 	0
scalar tree_4_3_u07_r4_network.node[29].content_store 	decision_ratio[29] 	1
scalar tree_4_3_u07_r4_network.node[30].core_layer 	interests[30] 	12293
scalar tree_4_3_u07_r4_network.node[30].core_layer 	data[30] 	10222
scalar tree_4_3_u07_r4_network.node[30].content_store 	p_hit[30] 	0.16846986089645
scalar tree_4_3_u07_r4_network.node[30].content_store 	hits[30] 	2071
scalar tree_4_3_u07_r4_network.node[30].content_store 	misses[30] 	10222
scalar tree_4_3_u07_r4_network.node[30].content_store 	decision_yes[30] 	10222
scalar tree_4_3_u07_r4_network.node[30].content_store 	decision_no[30] 	0
scalar tree_4_3_u07_r4_network.node[30].content_store 	decision_ratio[30] 	1
scalar tree_4_3_u07_r4_network.node[31].core_layer 	interests[31] 	12782
scalar tree_4_3_u07_r4_network.node[31].core_layer 	data[31] 	10029
scalar tree_4_3_u07_r4_network.node[31].content_store 	p_hit[31] 	0.21538100453763
scalar tree_4_3_u07_r4_network.node[31].content_store 	hits[31] 	2753
scalar tree_4_3_u07_r4_network.node[31].content_store 	misses[31] 	10029
scalar tree_4_3_u07_r4_network.node[31].content_store 	decision_yes[31] 	10029
scalar tree_4_3_u07_r4_network.node[31].content_store 	decision_no[31] 	0
scalar tree_4_3_u07_r4_network.node[31].content_store 	decision_ratio[31] 	1
scalar tree_4_3_u07_r4_network.node[32].core_layer 	interests[32] 	12771
scalar tree_4_3_u07_r4_network.node[32].core_layer 	data[32] 	9929
scalar tree_4_3_u07_r4_network.node[32].content_store 	p_hit[32] 	0.22253543183776
scalar tree_4_3_u07_r4_network.node[32].content_store 	hits[32] 	2842
scalar tree_4_3_u07_r4_network.node[32].content_store 	misses[32] 	9929
scalar tree_4_3_u07_r4_network.node[32].content_store 	decision_yes[32] 	9929
scalar tree_4_3_u07_r4_network.node[32].content_store 	decision_no[32] 	0
scalar tree_4_3_u07_r4_network.node[32].content_store 	decision_ratio[32] 	1
scalar tree_4_3_u07_r4_network.node[33].core_layer 	interests[33] 	13375
scalar tree_4_3_u07_r4_network.node[33].core_layer 	data[33] 	9930
scalar tree_4_3_u07_r4_network.node[33].content_store 	p_hit[33] 	0.2574953271028
scalar tree_4_3_u07_r4_network.node[33].content_store 	hits[33] 	3444
scalar tree_4_3_u07_r4_network.node[33].content_store 	misses[33] 	9931
scalar tree_4_3_u07_r4_network.node[33].content_store 	decision_yes[33] 	9930
scalar tree_4_3_u07_r4_network.node[33].content_store 	decision_no[33] 	0
scalar tree_4_3_u07_r4_network.node[33].content_store 	decision_ratio[33] 	1
scalar tree_4_3_u07_r4_network.node[34].core_layer 	interests[34] 	14453
scalar tree_4_3_u07_r4_network.node[34].core_layer 	data[34] 	9940
scalar tree_4_3_u07_r4_network.node[34].content_store 	p_hit[34] 	0.31225351138172
scalar tree_4_3_u07_r4_network.node[34].content_store 	hits[34] 	4513
scalar tree_4_3_u07_r4_network.node[34].content_store 	misses[34] 	9940
scalar tree_4_3_u07_r4_network.node[34].content_store 	decision_yes[34] 	9940
scalar tree_4_3_u07_r4_network.node[34].content_store 	decision_no[34] 	0
scalar tree_4_3_u07_r4_network.node[34].content_store 	decision_ratio[34] 	1
scalar tree_4_3_u07_r4_network.node[35].core_layer 	interests[35] 	13529
scalar tree_4_3_u07_r4_network.node[35].core_layer 	data[35] 	10126
scalar tree_4_3_u07_r4_network.node[35].content_store 	p_hit[35] 	0.25153374233129
scalar tree_4_3_u07_r4_network.node[35].content_store 	hits[35] 	3403
scalar tree_4_3_u07_r4_network.node[35].content_store 	misses[35] 	10126
scalar tree_4_3_u07_r4_network.node[35].content_store 	decision_yes[35] 	10126
scalar tree_4_3_u07_r4_network.node[35].content_store 	decision_no[35] 	0
scalar tree_4_3_u07_r4_network.node[35].content_store 	decision_ratio[35] 	1
scalar tree_4_3_u07_r4_network.node[36].core_layer 	interests[36] 	13236
scalar tree_4_3_u07_r4_network.node[36].core_layer 	data[36] 	9843
scalar tree_4_3_u07_r4_network.node[36].content_store 	p_hit[36] 	0.25611967361741
scalar tree_4_3_u07_r4_network.node[36].content_store 	hits[36] 	3390
scalar tree_4_3_u07_r4_network.node[36].content_store 	misses[36] 	9846
scalar tree_4_3_u07_r4_network.node[36].content_store 	decision_yes[36] 	9843
scalar tree_4_3_u07_r4_network.node[36].content_store 	decision_no[36] 	0
scalar tree_4_3_u07_r4_network.node[36].content_store 	decision_ratio[36] 	1
scalar tree_4_3_u07_r4_network.node[37].core_layer 	interests[37] 	13564
scalar tree_4_3_u07_r4_network.node[37].core_layer 	data[37] 	10222
scalar tree_4_3_u07_r4_network.node[37].content_store 	p_hit[37] 	0.24631377174875
scalar tree_4_3_u07_r4_network.node[37].content_store 	hits[37] 	3341
scalar tree_4_3_u07_r4_network.node[37].content_store 	misses[37] 	10223
scalar tree_4_3_u07_r4_network.node[37].content_store 	decision_yes[37] 	10222
scalar tree_4_3_u07_r4_network.node[37].content_store 	decision_no[37] 	0
scalar tree_4_3_u07_r4_network.node[37].content_store 	decision_ratio[37] 	1
scalar tree_4_3_u07_r4_network.node[38].core_layer 	interests[38] 	14487
scalar tree_4_3_u07_r4_network.node[38].core_layer 	data[38] 	10372
scalar tree_4_3_u07_r4_network.node[38].content_store 	p_hit[38] 	0.28404776696348
scalar tree_4_3_u07_r4_network.node[38].content_store 	hits[38] 	4115
scalar tree_4_3_u07_r4_network.node[38].content_store 	misses[38] 	10372
scalar tree_4_3_u07_r4_network.node[38].content_store 	decision_yes[38] 	10372
scalar tree_4_3_u07_r4_network.node[38].content_store 	decision_no[38] 	0
scalar tree_4_3_u07_r4_network.node[38].content_store 	decision_ratio[38] 	1
scalar tree_4_3_u07_r4_network.node[39].core_layer 	interests[39] 	12026
scalar tree_4_3_u07_r4_network.node[39].core_layer 	data[39] 	9903
scalar tree_4_3_u07_r4_network.node[39].content_store 	p_hit[39] 	0.1765341759521
scalar tree_4_3_u07_r4_network.node[39].content_store 	hits[39] 	2123
scalar tree_4_3_u07_r4_network.node[39].content_store 	misses[39] 	9903
scalar tree_4_3_u07_r4_network.node[39].content_store 	decision_yes[39] 	9903
scalar tree_4_3_u07_r4_network.node[39].content_store 	decision_no[39] 	0
scalar tree_4_3_u07_r4_network.node[39].content_store 	decision_ratio[39] 	1
scalar tree_4_3_u07_r4_network.client[13] 	hdistance[13] 	3.103592663931
scalar tree_4_3_u07_r4_network.client[13] 	downloads[13] 	11941
scalar tree_4_3_u07_r4_network.client[13] 	avg_time[13] 	0.004912249648
scalar tree_4_3_u07_r4_network.client[14] 	hdistance[14] 	3.001223690651
scalar tree_4_3_u07_r4_network.client[14] 	downloads[14] 	12258
scalar tree_4_3_u07_r4_network.client[14] 	avg_time[14] 	0.004706638507
scalar tree_4_3_u07_r4_network.client[15] 	hdistance[15] 	2.9974511469838
scalar tree_4_3_u07_r4_network.client[15] 	downloads[15] 	11770
scalar tree_4_3_u07_r4_network.client[15] 	avg_time[15] 	0.004696864044
scalar tree_4_3_u07_r4_network.client[16] 	hdistance[16] 	3.0511677808038
scalar tree_4_3_u07_r4_network.client[16] 	downloads[16] 	12117
scalar tree_4_3_u07_r4_network.client[16] 	avg_time[16] 	0.004816493741
scalar tree_4_3_u07_r4_network.client[17] 	hdistance[17] 	3.0910720104268
scalar tree_4_3_u07_r4_network.client[17] 	downloads[17] 	12276
scalar tree_4_3_u07_r4_network.client[17] 	avg_time[17] 	0.00487991601
scalar tree_4_3_u07_r4_network.client[18] 	hdistance[18] 	2.9821124361158
scalar tree_4_3_u07_r4_network.client[18] 	downloads[18] 	11740
scalar tree_4_3_u07_r4_network.client[18] 	avg_time[18] 	0.004675852972
scalar tree_4_3_u07_r4_network.client[19] 	hdistance[19] 	2.9884742951907
scalar tree_4_3_u07_r4_network.client[19] 	downloads[19] 	12060
scalar tree_4_3_u07_r4_network.client[19] 	avg_time[19] 	0.004682182683
scalar tree_4_3_u07_r4_network.client[20] 	hdistance[20] 	2.9650643776824
scalar tree_4_3_u07_r4_network.client[20] 	downloads[20] 	11650
scalar tree_4_3_u07_r4_network.client[20] 	avg_time[20] 	0.00464085546
scalar tree_4_3_u07_r4_network.client[21] 	hdistance[21] 	3.0636072211912
scalar tree_4_3_u07_r4_network.client[21] 	downloads[21] 	11854
scalar tree_4_3_u07_r4_network.client[21] 	avg_time[21] 	0.004839630953
scalar tree_4_3_u07_r4_network.client[22] 	hdistance[22] 	3.0190532147054
scalar tree_4_3_u07_r4_network.client[22] 	downloads[22] 	11914
scalar tree_4_3_u07_r4_network.client[22] 	avg_time[22] 	0.004828681446
scalar tree_4_3_u07_r4_network.client[23] 	hdistance[23] 	2.9667330346773
scalar tree_4_3_u07_r4_network.client[23] 	downloads[23] 	12054
scalar tree_4_3_u07_r4_network.client[23] 	avg_time[23] 	0.004710632474
scalar tree_4_3_u07_r4_network.client[24] 	hdistance[24] 	2.941260026738
scalar tree_4_3_u07_r4_network.client[24] 	downloads[24] 	11968
scalar tree_4_3_u07_r4_network.client[24] 	avg_time[24] 	0.004659904161
scalar tree_4_3_u07_r4_network.client[25] 	hdistance[25] 	2.9504470627559
scalar tree_4_3_u07_r4_network.client[25] 	downloads[25] 	11967
scalar tree_4_3_u07_r4_network.client[25] 	avg_time[25] 	0.004679271048
scalar tree_4_3_u07_r4_network.client[26] 	hdistance[26] 	3.0500082795165
scalar tree_4_3_u07_r4_network.client[26] 	downloads[26] 	12078
scalar tree_4_3_u07_r4_network.client[26] 	avg_time[26] 	0.004814866971
scalar tree_4_3_u07_r4_network.client[27] 	hdistance[27] 	2.9629691689008
scalar tree_4_3_u07_r4_network.client[27] 	downloads[27] 	11936
scalar tree_4_3_u07_r4_network.client[27] 	avg_time[27] 	0.004624504612
scalar tree_4_3_u07_r4_network.client[28] 	hdistance[28] 	2.9453616022794
scalar tree_4_3_u07_r4_network.client[28] 	downloads[28] 	11933
scalar tree_4_3_u07_r4_network.client[28] 	avg_time[28] 	0.004672082831
scalar tree_4_3_u07_r4_network.client[29] 	hdistance[29] 	2.962707641196
scalar tree_4_3_u07_r4_network.client[29] 	downloads[29] 	12040
scalar tree_4_3_u07_r4_network.client[29] 	avg_time[29] 	0.004627571722
scalar tree_4_3_u07_r4_network.client[30] 	hdistance[30] 	3.0948777648428
scalar tree_4_3_u07_r4_network.client[30] 	downloads[30] 	12026
scalar tree_4_3_u07_r4_network.client[30] 	avg_time[30] 	0.004875664598
scalar tree_4_3_u07_r4_network.client[31] 	hdistance[31] 	3.1012349827775
scalar tree_4_3_u07_r4_network.client[31] 	downloads[31] 	11903
scalar tree_4_3_u07_r4_network.client[31] 	avg_time[31] 	0.004832193469
scalar tree_4_3_u07_r4_network.client[32] 	hdistance[32] 	3.0712066504324
scalar tree_4_3_u07_r4_network.client[32] 	downloads[32] 	11909
scalar tree_4_3_u07_r4_network.client[32] 	avg_time[32] 	0.004784626935
scalar tree_4_3_u07_r4_network.client[33] 	hdistance[33] 	2.9741206030151
scalar tree_4_3_u07_r4_network.client[33] 	downloads[33] 	11940
scalar tree_4_3_u07_r4_network.client[33] 	avg_time[33] 	0.004605465678
scalar tree_4_3_u07_r4_network.client[34] 	hdistance[34] 	2.9549489197789
scalar tree_4_3_u07_r4_network.client[34] 	downloads[34] 	11942
scalar tree_4_3_u07_r4_network.client[34] 	avg_time[34] 	0.004664709792
scalar tree_4_3_u07_r4_network.client[35] 	hdistance[35] 	3.0568115942029
scalar tree_4_3_u07_r4_network.client[35] 	downloads[35] 	12075
scalar tree_4_3_u07_r4_network.client[35] 	avg_time[35] 	0.004862936927
scalar tree_4_3_u07_r4_network.client[36] 	hdistance[36] 	3.0449571634575
scalar tree_4_3_u07_r4_network.client[36] 	downloads[36] 	11789
scalar tree_4_3_u07_r4_network.client[36] 	avg_time[36] 	0.004843066571
scalar tree_4_3_u07_r4_network.client[37] 	hdistance[37] 	3.0283267457181
scalar tree_4_3_u07_r4_network.client[37] 	downloads[37] 	12144
scalar tree_4_3_u07_r4_network.client[37] 	avg_time[37] 	0.004683462055
scalar tree_4_3_u07_r4_network.client[38] 	hdistance[38] 	2.9881848345068
scalar tree_4_3_u07_r4_network.client[38] 	downloads[38] 	12357
scalar tree_4_3_u07_r4_network.client[38] 	avg_time[38] 	0.004717484967
scalar tree_4_3_u07_r4_network.client[39] 	hdistance[39] 	3.0916230366492
scalar tree_4_3_u07_r4_network.client[39] 	downloads[39] 	11842
scalar tree_4_3_u07_r4_network.client[39] 	avg_time[39] 	0.004831375032
