version 2
run General-159-20160819-17:31:03-23511
attr a 0.9
attr cd lce
attr configname General
attr cr lru
attr datetime 20160819-17:31:03
attr experiment General
attr fsize 1
attr inifile hw5115/scenario_A/NRR-LCE.ini
attr iterationvars "$name=tree_4_3, $un=07, $rep=20, $cd=lce, $cr=lru, $fsize=1, $a=0.9, $sl=nrr, $ttl=1000, $variance=0.05"
attr iterationvars2 "$name=tree_4_3, $un=07, $rep=20, $cd=lce, $cr=lru, $fsize=1, $a=0.9, $sl=nrr, $ttl=1000, $variance=0.05, $repetition=0"
attr measurement "$name=tree_4_3, $un=07, $rep=20, $cd=lce, $cr=lru, $fsize=1, $a=0.9, $sl=nrr, $ttl=1000, $variance=0.05"
attr name tree_4_3
attr network networks.${name}_u${un}_r${rep}_network
attr processid 23511
attr rep 20
attr repetition 0
attr replication #0
attr resultdir results
attr runnumber 159
attr seedset 20
attr sl nrr
attr ttl 1000
attr un 07
attr variance 0.05

scalar . 	a 	0.9
scalar . 	fsize 	1
scalar . 	rep 	20
scalar . 	ttl 	1000
scalar . 	un 	07
scalar . 	variance 	0.05
scalar tree_4_3_u07_r20_network.content_distribution 	repo-0 	0
scalar tree_4_3_u07_r20_network.content_distribution 	client-0 	13
scalar tree_4_3_u07_r20_network.content_distribution 	client-1 	14
scalar tree_4_3_u07_r20_network.content_distribution 	client-2 	15
scalar tree_4_3_u07_r20_network.content_distribution 	client-3 	16
scalar tree_4_3_u07_r20_network.content_distribution 	client-4 	17
scalar tree_4_3_u07_r20_network.content_distribution 	client-5 	18
scalar tree_4_3_u07_r20_network.content_distribution 	client-6 	19
scalar tree_4_3_u07_r20_network.content_distribution 	client-7 	20
scalar tree_4_3_u07_r20_network.content_distribution 	client-8 	21
scalar tree_4_3_u07_r20_network.content_distribution 	client-9 	22
scalar tree_4_3_u07_r20_network.content_distribution 	client-10 	23
scalar tree_4_3_u07_r20_network.content_distribution 	client-11 	24
scalar tree_4_3_u07_r20_network.content_distribution 	client-12 	25
scalar tree_4_3_u07_r20_network.content_distribution 	client-13 	26
scalar tree_4_3_u07_r20_network.content_distribution 	client-14 	27
scalar tree_4_3_u07_r20_network.content_distribution 	client-15 	28
scalar tree_4_3_u07_r20_network.content_distribution 	client-16 	29
scalar tree_4_3_u07_r20_network.content_distribution 	client-17 	30
scalar tree_4_3_u07_r20_network.content_distribution 	client-18 	31
scalar tree_4_3_u07_r20_network.content_distribution 	client-19 	32
scalar tree_4_3_u07_r20_network.content_distribution 	client-20 	33
scalar tree_4_3_u07_r20_network.content_distribution 	client-21 	34
scalar tree_4_3_u07_r20_network.content_distribution 	client-22 	35
scalar tree_4_3_u07_r20_network.content_distribution 	client-23 	36
scalar tree_4_3_u07_r20_network.content_distribution 	client-24 	37
scalar tree_4_3_u07_r20_network.content_distribution 	client-25 	38
scalar tree_4_3_u07_r20_network.content_distribution 	client-26 	39
scalar tree_4_3_u07_r20_network.content_distribution 	repo-0_card 	100000
scalar tree_4_3_u07_r20_network.content_distribution 	repo-0_price 	0
scalar tree_4_3_u07_r20_network.statistics 	stabilization_time 	410.1
scalar tree_4_3_u07_r20_network.statistics 	p_hit 	0.18422920169856
scalar tree_4_3_u07_r20_network.statistics 	interests 	27311.35
scalar tree_4_3_u07_r20_network.statistics 	data 	19199.525
scalar tree_4_3_u07_r20_network.statistics 	hdistance 	3.0269134325336
scalar tree_4_3_u07_r20_network.statistics 	avg_time 	0.004733536888
scalar tree_4_3_u07_r20_network.statistics 	downloads 	324453
scalar tree_4_3_u07_r20_network.statistics 	total_cost 	0
scalar tree_4_3_u07_r20_network.statistics 	total_replicas 	100000
scalar tree_4_3_u07_r20_network.statistics 	inner_hit 	0.33988590026907
scalar tree_4_3_u07_r20_network.node[0].core_layer 	interests[0] 	215422
scalar tree_4_3_u07_r20_network.node[0].core_layer 	repo_load[0] 	214176
scalar tree_4_3_u07_r20_network.node[0].core_layer 	data[0] 	0
scalar tree_4_3_u07_r20_network.node[0].core_layer 	repo_int[0] 	214176
scalar tree_4_3_u07_r20_network.node[0].content_store 	p_hit[0] 	0.0057839960635404
scalar tree_4_3_u07_r20_network.node[0].content_store 	hits[0] 	1246
scalar tree_4_3_u07_r20_network.node[0].content_store 	misses[0] 	214176
scalar tree_4_3_u07_r20_network.node[0].content_store 	decision_yes[0] 	214176
scalar tree_4_3_u07_r20_network.node[0].content_store 	decision_no[0] 	0
scalar tree_4_3_u07_r20_network.node[0].content_store 	decision_ratio[0] 	1
scalar tree_4_3_u07_r20_network.node[1].core_layer 	interests[1] 	77157
scalar tree_4_3_u07_r20_network.node[1].core_layer 	data[1] 	76630
scalar tree_4_3_u07_r20_network.node[1].content_store 	p_hit[1] 	0.0068043080990707
scalar tree_4_3_u07_r20_network.node[1].content_store 	hits[1] 	525
scalar tree_4_3_u07_r20_network.node[1].content_store 	misses[1] 	76632
scalar tree_4_3_u07_r20_network.node[1].content_store 	decision_yes[1] 	76625
scalar tree_4_3_u07_r20_network.node[1].content_store 	decision_no[1] 	0
scalar tree_4_3_u07_r20_network.node[1].content_store 	decision_ratio[1] 	1
scalar tree_4_3_u07_r20_network.node[2].core_layer 	interests[2] 	118475
scalar tree_4_3_u07_r20_network.node[2].core_layer 	data[2] 	117545
scalar tree_4_3_u07_r20_network.node[2].content_store 	p_hit[2] 	0.0078075543363579
scalar tree_4_3_u07_r20_network.node[2].content_store 	hits[2] 	925
scalar tree_4_3_u07_r20_network.node[2].content_store 	misses[2] 	117550
scalar tree_4_3_u07_r20_network.node[2].content_store 	decision_yes[2] 	117536
scalar tree_4_3_u07_r20_network.node[2].content_store 	decision_no[2] 	0
scalar tree_4_3_u07_r20_network.node[2].content_store 	decision_ratio[2] 	1
scalar tree_4_3_u07_r20_network.node[3].core_layer 	interests[3] 	34676
scalar tree_4_3_u07_r20_network.node[3].core_layer 	data[3] 	34236
scalar tree_4_3_u07_r20_network.node[3].content_store 	p_hit[3] 	0.012688891452301
scalar tree_4_3_u07_r20_network.node[3].content_store 	hits[3] 	440
scalar tree_4_3_u07_r20_network.node[3].content_store 	misses[3] 	34236
scalar tree_4_3_u07_r20_network.node[3].content_store 	decision_yes[3] 	34236
scalar tree_4_3_u07_r20_network.node[3].content_store 	decision_no[3] 	0
scalar tree_4_3_u07_r20_network.node[3].content_store 	decision_ratio[3] 	1
scalar tree_4_3_u07_r20_network.node[4].core_layer 	interests[4] 	38767
scalar tree_4_3_u07_r20_network.node[4].core_layer 	data[4] 	37757
scalar tree_4_3_u07_r20_network.node[4].content_store 	p_hit[4] 	0.026001496117832
scalar tree_4_3_u07_r20_network.node[4].content_store 	hits[4] 	1008
scalar tree_4_3_u07_r20_network.node[4].content_store 	misses[4] 	37759
scalar tree_4_3_u07_r20_network.node[4].content_store 	decision_yes[4] 	37753
scalar tree_4_3_u07_r20_network.node[4].content_store 	decision_no[4] 	0
scalar tree_4_3_u07_r20_network.node[4].content_store 	decision_ratio[4] 	1
scalar tree_4_3_u07_r20_network.node[5].core_layer 	interests[5] 	30579
scalar tree_4_3_u07_r20_network.node[5].core_layer 	data[5] 	29031
scalar tree_4_3_u07_r20_network.node[5].content_store 	p_hit[5] 	0.050622976552536
scalar tree_4_3_u07_r20_network.node[5].content_store 	hits[5] 	1548
scalar tree_4_3_u07_r20_network.node[5].content_store 	misses[5] 	29031
scalar tree_4_3_u07_r20_network.node[5].content_store 	decision_yes[5] 	29027
scalar tree_4_3_u07_r20_network.node[5].content_store 	decision_no[5] 	0
scalar tree_4_3_u07_r20_network.node[5].content_store 	decision_ratio[5] 	1
scalar tree_4_3_u07_r20_network.node[6].core_layer 	interests[6] 	23552
scalar tree_4_3_u07_r20_network.node[6].core_layer 	data[6] 	21284
scalar tree_4_3_u07_r20_network.node[6].content_store 	p_hit[6] 	0.096297554347826
scalar tree_4_3_u07_r20_network.node[6].content_store 	hits[6] 	2268
scalar tree_4_3_u07_r20_network.node[6].content_store 	misses[6] 	21284
scalar tree_4_3_u07_r20_network.node[6].content_store 	decision_yes[6] 	21283
scalar tree_4_3_u07_r20_network.node[6].content_store 	decision_no[6] 	0
scalar tree_4_3_u07_r20_network.node[6].content_store 	decision_ratio[6] 	1
scalar tree_4_3_u07_r20_network.node[7].core_layer 	interests[7] 	39894
scalar tree_4_3_u07_r20_network.node[7].core_layer 	data[7] 	38579
scalar tree_4_3_u07_r20_network.node[7].content_store 	p_hit[7] 	0.032912217376047
scalar tree_4_3_u07_r20_network.node[7].content_store 	hits[7] 	1313
scalar tree_4_3_u07_r20_network.node[7].content_store 	misses[7] 	38581
scalar tree_4_3_u07_r20_network.node[7].content_store 	decision_yes[7] 	38578
scalar tree_4_3_u07_r20_network.node[7].content_store 	decision_no[7] 	0
scalar tree_4_3_u07_r20_network.node[7].content_store 	decision_ratio[7] 	1
scalar tree_4_3_u07_r20_network.node[8].core_layer 	interests[8] 	31622
scalar tree_4_3_u07_r20_network.node[8].core_layer 	data[8] 	29561
scalar tree_4_3_u07_r20_network.node[8].content_store 	p_hit[8] 	0.065144519638227
scalar tree_4_3_u07_r20_network.node[8].content_store 	hits[8] 	2060
scalar tree_4_3_u07_r20_network.node[8].content_store 	misses[8] 	29562
scalar tree_4_3_u07_r20_network.node[8].content_store 	decision_yes[8] 	29561
scalar tree_4_3_u07_r20_network.node[8].content_store 	decision_no[8] 	0
scalar tree_4_3_u07_r20_network.node[8].content_store 	decision_ratio[8] 	1
scalar tree_4_3_u07_r20_network.node[9].core_layer 	interests[9] 	24502
scalar tree_4_3_u07_r20_network.node[9].core_layer 	data[9] 	21698
scalar tree_4_3_u07_r20_network.node[9].content_store 	p_hit[9] 	0.11443963758061
scalar tree_4_3_u07_r20_network.node[9].content_store 	hits[9] 	2804
scalar tree_4_3_u07_r20_network.node[9].content_store 	misses[9] 	21698
scalar tree_4_3_u07_r20_network.node[9].content_store 	decision_yes[9] 	21697
scalar tree_4_3_u07_r20_network.node[9].content_store 	decision_no[9] 	0
scalar tree_4_3_u07_r20_network.node[9].content_store 	decision_ratio[9] 	1
scalar tree_4_3_u07_r20_network.node[10].core_layer 	interests[10] 	30657
scalar tree_4_3_u07_r20_network.node[10].core_layer 	data[10] 	29234
scalar tree_4_3_u07_r20_network.node[10].content_store 	p_hit[10] 	0.046482043252764
scalar tree_4_3_u07_r20_network.node[10].content_store 	hits[10] 	1425
scalar tree_4_3_u07_r20_network.node[10].content_store 	misses[10] 	29232
scalar tree_4_3_u07_r20_network.node[10].content_store 	decision_yes[10] 	29233
scalar tree_4_3_u07_r20_network.node[10].content_store 	decision_no[10] 	0
scalar tree_4_3_u07_r20_network.node[10].content_store 	decision_ratio[10] 	1
scalar tree_4_3_u07_r20_network.node[11].core_layer 	interests[11] 	51163
scalar tree_4_3_u07_r20_network.node[11].core_layer 	data[11] 	49051
scalar tree_4_3_u07_r20_network.node[11].content_store 	p_hit[11] 	0.041162558880441
scalar tree_4_3_u07_r20_network.node[11].content_store 	hits[11] 	2106
scalar tree_4_3_u07_r20_network.node[11].content_store 	misses[11] 	49057
scalar tree_4_3_u07_r20_network.node[11].content_store 	decision_yes[11] 	49046
scalar tree_4_3_u07_r20_network.node[11].content_store 	decision_no[11] 	0
scalar tree_4_3_u07_r20_network.node[11].content_store 	decision_ratio[11] 	1
scalar tree_4_3_u07_r20_network.node[12].core_layer 	interests[12] 	14154
scalar tree_4_3_u07_r20_network.node[12].core_layer 	data[12] 	11477
scalar tree_4_3_u07_r20_network.node[12].content_store 	p_hit[12] 	0.18913381376289
scalar tree_4_3_u07_r20_network.node[12].content_store 	hits[12] 	2677
scalar tree_4_3_u07_r20_network.node[12].content_store 	misses[12] 	11477
scalar tree_4_3_u07_r20_network.node[12].content_store 	decision_yes[12] 	11476
scalar tree_4_3_u07_r20_network.node[12].content_store 	decision_no[12] 	0
scalar tree_4_3_u07_r20_network.node[12].content_store 	decision_ratio[12] 	1
scalar tree_4_3_u07_r20_network.node[13].core_layer 	interests[13] 	12869
scalar tree_4_3_u07_r20_network.node[13].core_layer 	data[13] 	10094
scalar tree_4_3_u07_r20_network.node[13].content_store 	p_hit[13] 	0.21563447043282
scalar tree_4_3_u07_r20_network.node[13].content_store 	hits[13] 	2775
scalar tree_4_3_u07_r20_network.node[13].content_store 	misses[13] 	10094
scalar tree_4_3_u07_r20_network.node[13].content_store 	decision_yes[13] 	10094
scalar tree_4_3_u07_r20_network.node[13].content_store 	decision_no[13] 	0
scalar tree_4_3_u07_r20_network.node[13].content_store 	decision_ratio[13] 	1
scalar tree_4_3_u07_r20_network.node[14].core_layer 	interests[14] 	13646
scalar tree_4_3_u07_r20_network.node[14].core_layer 	data[14] 	10229
scalar tree_4_3_u07_r20_network.node[14].content_store 	p_hit[14] 	0.25025648541697
scalar tree_4_3_u07_r20_network.node[14].content_store 	hits[14] 	3415
scalar tree_4_3_u07_r20_network.node[14].content_store 	misses[14] 	10231
scalar tree_4_3_u07_r20_network.node[14].content_store 	decision_yes[14] 	10229
scalar tree_4_3_u07_r20_network.node[14].content_store 	decision_no[14] 	0
scalar tree_4_3_u07_r20_network.node[14].content_store 	decision_ratio[14] 	1
scalar tree_4_3_u07_r20_network.node[15].core_layer 	interests[15] 	13786
scalar tree_4_3_u07_r20_network.node[15].core_layer 	data[15] 	10151
scalar tree_4_3_u07_r20_network.node[15].content_store 	p_hit[15] 	0.26367329174525
scalar tree_4_3_u07_r20_network.node[15].content_store 	hits[15] 	3635
scalar tree_4_3_u07_r20_network.node[15].content_store 	misses[15] 	10151
scalar tree_4_3_u07_r20_network.node[15].content_store 	decision_yes[15] 	10151
scalar tree_4_3_u07_r20_network.node[15].content_store 	decision_no[15] 	0
scalar tree_4_3_u07_r20_network.node[15].content_store 	decision_ratio[15] 	1
scalar tree_4_3_u07_r20_network.node[16].core_layer 	interests[16] 	13579
scalar tree_4_3_u07_r20_network.node[16].core_layer 	data[16] 	10110
scalar tree_4_3_u07_r20_network.node[16].content_store 	p_hit[16] 	0.25546800206201
scalar tree_4_3_u07_r20_network.node[16].content_store 	hits[16] 	3469
scalar tree_4_3_u07_r20_network.node[16].content_store 	misses[16] 	10110
scalar tree_4_3_u07_r20_network.node[16].content_store 	decision_yes[16] 	10110
scalar tree_4_3_u07_r20_network.node[16].content_store 	decision_no[16] 	0
scalar tree_4_3_u07_r20_network.node[16].content_store 	decision_ratio[16] 	1
scalar tree_4_3_u07_r20_network.node[17].core_layer 	interests[17] 	12858
scalar tree_4_3_u07_r20_network.node[17].core_layer 	data[17] 	10063
scalar tree_4_3_u07_r20_network.node[17].content_store 	p_hit[17] 	0.21729662466947
scalar tree_4_3_u07_r20_network.node[17].content_store 	hits[17] 	2794
scalar tree_4_3_u07_r20_network.node[17].content_store 	misses[17] 	10064
scalar tree_4_3_u07_r20_network.node[17].content_store 	decision_yes[17] 	10063
scalar tree_4_3_u07_r20_network.node[17].content_store 	decision_no[17] 	0
scalar tree_4_3_u07_r20_network.node[17].content_store 	decision_ratio[17] 	1
scalar tree_4_3_u07_r20_network.node[18].core_layer 	interests[18] 	13321
scalar tree_4_3_u07_r20_network.node[18].core_layer 	data[18] 	9924
scalar tree_4_3_u07_r20_network.node[18].content_store 	p_hit[18] 	0.25501088506869
scalar tree_4_3_u07_r20_network.node[18].content_store 	hits[18] 	3397
scalar tree_4_3_u07_r20_network.node[18].content_store 	misses[18] 	9924
scalar tree_4_3_u07_r20_network.node[18].content_store 	decision_yes[18] 	9924
scalar tree_4_3_u07_r20_network.node[18].content_store 	decision_no[18] 	0
scalar tree_4_3_u07_r20_network.node[18].content_store 	decision_ratio[18] 	1
scalar tree_4_3_u07_r20_network.node[19].core_layer 	interests[19] 	12723
scalar tree_4_3_u07_r20_network.node[19].core_layer 	data[19] 	9979
scalar tree_4_3_u07_r20_network.node[19].content_store 	p_hit[19] 	0.21567240430716
scalar tree_4_3_u07_r20_network.node[19].content_store 	hits[19] 	2744
scalar tree_4_3_u07_r20_network.node[19].content_store 	misses[19] 	9979
scalar tree_4_3_u07_r20_network.node[19].content_store 	decision_yes[19] 	9979
scalar tree_4_3_u07_r20_network.node[19].content_store 	decision_no[19] 	0
scalar tree_4_3_u07_r20_network.node[19].content_store 	decision_ratio[19] 	1
scalar tree_4_3_u07_r20_network.node[20].core_layer 	interests[20] 	13459
scalar tree_4_3_u07_r20_network.node[20].core_layer 	data[20] 	9890
scalar tree_4_3_u07_r20_network.node[20].content_store 	p_hit[20] 	0.26517571884984
scalar tree_4_3_u07_r20_network.node[20].content_store 	hits[20] 	3569
scalar tree_4_3_u07_r20_network.node[20].content_store 	misses[20] 	9890
scalar tree_4_3_u07_r20_network.node[20].content_store 	decision_yes[20] 	9890
scalar tree_4_3_u07_r20_network.node[20].content_store 	decision_no[20] 	0
scalar tree_4_3_u07_r20_network.node[20].content_store 	decision_ratio[20] 	1
scalar tree_4_3_u07_r20_network.node[21].core_layer 	interests[21] 	12722
scalar tree_4_3_u07_r20_network.node[21].core_layer 	data[21] 	10136
scalar tree_4_3_u07_r20_network.node[21].content_store 	p_hit[21] 	0.20319132211916
scalar tree_4_3_u07_r20_network.node[21].content_store 	hits[21] 	2585
scalar tree_4_3_u07_r20_network.node[21].content_store 	misses[21] 	10137
scalar tree_4_3_u07_r20_network.node[21].content_store 	decision_yes[21] 	10136
scalar tree_4_3_u07_r20_network.node[21].content_store 	decision_no[21] 	0
scalar tree_4_3_u07_r20_network.node[21].content_store 	decision_ratio[21] 	1
scalar tree_4_3_u07_r20_network.node[22].core_layer 	interests[22] 	12966
scalar tree_4_3_u07_r20_network.node[22].core_layer 	data[22] 	10080
scalar tree_4_3_u07_r20_network.node[22].content_store 	p_hit[22] 	0.22258213789912
scalar tree_4_3_u07_r20_network.node[22].content_store 	hits[22] 	2886
scalar tree_4_3_u07_r20_network.node[22].content_store 	misses[22] 	10080
scalar tree_4_3_u07_r20_network.node[22].content_store 	decision_yes[22] 	10080
scalar tree_4_3_u07_r20_network.node[22].content_store 	decision_no[22] 	0
scalar tree_4_3_u07_r20_network.node[22].content_store 	decision_ratio[22] 	1
scalar tree_4_3_u07_r20_network.node[23].core_layer 	interests[23] 	13860
scalar tree_4_3_u07_r20_network.node[23].core_layer 	data[23] 	10174
scalar tree_4_3_u07_r20_network.node[23].content_store 	p_hit[23] 	0.26580086580087
scalar tree_4_3_u07_r20_network.node[23].content_store 	hits[23] 	3684
scalar tree_4_3_u07_r20_network.node[23].content_store 	misses[23] 	10176
scalar tree_4_3_u07_r20_network.node[23].content_store 	decision_yes[23] 	10174
scalar tree_4_3_u07_r20_network.node[23].content_store 	decision_no[23] 	0
scalar tree_4_3_u07_r20_network.node[23].content_store 	decision_ratio[23] 	1
scalar tree_4_3_u07_r20_network.node[24].core_layer 	interests[24] 	14036
scalar tree_4_3_u07_r20_network.node[24].core_layer 	data[24] 	10097
scalar tree_4_3_u07_r20_network.node[24].content_store 	p_hit[24] 	0.28063550869194
scalar tree_4_3_u07_r20_network.node[24].content_store 	hits[24] 	3939
scalar tree_4_3_u07_r20_network.node[24].content_store 	misses[24] 	10097
scalar tree_4_3_u07_r20_network.node[24].content_store 	decision_yes[24] 	10097
scalar tree_4_3_u07_r20_network.node[24].content_store 	decision_no[24] 	0
scalar tree_4_3_u07_r20_network.node[24].content_store 	decision_ratio[24] 	1
scalar tree_4_3_u07_r20_network.node[25].core_layer 	interests[25] 	13912
scalar tree_4_3_u07_r20_network.node[25].core_layer 	data[25] 	10245
scalar tree_4_3_u07_r20_network.node[25].content_store 	p_hit[25] 	0.26344163312248
scalar tree_4_3_u07_r20_network.node[25].content_store 	hits[25] 	3665
scalar tree_4_3_u07_r20_network.node[25].content_store 	misses[25] 	10247
scalar tree_4_3_u07_r20_network.node[25].content_store 	decision_yes[25] 	10245
scalar tree_4_3_u07_r20_network.node[25].content_store 	decision_no[25] 	0
scalar tree_4_3_u07_r20_network.node[25].content_store 	decision_ratio[25] 	1
scalar tree_4_3_u07_r20_network.node[26].core_layer 	interests[26] 	12798
scalar tree_4_3_u07_r20_network.node[26].core_layer 	data[26] 	10016
scalar tree_4_3_u07_r20_network.node[26].content_store 	p_hit[26] 	0.21729957805907
scalar tree_4_3_u07_r20_network.node[26].content_store 	hits[26] 	2781
scalar tree_4_3_u07_r20_network.node[26].content_store 	misses[26] 	10017
scalar tree_4_3_u07_r20_network.node[26].content_store 	decision_yes[26] 	10016
scalar tree_4_3_u07_r20_network.node[26].content_store 	decision_no[26] 	0
scalar tree_4_3_u07_r20_network.node[26].content_store 	decision_ratio[26] 	1
scalar tree_4_3_u07_r20_network.node[27].core_layer 	interests[27] 	13845
scalar tree_4_3_u07_r20_network.node[27].core_layer 	data[27] 	9984
scalar tree_4_3_u07_r20_network.node[27].content_store 	p_hit[27] 	0.27887323943662
scalar tree_4_3_u07_r20_network.node[27].content_store 	hits[27] 	3861
scalar tree_4_3_u07_r20_network.node[27].content_store 	misses[27] 	9984
scalar tree_4_3_u07_r20_network.node[27].content_store 	decision_yes[27] 	9984
scalar tree_4_3_u07_r20_network.node[27].content_store 	decision_no[27] 	0
scalar tree_4_3_u07_r20_network.node[27].content_store 	decision_ratio[27] 	1
scalar tree_4_3_u07_r20_network.node[28].core_layer 	interests[28] 	12916
scalar tree_4_3_u07_r20_network.node[28].core_layer 	data[28] 	10156
scalar tree_4_3_u07_r20_network.node[28].content_store 	p_hit[28] 	0.21353360173428
scalar tree_4_3_u07_r20_network.node[28].content_store 	hits[28] 	2758
scalar tree_4_3_u07_r20_network.node[28].content_store 	misses[28] 	10158
scalar tree_4_3_u07_r20_network.node[28].content_store 	decision_yes[28] 	10156
scalar tree_4_3_u07_r20_network.node[28].content_store 	decision_no[28] 	0
scalar tree_4_3_u07_r20_network.node[28].content_store 	decision_ratio[28] 	1
scalar tree_4_3_u07_r20_network.node[29].core_layer 	interests[29] 	13801
scalar tree_4_3_u07_r20_network.node[29].core_layer 	data[29] 	9973
scalar tree_4_3_u07_r20_network.node[29].content_store 	p_hit[29] 	0.27737120498515
scalar tree_4_3_u07_r20_network.node[29].content_store 	hits[29] 	3828
scalar tree_4_3_u07_r20_network.node[29].content_store 	misses[29] 	9973
scalar tree_4_3_u07_r20_network.node[29].content_store 	decision_yes[29] 	9973
scalar tree_4_3_u07_r20_network.node[29].content_store 	decision_no[29] 	0
scalar tree_4_3_u07_r20_network.node[29].content_store 	decision_ratio[29] 	1
scalar tree_4_3_u07_r20_network.node[30].core_layer 	interests[30] 	12778
scalar tree_4_3_u07_r20_network.node[30].core_layer 	data[30] 	10113
scalar tree_4_3_u07_r20_network.node[30].content_store 	p_hit[30] 	0.20856159023321
scalar tree_4_3_u07_r20_network.node[30].content_store 	hits[30] 	2665
scalar tree_4_3_u07_r20_network.node[30].content_store 	misses[30] 	10113
scalar tree_4_3_u07_r20_network.node[30].content_store 	decision_yes[30] 	10113
scalar tree_4_3_u07_r20_network.node[30].content_store 	decision_no[30] 	0
scalar tree_4_3_u07_r20_network.node[30].content_store 	decision_ratio[30] 	1
scalar tree_4_3_u07_r20_network.node[31].core_layer 	interests[31] 	12612
scalar tree_4_3_u07_r20_network.node[31].core_layer 	data[31] 	10008
scalar tree_4_3_u07_r20_network.node[31].content_store 	p_hit[31] 	0.20647002854424
scalar tree_4_3_u07_r20_network.node[31].content_store 	hits[31] 	2604
scalar tree_4_3_u07_r20_network.node[31].content_store 	misses[31] 	10008
scalar tree_4_3_u07_r20_network.node[31].content_store 	decision_yes[31] 	10008
scalar tree_4_3_u07_r20_network.node[31].content_store 	decision_no[31] 	0
scalar tree_4_3_u07_r20_network.node[31].content_store 	decision_ratio[31] 	1
scalar tree_4_3_u07_r20_network.node[32].core_layer 	interests[32] 	13952
scalar tree_4_3_u07_r20_network.node[32].core_layer 	data[32] 	9905
scalar tree_4_3_u07_r20_network.node[32].content_store 	p_hit[32] 	0.28992259174312
scalar tree_4_3_u07_r20_network.node[32].content_store 	hits[32] 	4045
scalar tree_4_3_u07_r20_network.node[32].content_store 	misses[32] 	9907
scalar tree_4_3_u07_r20_network.node[32].content_store 	decision_yes[32] 	9905
scalar tree_4_3_u07_r20_network.node[32].content_store 	decision_no[32] 	0
scalar tree_4_3_u07_r20_network.node[32].content_store 	decision_ratio[32] 	1
scalar tree_4_3_u07_r20_network.node[33].core_layer 	interests[33] 	13160
scalar tree_4_3_u07_r20_network.node[33].core_layer 	data[33] 	9785
scalar tree_4_3_u07_r20_network.node[33].content_store 	p_hit[33] 	0.25661094224924
scalar tree_4_3_u07_r20_network.node[33].content_store 	hits[33] 	3377
scalar tree_4_3_u07_r20_network.node[33].content_store 	misses[33] 	9783
scalar tree_4_3_u07_r20_network.node[33].content_store 	decision_yes[33] 	9785
scalar tree_4_3_u07_r20_network.node[33].content_store 	decision_no[33] 	0
scalar tree_4_3_u07_r20_network.node[33].content_store 	decision_ratio[33] 	1
scalar tree_4_3_u07_r20_network.node[34].core_layer 	interests[34] 	14519
scalar tree_4_3_u07_r20_network.node[34].core_layer 	data[34] 	10250
scalar tree_4_3_u07_r20_network.node[34].content_store 	p_hit[34] 	0.2939596390936
scalar tree_4_3_u07_r20_network.node[34].content_store 	hits[34] 	4268
scalar tree_4_3_u07_r20_network.node[34].content_store 	misses[34] 	10251
scalar tree_4_3_u07_r20_network.node[34].content_store 	decision_yes[34] 	10250
scalar tree_4_3_u07_r20_network.node[34].content_store 	decision_no[34] 	0
scalar tree_4_3_u07_r20_network.node[34].content_store 	decision_ratio[34] 	1
scalar tree_4_3_u07_r20_network.node[35].core_layer 	interests[35] 	13595
scalar tree_4_3_u07_r20_network.node[35].core_layer 	data[35] 	10168
scalar tree_4_3_u07_r20_network.node[35].content_store 	p_hit[35] 	0.25200441338727
scalar tree_4_3_u07_r20_network.node[35].content_store 	hits[35] 	3426
scalar tree_4_3_u07_r20_network.node[35].content_store 	misses[35] 	10169
scalar tree_4_3_u07_r20_network.node[35].content_store 	decision_yes[35] 	10168
scalar tree_4_3_u07_r20_network.node[35].content_store 	decision_no[35] 	0
scalar tree_4_3_u07_r20_network.node[35].content_store 	decision_ratio[35] 	1
scalar tree_4_3_u07_r20_network.node[36].core_layer 	interests[36] 	14196
scalar tree_4_3_u07_r20_network.node[36].core_layer 	data[36] 	9981
scalar tree_4_3_u07_r20_network.node[36].content_store 	p_hit[36] 	0.29677373908143
scalar tree_4_3_u07_r20_network.node[36].content_store 	hits[36] 	4213
scalar tree_4_3_u07_r20_network.node[36].content_store 	misses[36] 	9983
scalar tree_4_3_u07_r20_network.node[36].content_store 	decision_yes[36] 	9981
scalar tree_4_3_u07_r20_network.node[36].content_store 	decision_no[36] 	0
scalar tree_4_3_u07_r20_network.node[36].content_store 	decision_ratio[36] 	1
scalar tree_4_3_u07_r20_network.node[37].core_layer 	interests[37] 	13189
scalar tree_4_3_u07_r20_network.node[37].core_layer 	data[37] 	9983
scalar tree_4_3_u07_r20_network.node[37].content_store 	p_hit[37] 	0.24308135567518
scalar tree_4_3_u07_r20_network.node[37].content_store 	hits[37] 	3206
scalar tree_4_3_u07_r20_network.node[37].content_store 	misses[37] 	9983
scalar tree_4_3_u07_r20_network.node[37].content_store 	decision_yes[37] 	9983
scalar tree_4_3_u07_r20_network.node[37].content_store 	decision_no[37] 	0
scalar tree_4_3_u07_r20_network.node[37].content_store 	decision_ratio[37] 	1
scalar tree_4_3_u07_r20_network.node[38].core_layer 	interests[38] 	14265
scalar tree_4_3_u07_r20_network.node[38].core_layer 	data[38] 	10085
scalar tree_4_3_u07_r20_network.node[38].content_store 	p_hit[38] 	0.29302488608482
scalar tree_4_3_u07_r20_network.node[38].content_store 	hits[38] 	4180
scalar tree_4_3_u07_r20_network.node[38].content_store 	misses[38] 	10085
scalar tree_4_3_u07_r20_network.node[38].content_store 	decision_yes[38] 	10085
scalar tree_4_3_u07_r20_network.node[38].content_store 	decision_no[38] 	0
scalar tree_4_3_u07_r20_network.node[38].content_store 	decision_ratio[38] 	1
scalar tree_4_3_u07_r20_network.node[39].core_layer 	interests[39] 	12471
scalar tree_4_3_u07_r20_network.node[39].core_layer 	data[39] 	10319
scalar tree_4_3_u07_r20_network.node[39].content_store 	p_hit[39] 	0.17256033998877
scalar tree_4_3_u07_r20_network.node[39].content_store 	hits[39] 	2152
scalar tree_4_3_u07_r20_network.node[39].content_store 	misses[39] 	10319
scalar tree_4_3_u07_r20_network.node[39].content_store 	decision_yes[39] 	10319
scalar tree_4_3_u07_r20_network.node[39].content_store 	decision_no[39] 	0
scalar tree_4_3_u07_r20_network.node[39].content_store 	decision_ratio[39] 	1
scalar tree_4_3_u07_r20_network.client[13] 	hdistance[13] 	3.1075554816724
scalar tree_4_3_u07_r20_network.client[13] 	downloads[13] 	12031
scalar tree_4_3_u07_r20_network.client[13] 	avg_time[13] 	0.004856118655
scalar tree_4_3_u07_r20_network.client[14] 	hdistance[14] 	3.0410530645825
scalar tree_4_3_u07_r20_network.client[14] 	downloads[14] 	12155
scalar tree_4_3_u07_r20_network.client[14] 	avg_time[14] 	0.004703456753
scalar tree_4_3_u07_r20_network.client[15] 	hdistance[15] 	3.0215152018608
scalar tree_4_3_u07_r20_network.client[15] 	downloads[15] 	12038
scalar tree_4_3_u07_r20_network.client[15] 	avg_time[15] 	0.004670706411
scalar tree_4_3_u07_r20_network.client[16] 	hdistance[16] 	3.0072463768116
scalar tree_4_3_u07_r20_network.client[16] 	downloads[16] 	12144
scalar tree_4_3_u07_r20_network.client[16] 	avg_time[16] 	0.004652408526
scalar tree_4_3_u07_r20_network.client[17] 	hdistance[17] 	3.0718378872187
scalar tree_4_3_u07_r20_network.client[17] 	downloads[17] 	12041
scalar tree_4_3_u07_r20_network.client[17] 	avg_time[17] 	0.004780473954
scalar tree_4_3_u07_r20_network.client[18] 	hdistance[18] 	3.0280421481985
scalar tree_4_3_u07_r20_network.client[18] 	downloads[18] 	11768
scalar tree_4_3_u07_r20_network.client[18] 	avg_time[18] 	0.004675218022
scalar tree_4_3_u07_r20_network.client[19] 	hdistance[19] 	3.0555648256299
scalar tree_4_3_u07_r20_network.client[19] 	downloads[19] 	11986
scalar tree_4_3_u07_r20_network.client[19] 	avg_time[19] 	0.004754782658
scalar tree_4_3_u07_r20_network.client[20] 	hdistance[20] 	2.9939122347172
scalar tree_4_3_u07_r20_network.client[20] 	downloads[20] 	11827
scalar tree_4_3_u07_r20_network.client[20] 	avg_time[20] 	0.004627713289
scalar tree_4_3_u07_r20_network.client[21] 	hdistance[21] 	3.0850340136054
scalar tree_4_3_u07_r20_network.client[21] 	downloads[21] 	12054
scalar tree_4_3_u07_r20_network.client[21] 	avg_time[21] 	0.004803049904
scalar tree_4_3_u07_r20_network.client[22] 	hdistance[22] 	3.1008921871092
scalar tree_4_3_u07_r20_network.client[22] 	downloads[22] 	11993
scalar tree_4_3_u07_r20_network.client[22] 	avg_time[22] 	0.00491219577
scalar tree_4_3_u07_r20_network.client[23] 	hdistance[23] 	3.0107004691744
scalar tree_4_3_u07_r20_network.client[23] 	downloads[23] 	12149
scalar tree_4_3_u07_r20_network.client[23] 	avg_time[23] 	0.004725666639
scalar tree_4_3_u07_r20_network.client[24] 	hdistance[24] 	2.9978453633877
scalar tree_4_3_u07_r20_network.client[24] 	downloads[24] 	12067
scalar tree_4_3_u07_r20_network.client[24] 	avg_time[24] 	0.004696898496
scalar tree_4_3_u07_r20_network.client[25] 	hdistance[25] 	3.0243902439024
scalar tree_4_3_u07_r20_network.client[25] 	downloads[25] 	12218
scalar tree_4_3_u07_r20_network.client[25] 	avg_time[25] 	0.004745040307
scalar tree_4_3_u07_r20_network.client[26] 	hdistance[26] 	3.0900497932315
scalar tree_4_3_u07_r20_network.client[26] 	downloads[26] 	11849
scalar tree_4_3_u07_r20_network.client[26] 	avg_time[26] 	0.004884563876
scalar tree_4_3_u07_r20_network.client[27] 	hdistance[27] 	2.9747660427807
scalar tree_4_3_u07_r20_network.client[27] 	downloads[27] 	11968
scalar tree_4_3_u07_r20_network.client[27] 	avg_time[27] 	0.004656247025
scalar tree_4_3_u07_r20_network.client[28] 	hdistance[28] 	3.0782774012233
scalar tree_4_3_u07_r20_network.client[28] 	downloads[28] 	12098
scalar tree_4_3_u07_r20_network.client[28] 	avg_time[28] 	0.004861368964
scalar tree_4_3_u07_r20_network.client[29] 	hdistance[29] 	2.9577770360481
scalar tree_4_3_u07_r20_network.client[29] 	downloads[29] 	11984
scalar tree_4_3_u07_r20_network.client[29] 	avg_time[29] 	0.004636387588
scalar tree_4_3_u07_r20_network.client[30] 	hdistance[30] 	3.0878845993496
scalar tree_4_3_u07_r20_network.client[30] 	downloads[30] 	11993
scalar tree_4_3_u07_r20_network.client[30] 	avg_time[30] 	0.004870838305
scalar tree_4_3_u07_r20_network.client[31] 	hdistance[31] 	3.0876016430547
scalar tree_4_3_u07_r20_network.client[31] 	downloads[31] 	11929
scalar tree_4_3_u07_r20_network.client[31] 	avg_time[31] 	0.004816789115
scalar tree_4_3_u07_r20_network.client[32] 	hdistance[32] 	2.9907951930453
scalar tree_4_3_u07_r20_network.client[32] 	downloads[32] 	11733
scalar tree_4_3_u07_r20_network.client[32] 	avg_time[32] 	0.004713879295
scalar tree_4_3_u07_r20_network.client[33] 	hdistance[33] 	2.9587961000424
scalar tree_4_3_u07_r20_network.client[33] 	downloads[33] 	11795
scalar tree_4_3_u07_r20_network.client[33] 	avg_time[33] 	0.004571086501
scalar tree_4_3_u07_r20_network.client[34] 	hdistance[34] 	2.9682811480757
scalar tree_4_3_u07_r20_network.client[34] 	downloads[34] 	12264
scalar tree_4_3_u07_r20_network.client[34] 	avg_time[34] 	0.004681027025
scalar tree_4_3_u07_r20_network.client[35] 	hdistance[35] 	3.0355727963024
scalar tree_4_3_u07_r20_network.client[35] 	downloads[35] 	12116
scalar tree_4_3_u07_r20_network.client[35] 	avg_time[35] 	0.004819574349
scalar tree_4_3_u07_r20_network.client[36] 	hdistance[36] 	2.9295198329854
scalar tree_4_3_u07_r20_network.client[36] 	downloads[36] 	11975
scalar tree_4_3_u07_r20_network.client[36] 	avg_time[36] 	0.00462428735
scalar tree_4_3_u07_r20_network.client[37] 	hdistance[37] 	2.9972278225806
scalar tree_4_3_u07_r20_network.client[37] 	downloads[37] 	11904
scalar tree_4_3_u07_r20_network.client[37] 	avg_time[37] 	0.00462684511
scalar tree_4_3_u07_r20_network.client[38] 	hdistance[38] 	2.9464905037159
scalar tree_4_3_u07_r20_network.client[38] 	downloads[38] 	12110
scalar tree_4_3_u07_r20_network.client[38] 	avg_time[38] 	0.004638973024
scalar tree_4_3_u07_r20_network.client[39] 	hdistance[39] 	3.0780332681018
scalar tree_4_3_u07_r20_network.client[39] 	downloads[39] 	12264
scalar tree_4_3_u07_r20_network.client[39] 	avg_time[39] 	0.004799899069
