version 2
run General-1-20160826-16:42:48-21255
attr D lce
attr F nrr
attr R lru
attr a 0.9
attr configname General
attr datetime 20160826-16:42:48
attr experiment General
attr inifile hw5115/scenario_C/omnetp.ini
attr iterationvars "$net=abilene, $rep=1, $a=0.9, $F=nrr, $D=lce, $R=lru, $window=60, $variance=0.05, $mytime=600"
attr iterationvars2 "$net=abilene, $rep=1, $a=0.9, $F=nrr, $D=lce, $R=lru, $window=60, $variance=0.05, $mytime=600, $repetition=0"
attr measurement "$net=abilene, $rep=1, $a=0.9, $F=nrr, $D=lce, $R=lru, $window=60, $variance=0.05, $mytime=600"
attr mytime 600
attr net abilene
attr network networks.${net=abilene}_network
attr processid 21255
attr rep 1
attr repetition 0
attr replication #0
attr resultdir results
attr runnumber 1
attr seedset 1
attr variance 0.05
attr window 60

scalar . 	a 	0.9
scalar . 	mytime 	600
scalar . 	rep 	1
scalar . 	variance 	0.05
scalar . 	window 	60
scalar abilene_network.content_distribution 	repo-0 	10
scalar abilene_network.content_distribution 	repo-1 	7
scalar abilene_network.content_distribution 	repo-2 	5
scalar abilene_network.content_distribution 	repo-3 	1
scalar abilene_network.content_distribution 	repo-4 	8
scalar abilene_network.content_distribution 	repo-5 	2
scalar abilene_network.content_distribution 	repo-6 	9
scalar abilene_network.content_distribution 	repo-7 	4
scalar abilene_network.content_distribution 	repo-8 	6
scalar abilene_network.content_distribution 	repo-9 	3
scalar abilene_network.content_distribution 	repo-10 	0
scalar abilene_network.content_distribution 	client-0 	7
scalar abilene_network.content_distribution 	client-1 	5
scalar abilene_network.content_distribution 	client-2 	9
scalar abilene_network.content_distribution 	client-3 	6
scalar abilene_network.content_distribution 	client-4 	8
scalar abilene_network.content_distribution 	client-5 	2
scalar abilene_network.content_distribution 	client-6 	1
scalar abilene_network.content_distribution 	client-7 	10
scalar abilene_network.content_distribution 	client-8 	0
scalar abilene_network.content_distribution 	client-9 	3
scalar abilene_network.content_distribution 	client-10 	4
scalar abilene_network.content_distribution 	repo-0_card 	8956
scalar abilene_network.content_distribution 	repo-0_price 	0
scalar abilene_network.content_distribution 	repo-1_card 	9061
scalar abilene_network.content_distribution 	repo-1_price 	0
scalar abilene_network.content_distribution 	repo-2_card 	9017
scalar abilene_network.content_distribution 	repo-2_price 	0
scalar abilene_network.content_distribution 	repo-3_card 	9157
scalar abilene_network.content_distribution 	repo-3_price 	0
scalar abilene_network.content_distribution 	repo-4_card 	9262
scalar abilene_network.content_distribution 	repo-4_price 	0
scalar abilene_network.content_distribution 	repo-5_card 	9009
scalar abilene_network.content_distribution 	repo-5_price 	0
scalar abilene_network.content_distribution 	repo-6_card 	9067
scalar abilene_network.content_distribution 	repo-6_price 	0
scalar abilene_network.content_distribution 	repo-7_card 	9189
scalar abilene_network.content_distribution 	repo-7_price 	0
scalar abilene_network.content_distribution 	repo-8_card 	9068
scalar abilene_network.content_distribution 	repo-8_price 	0
scalar abilene_network.content_distribution 	repo-9_card 	9019
scalar abilene_network.content_distribution 	repo-9_price 	0
scalar abilene_network.content_distribution 	repo-10_card 	9195
scalar abilene_network.content_distribution 	repo-10_price 	0
scalar abilene_network.statistics 	stabilization_time 	426.7
scalar abilene_network.statistics 	p_hit 	0.097931182393893
scalar abilene_network.statistics 	interests 	33905.090909091
scalar abilene_network.statistics 	data 	21911.181818182
scalar abilene_network.statistics 	hdistance 	2.5788146822633
scalar abilene_network.statistics 	avg_time 	0.011727877853
scalar abilene_network.statistics 	downloads 	131901
scalar abilene_network.statistics 	total_cost 	0
scalar abilene_network.statistics 	total_replicas 	100000
scalar abilene_network.statistics 	inner_hit 	0.24908833140007
scalar abilene_network.node[0].core_layer 	interests[0] 	21111
scalar abilene_network.node[0].core_layer 	repo_load[0] 	8564
scalar abilene_network.node[0].core_layer 	data[0] 	9521
scalar abilene_network.node[0].core_layer 	repo_int[0] 	99046
scalar abilene_network.node[0].content_store 	p_hit[0] 	0.14333759651367
scalar abilene_network.node[0].content_store 	hits[0] 	3026
scalar abilene_network.node[0].content_store 	misses[0] 	18085
scalar abilene_network.node[0].content_store 	decision_yes[0] 	18085
scalar abilene_network.node[0].content_store 	decision_no[0] 	0
scalar abilene_network.node[0].content_store 	decision_ratio[0] 	1
scalar abilene_network.node[1].core_layer 	interests[1] 	40675
scalar abilene_network.node[1].core_layer 	repo_load[1] 	9190
scalar abilene_network.node[1].core_layer 	data[1] 	28844
scalar abilene_network.node[1].content_store 	p_hit[1] 	0.064732636754763
scalar abilene_network.node[1].content_store 	hits[1] 	2633
scalar abilene_network.node[1].content_store 	misses[1] 	38042
scalar abilene_network.node[1].content_store 	decision_yes[1] 	38032
scalar abilene_network.node[1].content_store 	decision_no[1] 	0
scalar abilene_network.node[1].content_store 	decision_ratio[1] 	1
scalar abilene_network.node[2].core_layer 	interests[2] 	54289
scalar abilene_network.node[2].core_layer 	repo_load[2] 	9284
scalar abilene_network.node[2].core_layer 	data[2] 	42477
scalar abilene_network.node[2].content_store 	p_hit[2] 	0.04645508298182
scalar abilene_network.node[2].content_store 	hits[2] 	2522
scalar abilene_network.node[2].content_store 	misses[2] 	51767
scalar abilene_network.node[2].content_store 	decision_yes[2] 	51758
scalar abilene_network.node[2].content_store 	decision_no[2] 	0
scalar abilene_network.node[2].content_store 	decision_ratio[2] 	1
scalar abilene_network.node[3].core_layer 	interests[3] 	51195
scalar abilene_network.node[3].core_layer 	repo_load[3] 	9648
scalar abilene_network.node[3].core_layer 	data[3] 	38985
scalar abilene_network.node[3].content_store 	p_hit[3] 	0.049829084871569
scalar abilene_network.node[3].content_store 	hits[3] 	2551
scalar abilene_network.node[3].content_store 	misses[3] 	48644
scalar abilene_network.node[3].content_store 	decision_yes[3] 	48629
scalar abilene_network.node[3].content_store 	decision_no[3] 	0
scalar abilene_network.node[3].content_store 	decision_ratio[3] 	1
scalar abilene_network.node[4].core_layer 	interests[4] 	30542
scalar abilene_network.node[4].core_layer 	repo_load[4] 	9655
scalar abilene_network.node[4].core_layer 	data[4] 	17885
scalar abilene_network.node[4].content_store 	p_hit[4] 	0.09809442734595
scalar abilene_network.node[4].content_store 	hits[4] 	2996
scalar abilene_network.node[4].content_store 	misses[4] 	27546
scalar abilene_network.node[4].content_store 	decision_yes[4] 	27539
scalar abilene_network.node[4].content_store 	decision_no[4] 	0
scalar abilene_network.node[4].content_store 	decision_ratio[4] 	1
scalar abilene_network.node[5].core_layer 	interests[5] 	22989
scalar abilene_network.node[5].core_layer 	repo_load[5] 	8609
scalar abilene_network.node[5].core_layer 	data[5] 	11189
scalar abilene_network.node[5].content_store 	p_hit[5] 	0.13871851755187
scalar abilene_network.node[5].content_store 	hits[5] 	3189
scalar abilene_network.node[5].content_store 	misses[5] 	19800
scalar abilene_network.node[5].content_store 	decision_yes[5] 	19798
scalar abilene_network.node[5].content_store 	decision_no[5] 	0
scalar abilene_network.node[5].content_store 	decision_ratio[5] 	1
scalar abilene_network.node[6].core_layer 	interests[6] 	26478
scalar abilene_network.node[6].core_layer 	repo_load[6] 	8697
scalar abilene_network.node[6].core_layer 	data[6] 	14782
scalar abilene_network.node[6].content_store 	p_hit[6] 	0.11322607447692
scalar abilene_network.node[6].content_store 	hits[6] 	2998
scalar abilene_network.node[6].content_store 	misses[6] 	23480
scalar abilene_network.node[6].content_store 	decision_yes[6] 	23479
scalar abilene_network.node[6].content_store 	decision_no[6] 	0
scalar abilene_network.node[6].content_store 	decision_ratio[6] 	1
scalar abilene_network.node[7].core_layer 	interests[7] 	37443
scalar abilene_network.node[7].core_layer 	repo_load[7] 	8904
scalar abilene_network.node[7].core_layer 	data[7] 	25276
scalar abilene_network.node[7].content_store 	p_hit[7] 	0.087038965894827
scalar abilene_network.node[7].content_store 	hits[7] 	3259
scalar abilene_network.node[7].content_store 	misses[7] 	34184
scalar abilene_network.node[7].content_store 	decision_yes[7] 	34180
scalar abilene_network.node[7].content_store 	decision_no[7] 	0
scalar abilene_network.node[7].content_store 	decision_ratio[7] 	1
scalar abilene_network.node[8].core_layer 	interests[8] 	35687
scalar abilene_network.node[8].core_layer 	repo_load[8] 	8684
scalar abilene_network.node[8].core_layer 	data[8] 	23801
scalar abilene_network.node[8].content_store 	p_hit[8] 	0.089388292655589
scalar abilene_network.node[8].content_store 	hits[8] 	3190
scalar abilene_network.node[8].content_store 	misses[8] 	32497
scalar abilene_network.node[8].content_store 	decision_yes[8] 	32484
scalar abilene_network.node[8].content_store 	decision_no[8] 	0
scalar abilene_network.node[8].content_store 	decision_ratio[8] 	1
scalar abilene_network.node[9].core_layer 	interests[9] 	26606
scalar abilene_network.node[9].core_layer 	repo_load[9] 	8787
scalar abilene_network.node[9].core_layer 	data[9] 	14873
scalar abilene_network.node[9].content_store 	p_hit[9] 	0.11061414718485
scalar abilene_network.node[9].content_store 	hits[9] 	2943
scalar abilene_network.node[9].content_store 	misses[9] 	23663
scalar abilene_network.node[9].content_store 	decision_yes[9] 	23660
scalar abilene_network.node[9].content_store 	decision_no[9] 	0
scalar abilene_network.node[9].content_store 	decision_ratio[9] 	1
scalar abilene_network.node[10].core_layer 	interests[10] 	25941
scalar abilene_network.node[10].core_layer 	repo_load[10] 	9024
scalar abilene_network.node[10].core_layer 	data[10] 	13390
scalar abilene_network.node[10].content_store 	p_hit[10] 	0.135808180101
scalar abilene_network.node[10].content_store 	hits[10] 	3523
scalar abilene_network.node[10].content_store 	misses[10] 	22418
scalar abilene_network.node[10].content_store 	decision_yes[10] 	22414
scalar abilene_network.node[10].content_store 	decision_no[10] 	0
scalar abilene_network.node[10].content_store 	decision_ratio[10] 	1
scalar abilene_network.client[0] 	hdistance[0] 	2.9947125472094
scalar abilene_network.client[0] 	downloads[0] 	11915
scalar abilene_network.client[0] 	avg_time[0] 	0.015489715901
scalar abilene_network.client[1] 	hdistance[1] 	2.4912745016955
scalar abilene_network.client[1] 	downloads[1] 	12091
scalar abilene_network.client[1] 	avg_time[1] 	0.010442816704
scalar abilene_network.client[2] 	hdistance[2] 	2.2317318998824
scalar abilene_network.client[2] 	downloads[2] 	11906
scalar abilene_network.client[2] 	avg_time[2] 	0.009073401105
scalar abilene_network.client[3] 	hdistance[3] 	2.2921689286015
scalar abilene_network.client[3] 	downloads[3] 	11863
scalar abilene_network.client[3] 	avg_time[3] 	0.009188452437
scalar abilene_network.client[4] 	hdistance[4] 	2.7018820577164
scalar abilene_network.client[4] 	downloads[4] 	11955
scalar abilene_network.client[4] 	avg_time[4] 	0.009895326472
scalar abilene_network.client[5] 	hdistance[5] 	2.9510713683145
scalar abilene_network.client[5] 	downloads[5] 	11854
scalar abilene_network.client[5] 	avg_time[5] 	0.012367513655
scalar abilene_network.client[6] 	hdistance[6] 	2.7609305395149
scalar abilene_network.client[6] 	downloads[6] 	12122
scalar abilene_network.client[6] 	avg_time[6] 	0.012477995852
scalar abilene_network.client[7] 	hdistance[7] 	2.3506246380409
scalar abilene_network.client[7] 	downloads[7] 	12087
scalar abilene_network.client[7] 	avg_time[7] 	0.009925807421
scalar abilene_network.client[8] 	hdistance[8] 	2.3069060084767
scalar abilene_network.client[8] 	downloads[8] 	12033
scalar abilene_network.client[8] 	avg_time[8] 	0.010975449281
scalar abilene_network.client[9] 	hdistance[9] 	2.5991178428762
scalar abilene_network.client[9] 	downloads[9] 	12016
scalar abilene_network.client[9] 	avg_time[9] 	0.015273186738
scalar abilene_network.client[10] 	hdistance[10] 	2.6865411725682
scalar abilene_network.client[10] 	downloads[10] 	12059
scalar abilene_network.client[10] 	avg_time[10] 	0.013896990819
