version 2
run General-95-20160820-15:21:17-2644
attr a 0.9
attr cd lce
attr configname General
attr cr lru
attr datetime 20160820-15:21:17
attr experiment General
attr fsize 1
attr inifile hw5115/scenario_A/SPR-LCE.ini
attr iterationvars "$name=tree_4_3, $un=04, $rep=16, $cd=lce, $cr=lru, $fsize=1, $a=0.9, $sl=spr, $ttl=1000, $variance=0.05"
attr iterationvars2 "$name=tree_4_3, $un=04, $rep=16, $cd=lce, $cr=lru, $fsize=1, $a=0.9, $sl=spr, $ttl=1000, $variance=0.05, $repetition=0"
attr measurement "$name=tree_4_3, $un=04, $rep=16, $cd=lce, $cr=lru, $fsize=1, $a=0.9, $sl=spr, $ttl=1000, $variance=0.05"
attr name tree_4_3
attr network networks.${name}_u${un}_r${rep}_network
attr processid 2644
attr rep 16
attr repetition 0
attr replication #0
attr resultdir results
attr runnumber 95
attr seedset 16
attr sl spr
attr ttl 1000
attr un 04
attr variance 0.05

scalar . 	a 	0.9
scalar . 	fsize 	1
scalar . 	rep 	16
scalar . 	ttl 	1000
scalar . 	un 	04
scalar . 	variance 	0.05
scalar tree_4_3_u04_r16_network.content_distribution 	repo-0 	0
scalar tree_4_3_u04_r16_network.content_distribution 	client-0 	13
scalar tree_4_3_u04_r16_network.content_distribution 	client-1 	14
scalar tree_4_3_u04_r16_network.content_distribution 	client-2 	15
scalar tree_4_3_u04_r16_network.content_distribution 	client-3 	16
scalar tree_4_3_u04_r16_network.content_distribution 	client-4 	17
scalar tree_4_3_u04_r16_network.content_distribution 	client-5 	18
scalar tree_4_3_u04_r16_network.content_distribution 	client-6 	19
scalar tree_4_3_u04_r16_network.content_distribution 	client-7 	20
scalar tree_4_3_u04_r16_network.content_distribution 	client-8 	21
scalar tree_4_3_u04_r16_network.content_distribution 	client-9 	22
scalar tree_4_3_u04_r16_network.content_distribution 	client-10 	23
scalar tree_4_3_u04_r16_network.content_distribution 	client-11 	24
scalar tree_4_3_u04_r16_network.content_distribution 	client-12 	25
scalar tree_4_3_u04_r16_network.content_distribution 	client-13 	26
scalar tree_4_3_u04_r16_network.content_distribution 	client-14 	27
scalar tree_4_3_u04_r16_network.content_distribution 	client-15 	28
scalar tree_4_3_u04_r16_network.content_distribution 	client-16 	29
scalar tree_4_3_u04_r16_network.content_distribution 	client-17 	30
scalar tree_4_3_u04_r16_network.content_distribution 	client-18 	31
scalar tree_4_3_u04_r16_network.content_distribution 	client-19 	32
scalar tree_4_3_u04_r16_network.content_distribution 	client-20 	33
scalar tree_4_3_u04_r16_network.content_distribution 	client-21 	34
scalar tree_4_3_u04_r16_network.content_distribution 	client-22 	35
scalar tree_4_3_u04_r16_network.content_distribution 	client-23 	36
scalar tree_4_3_u04_r16_network.content_distribution 	client-24 	37
scalar tree_4_3_u04_r16_network.content_distribution 	client-25 	38
scalar tree_4_3_u04_r16_network.content_distribution 	client-26 	39
scalar tree_4_3_u04_r16_network.content_distribution 	repo-0_card 	100000
scalar tree_4_3_u04_r16_network.content_distribution 	repo-0_price 	0
scalar tree_4_3_u04_r16_network.statistics 	stabilization_time 	629.4
scalar tree_4_3_u04_r16_network.statistics 	p_hit 	0.11268696899967
scalar tree_4_3_u04_r16_network.statistics 	interests 	28088.475
scalar tree_4_3_u04_r16_network.statistics 	data 	19992.125
scalar tree_4_3_u04_r16_network.statistics 	hdistance 	3.2580688019399
scalar tree_4_3_u04_r16_network.statistics 	avg_time 	0.00493868297
scalar tree_4_3_u04_r16_network.statistics 	downloads 	323849
scalar tree_4_3_u04_r16_network.statistics 	total_cost 	0
scalar tree_4_3_u04_r16_network.statistics 	total_replicas 	100000
scalar tree_4_3_u04_r16_network.statistics 	inner_hit 	0.21147510105018
scalar tree_4_3_u04_r16_network.node[0].core_layer 	interests[0] 	260057
scalar tree_4_3_u04_r16_network.node[0].core_layer 	repo_load[0] 	255363
scalar tree_4_3_u04_r16_network.node[0].core_layer 	data[0] 	0
scalar tree_4_3_u04_r16_network.node[0].core_layer 	repo_int[0] 	255363
scalar tree_4_3_u04_r16_network.node[0].content_store 	p_hit[0] 	0.018049889062782
scalar tree_4_3_u04_r16_network.node[0].content_store 	hits[0] 	4694
scalar tree_4_3_u04_r16_network.node[0].content_store 	misses[0] 	255363
scalar tree_4_3_u04_r16_network.node[0].content_store 	decision_yes[0] 	255363
scalar tree_4_3_u04_r16_network.node[0].content_store 	decision_no[0] 	0
scalar tree_4_3_u04_r16_network.node[0].content_store 	decision_ratio[0] 	1
scalar tree_4_3_u04_r16_network.node[1].core_layer 	interests[1] 	128339
scalar tree_4_3_u04_r16_network.node[1].core_layer 	data[1] 	125215
scalar tree_4_3_u04_r16_network.node[1].content_store 	p_hit[1] 	0.024256071809816
scalar tree_4_3_u04_r16_network.node[1].content_store 	hits[1] 	3113
scalar tree_4_3_u04_r16_network.node[1].content_store 	misses[1] 	125226
scalar tree_4_3_u04_r16_network.node[1].content_store 	decision_yes[1] 	125215
scalar tree_4_3_u04_r16_network.node[1].content_store 	decision_no[1] 	0
scalar tree_4_3_u04_r16_network.node[1].content_store 	decision_ratio[1] 	1
scalar tree_4_3_u04_r16_network.node[2].core_layer 	interests[2] 	88484
scalar tree_4_3_u04_r16_network.node[2].core_layer 	data[2] 	86524
scalar tree_4_3_u04_r16_network.node[2].content_store 	p_hit[2] 	0.022116992902672
scalar tree_4_3_u04_r16_network.node[2].content_store 	hits[2] 	1957
scalar tree_4_3_u04_r16_network.node[2].content_store 	misses[2] 	86527
scalar tree_4_3_u04_r16_network.node[2].content_store 	decision_yes[2] 	86524
scalar tree_4_3_u04_r16_network.node[2].content_store 	decision_no[2] 	0
scalar tree_4_3_u04_r16_network.node[2].content_store 	decision_ratio[2] 	1
scalar tree_4_3_u04_r16_network.node[3].core_layer 	interests[3] 	49147
scalar tree_4_3_u04_r16_network.node[3].core_layer 	data[3] 	48319
scalar tree_4_3_u04_r16_network.node[3].content_store 	p_hit[3] 	0.016847416932875
scalar tree_4_3_u04_r16_network.node[3].content_store 	hits[3] 	828
scalar tree_4_3_u04_r16_network.node[3].content_store 	misses[3] 	48319
scalar tree_4_3_u04_r16_network.node[3].content_store 	decision_yes[3] 	48319
scalar tree_4_3_u04_r16_network.node[3].content_store 	decision_no[3] 	0
scalar tree_4_3_u04_r16_network.node[3].content_store 	decision_ratio[3] 	1
scalar tree_4_3_u04_r16_network.node[4].core_layer 	interests[4] 	40822
scalar tree_4_3_u04_r16_network.node[4].core_layer 	data[4] 	39537
scalar tree_4_3_u04_r16_network.node[4].content_store 	p_hit[4] 	0.031429131350742
scalar tree_4_3_u04_r16_network.node[4].content_store 	hits[4] 	1283
scalar tree_4_3_u04_r16_network.node[4].content_store 	misses[4] 	39539
scalar tree_4_3_u04_r16_network.node[4].content_store 	decision_yes[4] 	39537
scalar tree_4_3_u04_r16_network.node[4].content_store 	decision_no[4] 	0
scalar tree_4_3_u04_r16_network.node[4].content_store 	decision_ratio[4] 	1
scalar tree_4_3_u04_r16_network.node[5].core_layer 	interests[5] 	20259
scalar tree_4_3_u04_r16_network.node[5].core_layer 	data[5] 	19810
scalar tree_4_3_u04_r16_network.node[5].content_store 	p_hit[5] 	0.022064267732859
scalar tree_4_3_u04_r16_network.node[5].content_store 	hits[5] 	447
scalar tree_4_3_u04_r16_network.node[5].content_store 	misses[5] 	19812
scalar tree_4_3_u04_r16_network.node[5].content_store 	decision_yes[5] 	19810
scalar tree_4_3_u04_r16_network.node[5].content_store 	decision_no[5] 	0
scalar tree_4_3_u04_r16_network.node[5].content_store 	decision_ratio[5] 	1
scalar tree_4_3_u04_r16_network.node[6].core_layer 	interests[6] 	30460
scalar tree_4_3_u04_r16_network.node[6].core_layer 	data[6] 	29658
scalar tree_4_3_u04_r16_network.node[6].content_store 	p_hit[6] 	0.026296782665791
scalar tree_4_3_u04_r16_network.node[6].content_store 	hits[6] 	801
scalar tree_4_3_u04_r16_network.node[6].content_store 	misses[6] 	29659
scalar tree_4_3_u04_r16_network.node[6].content_store 	decision_yes[6] 	29658
scalar tree_4_3_u04_r16_network.node[6].content_store 	decision_no[6] 	0
scalar tree_4_3_u04_r16_network.node[6].content_store 	decision_ratio[6] 	1
scalar tree_4_3_u04_r16_network.node[7].core_layer 	interests[7] 	40624
scalar tree_4_3_u04_r16_network.node[7].core_layer 	data[7] 	39333
scalar tree_4_3_u04_r16_network.node[7].content_store 	p_hit[7] 	0.031680779834581
scalar tree_4_3_u04_r16_network.node[7].content_store 	hits[7] 	1287
scalar tree_4_3_u04_r16_network.node[7].content_store 	misses[7] 	39337
scalar tree_4_3_u04_r16_network.node[7].content_store 	decision_yes[7] 	39333
scalar tree_4_3_u04_r16_network.node[7].content_store 	decision_no[7] 	0
scalar tree_4_3_u04_r16_network.node[7].content_store 	decision_ratio[7] 	1
scalar tree_4_3_u04_r16_network.node[8].core_layer 	interests[8] 	30197
scalar tree_4_3_u04_r16_network.node[8].core_layer 	data[8] 	29317
scalar tree_4_3_u04_r16_network.node[8].content_store 	p_hit[8] 	0.029208199490016
scalar tree_4_3_u04_r16_network.node[8].content_store 	hits[8] 	882
scalar tree_4_3_u04_r16_network.node[8].content_store 	misses[8] 	29315
scalar tree_4_3_u04_r16_network.node[8].content_store 	decision_yes[8] 	29317
scalar tree_4_3_u04_r16_network.node[8].content_store 	decision_no[8] 	0
scalar tree_4_3_u04_r16_network.node[8].content_store 	decision_ratio[8] 	1
scalar tree_4_3_u04_r16_network.node[9].core_layer 	interests[9] 	20226
scalar tree_4_3_u04_r16_network.node[9].core_layer 	data[9] 	19824
scalar tree_4_3_u04_r16_network.node[9].content_store 	p_hit[9] 	0.019825966577672
scalar tree_4_3_u04_r16_network.node[9].content_store 	hits[9] 	401
scalar tree_4_3_u04_r16_network.node[9].content_store 	misses[9] 	19825
scalar tree_4_3_u04_r16_network.node[9].content_store 	decision_yes[9] 	19824
scalar tree_4_3_u04_r16_network.node[9].content_store 	decision_no[9] 	0
scalar tree_4_3_u04_r16_network.node[9].content_store 	decision_ratio[9] 	1
scalar tree_4_3_u04_r16_network.node[10].core_layer 	interests[10] 	30284
scalar tree_4_3_u04_r16_network.node[10].core_layer 	data[10] 	29408
scalar tree_4_3_u04_r16_network.node[10].content_store 	p_hit[10] 	0.028860124157971
scalar tree_4_3_u04_r16_network.node[10].content_store 	hits[10] 	874
scalar tree_4_3_u04_r16_network.node[10].content_store 	misses[10] 	29410
scalar tree_4_3_u04_r16_network.node[10].content_store 	decision_yes[10] 	29408
scalar tree_4_3_u04_r16_network.node[10].content_store 	decision_no[10] 	0
scalar tree_4_3_u04_r16_network.node[10].content_store 	decision_ratio[10] 	1
scalar tree_4_3_u04_r16_network.node[11].core_layer 	interests[11] 	40617
scalar tree_4_3_u04_r16_network.node[11].core_layer 	data[11] 	39344
scalar tree_4_3_u04_r16_network.node[11].content_store 	p_hit[11] 	0.031316936258217
scalar tree_4_3_u04_r16_network.node[11].content_store 	hits[11] 	1272
scalar tree_4_3_u04_r16_network.node[11].content_store 	misses[11] 	39345
scalar tree_4_3_u04_r16_network.node[11].content_store 	decision_yes[11] 	39344
scalar tree_4_3_u04_r16_network.node[11].content_store 	decision_no[11] 	0
scalar tree_4_3_u04_r16_network.node[11].content_store 	decision_ratio[11] 	1
scalar tree_4_3_u04_r16_network.node[12].core_layer 	interests[12] 	20163
scalar tree_4_3_u04_r16_network.node[12].core_layer 	data[12] 	19739
scalar tree_4_3_u04_r16_network.node[12].content_store 	p_hit[12] 	0.020979020979021
scalar tree_4_3_u04_r16_network.node[12].content_store 	hits[12] 	423
scalar tree_4_3_u04_r16_network.node[12].content_store 	misses[12] 	19740
scalar tree_4_3_u04_r16_network.node[12].content_store 	decision_yes[12] 	19739
scalar tree_4_3_u04_r16_network.node[12].content_store 	decision_no[12] 	0
scalar tree_4_3_u04_r16_network.node[12].content_store 	decision_ratio[12] 	1
scalar tree_4_3_u04_r16_network.node[13].core_layer 	interests[13] 	11984
scalar tree_4_3_u04_r16_network.node[13].core_layer 	data[13] 	10209
scalar tree_4_3_u04_r16_network.node[13].content_store 	p_hit[13] 	0.14811415220294
scalar tree_4_3_u04_r16_network.node[13].content_store 	hits[13] 	1775
scalar tree_4_3_u04_r16_network.node[13].content_store 	misses[13] 	10209
scalar tree_4_3_u04_r16_network.node[13].content_store 	decision_yes[13] 	10209
scalar tree_4_3_u04_r16_network.node[13].content_store 	decision_no[13] 	0
scalar tree_4_3_u04_r16_network.node[13].content_store 	decision_ratio[13] 	1
scalar tree_4_3_u04_r16_network.node[14].core_layer 	interests[14] 	12206
scalar tree_4_3_u04_r16_network.node[14].core_layer 	data[14] 	10290
scalar tree_4_3_u04_r16_network.node[14].content_store 	p_hit[14] 	0.15697198099295
scalar tree_4_3_u04_r16_network.node[14].content_store 	hits[14] 	1916
scalar tree_4_3_u04_r16_network.node[14].content_store 	misses[14] 	10290
scalar tree_4_3_u04_r16_network.node[14].content_store 	decision_yes[14] 	10290
scalar tree_4_3_u04_r16_network.node[14].content_store 	decision_no[14] 	0
scalar tree_4_3_u04_r16_network.node[14].content_store 	decision_ratio[14] 	1
scalar tree_4_3_u04_r16_network.node[15].core_layer 	interests[15] 	12020
scalar tree_4_3_u04_r16_network.node[15].core_layer 	data[15] 	10204
scalar tree_4_3_u04_r16_network.node[15].content_store 	p_hit[15] 	0.15099833610649
scalar tree_4_3_u04_r16_network.node[15].content_store 	hits[15] 	1815
scalar tree_4_3_u04_r16_network.node[15].content_store 	misses[15] 	10205
scalar tree_4_3_u04_r16_network.node[15].content_store 	decision_yes[15] 	10204
scalar tree_4_3_u04_r16_network.node[15].content_store 	decision_no[15] 	0
scalar tree_4_3_u04_r16_network.node[15].content_store 	decision_ratio[15] 	1
scalar tree_4_3_u04_r16_network.node[16].core_layer 	interests[16] 	11933
scalar tree_4_3_u04_r16_network.node[16].core_layer 	data[16] 	10120
scalar tree_4_3_u04_r16_network.node[16].content_store 	p_hit[16] 	0.15193161820163
scalar tree_4_3_u04_r16_network.node[16].content_store 	hits[16] 	1813
scalar tree_4_3_u04_r16_network.node[16].content_store 	misses[16] 	10120
scalar tree_4_3_u04_r16_network.node[16].content_store 	decision_yes[16] 	10120
scalar tree_4_3_u04_r16_network.node[16].content_store 	decision_no[16] 	0
scalar tree_4_3_u04_r16_network.node[16].content_store 	decision_ratio[16] 	1
scalar tree_4_3_u04_r16_network.node[17].core_layer 	interests[17] 	11998
scalar tree_4_3_u04_r16_network.node[17].core_layer 	data[17] 	10098
scalar tree_4_3_u04_r16_network.node[17].content_store 	p_hit[17] 	0.15810968494749
scalar tree_4_3_u04_r16_network.node[17].content_store 	hits[17] 	1897
scalar tree_4_3_u04_r16_network.node[17].content_store 	misses[17] 	10101
scalar tree_4_3_u04_r16_network.node[17].content_store 	decision_yes[17] 	10098
scalar tree_4_3_u04_r16_network.node[17].content_store 	decision_no[17] 	0
scalar tree_4_3_u04_r16_network.node[17].content_store 	decision_ratio[17] 	1
scalar tree_4_3_u04_r16_network.node[18].core_layer 	interests[18] 	12004
scalar tree_4_3_u04_r16_network.node[18].core_layer 	data[18] 	10160
scalar tree_4_3_u04_r16_network.node[18].content_store 	p_hit[18] 	0.15353215594802
scalar tree_4_3_u04_r16_network.node[18].content_store 	hits[18] 	1843
scalar tree_4_3_u04_r16_network.node[18].content_store 	misses[18] 	10161
scalar tree_4_3_u04_r16_network.node[18].content_store 	decision_yes[18] 	10160
scalar tree_4_3_u04_r16_network.node[18].content_store 	decision_no[18] 	0
scalar tree_4_3_u04_r16_network.node[18].content_store 	decision_ratio[18] 	1
scalar tree_4_3_u04_r16_network.node[19].core_layer 	interests[19] 	11969
scalar tree_4_3_u04_r16_network.node[19].core_layer 	data[19] 	10177
scalar tree_4_3_u04_r16_network.node[19].content_store 	p_hit[19] 	0.1497201102849
scalar tree_4_3_u04_r16_network.node[19].content_store 	hits[19] 	1792
scalar tree_4_3_u04_r16_network.node[19].content_store 	misses[19] 	10177
scalar tree_4_3_u04_r16_network.node[19].content_store 	decision_yes[19] 	10177
scalar tree_4_3_u04_r16_network.node[19].content_store 	decision_no[19] 	0
scalar tree_4_3_u04_r16_network.node[19].content_store 	decision_ratio[19] 	1
scalar tree_4_3_u04_r16_network.node[20].core_layer 	interests[20] 	11822
scalar tree_4_3_u04_r16_network.node[20].core_layer 	data[20] 	9996
scalar tree_4_3_u04_r16_network.node[20].content_store 	p_hit[20] 	0.15428861444764
scalar tree_4_3_u04_r16_network.node[20].content_store 	hits[20] 	1824
scalar tree_4_3_u04_r16_network.node[20].content_store 	misses[20] 	9998
scalar tree_4_3_u04_r16_network.node[20].content_store 	decision_yes[20] 	9996
scalar tree_4_3_u04_r16_network.node[20].content_store 	decision_no[20] 	0
scalar tree_4_3_u04_r16_network.node[20].content_store 	decision_ratio[20] 	1
scalar tree_4_3_u04_r16_network.node[21].core_layer 	interests[21] 	12190
scalar tree_4_3_u04_r16_network.node[21].core_layer 	data[21] 	10287
scalar tree_4_3_u04_r16_network.node[21].content_store 	p_hit[21] 	0.15611156685808
scalar tree_4_3_u04_r16_network.node[21].content_store 	hits[21] 	1903
scalar tree_4_3_u04_r16_network.node[21].content_store 	misses[21] 	10287
scalar tree_4_3_u04_r16_network.node[21].content_store 	decision_yes[21] 	10287
scalar tree_4_3_u04_r16_network.node[21].content_store 	decision_no[21] 	0
scalar tree_4_3_u04_r16_network.node[21].content_store 	decision_ratio[21] 	1
scalar tree_4_3_u04_r16_network.node[22].core_layer 	interests[22] 	11937
scalar tree_4_3_u04_r16_network.node[22].core_layer 	data[22] 	10016
scalar tree_4_3_u04_r16_network.node[22].content_store 	p_hit[22] 	0.16092820641702
scalar tree_4_3_u04_r16_network.node[22].content_store 	hits[22] 	1921
scalar tree_4_3_u04_r16_network.node[22].content_store 	misses[22] 	10016
scalar tree_4_3_u04_r16_network.node[22].content_store 	decision_yes[22] 	10016
scalar tree_4_3_u04_r16_network.node[22].content_store 	decision_no[22] 	0
scalar tree_4_3_u04_r16_network.node[22].content_store 	decision_ratio[22] 	1
scalar tree_4_3_u04_r16_network.node[23].core_layer 	interests[23] 	11940
scalar tree_4_3_u04_r16_network.node[23].core_layer 	data[23] 	10102
scalar tree_4_3_u04_r16_network.node[23].content_store 	p_hit[23] 	0.15376884422111
scalar tree_4_3_u04_r16_network.node[23].content_store 	hits[23] 	1836
scalar tree_4_3_u04_r16_network.node[23].content_store 	misses[23] 	10104
scalar tree_4_3_u04_r16_network.node[23].content_store 	decision_yes[23] 	10102
scalar tree_4_3_u04_r16_network.node[23].content_store 	decision_no[23] 	0
scalar tree_4_3_u04_r16_network.node[23].content_store 	decision_ratio[23] 	1
scalar tree_4_3_u04_r16_network.node[24].core_layer 	interests[24] 	12011
scalar tree_4_3_u04_r16_network.node[24].core_layer 	data[24] 	10238
scalar tree_4_3_u04_r16_network.node[24].content_store 	p_hit[24] 	0.14753142952294
scalar tree_4_3_u04_r16_network.node[24].content_store 	hits[24] 	1772
scalar tree_4_3_u04_r16_network.node[24].content_store 	misses[24] 	10239
scalar tree_4_3_u04_r16_network.node[24].content_store 	decision_yes[24] 	10238
scalar tree_4_3_u04_r16_network.node[24].content_store 	decision_no[24] 	0
scalar tree_4_3_u04_r16_network.node[24].content_store 	decision_ratio[24] 	1
scalar tree_4_3_u04_r16_network.node[25].core_layer 	interests[25] 	12125
scalar tree_4_3_u04_r16_network.node[25].core_layer 	data[25] 	10269
scalar tree_4_3_u04_r16_network.node[25].content_store 	p_hit[25] 	0.15307216494845
scalar tree_4_3_u04_r16_network.node[25].content_store 	hits[25] 	1856
scalar tree_4_3_u04_r16_network.node[25].content_store 	misses[25] 	10269
scalar tree_4_3_u04_r16_network.node[25].content_store 	decision_yes[25] 	10269
scalar tree_4_3_u04_r16_network.node[25].content_store 	decision_no[25] 	0
scalar tree_4_3_u04_r16_network.node[25].content_store 	decision_ratio[25] 	1
scalar tree_4_3_u04_r16_network.node[26].core_layer 	interests[26] 	11949
scalar tree_4_3_u04_r16_network.node[26].core_layer 	data[26] 	10000
scalar tree_4_3_u04_r16_network.node[26].content_store 	p_hit[26] 	0.16310988367227
scalar tree_4_3_u04_r16_network.node[26].content_store 	hits[26] 	1949
scalar tree_4_3_u04_r16_network.node[26].content_store 	misses[26] 	10000
scalar tree_4_3_u04_r16_network.node[26].content_store 	decision_yes[26] 	10000
scalar tree_4_3_u04_r16_network.node[26].content_store 	decision_no[26] 	0
scalar tree_4_3_u04_r16_network.node[26].content_store 	decision_ratio[26] 	1
scalar tree_4_3_u04_r16_network.node[27].core_layer 	interests[27] 	11979
scalar tree_4_3_u04_r16_network.node[27].core_layer 	data[27] 	10134
scalar tree_4_3_u04_r16_network.node[27].content_store 	p_hit[27] 	0.15401953418482
scalar tree_4_3_u04_r16_network.node[27].content_store 	hits[27] 	1845
scalar tree_4_3_u04_r16_network.node[27].content_store 	misses[27] 	10134
scalar tree_4_3_u04_r16_network.node[27].content_store 	decision_yes[27] 	10134
scalar tree_4_3_u04_r16_network.node[27].content_store 	decision_no[27] 	0
scalar tree_4_3_u04_r16_network.node[27].content_store 	decision_ratio[27] 	1
scalar tree_4_3_u04_r16_network.node[28].core_layer 	interests[28] 	11989
scalar tree_4_3_u04_r16_network.node[28].core_layer 	data[28] 	10139
scalar tree_4_3_u04_r16_network.node[28].content_store 	p_hit[28] 	0.15430811577279
scalar tree_4_3_u04_r16_network.node[28].content_store 	hits[28] 	1850
scalar tree_4_3_u04_r16_network.node[28].content_store 	misses[28] 	10139
scalar tree_4_3_u04_r16_network.node[28].content_store 	decision_yes[28] 	10139
scalar tree_4_3_u04_r16_network.node[28].content_store 	decision_no[28] 	0
scalar tree_4_3_u04_r16_network.node[28].content_store 	decision_ratio[28] 	1
scalar tree_4_3_u04_r16_network.node[29].core_layer 	interests[29] 	11948
scalar tree_4_3_u04_r16_network.node[29].core_layer 	data[29] 	10065
scalar tree_4_3_u04_r16_network.node[29].content_store 	p_hit[29] 	0.15768329427519
scalar tree_4_3_u04_r16_network.node[29].content_store 	hits[29] 	1884
scalar tree_4_3_u04_r16_network.node[29].content_store 	misses[29] 	10064
scalar tree_4_3_u04_r16_network.node[29].content_store 	decision_yes[29] 	10065
scalar tree_4_3_u04_r16_network.node[29].content_store 	decision_no[29] 	0
scalar tree_4_3_u04_r16_network.node[29].content_store 	decision_ratio[29] 	1
scalar tree_4_3_u04_r16_network.node[30].core_layer 	interests[30] 	11959
scalar tree_4_3_u04_r16_network.node[30].core_layer 	data[30] 	10087
scalar tree_4_3_u04_r16_network.node[30].content_store 	p_hit[30] 	0.1565348273267
scalar tree_4_3_u04_r16_network.node[30].content_store 	hits[30] 	1872
scalar tree_4_3_u04_r16_network.node[30].content_store 	misses[30] 	10087
scalar tree_4_3_u04_r16_network.node[30].content_store 	decision_yes[30] 	10087
scalar tree_4_3_u04_r16_network.node[30].content_store 	decision_no[30] 	0
scalar tree_4_3_u04_r16_network.node[30].content_store 	decision_ratio[30] 	1
scalar tree_4_3_u04_r16_network.node[31].core_layer 	interests[31] 	11957
scalar tree_4_3_u04_r16_network.node[31].core_layer 	data[31] 	10121
scalar tree_4_3_u04_r16_network.node[31].content_store 	p_hit[31] 	0.15346658860918
scalar tree_4_3_u04_r16_network.node[31].content_store 	hits[31] 	1835
scalar tree_4_3_u04_r16_network.node[31].content_store 	misses[31] 	10122
scalar tree_4_3_u04_r16_network.node[31].content_store 	decision_yes[31] 	10121
scalar tree_4_3_u04_r16_network.node[31].content_store 	decision_no[31] 	0
scalar tree_4_3_u04_r16_network.node[31].content_store 	decision_ratio[31] 	1
scalar tree_4_3_u04_r16_network.node[32].core_layer 	interests[32] 	12038
scalar tree_4_3_u04_r16_network.node[32].core_layer 	data[32] 	10199
scalar tree_4_3_u04_r16_network.node[32].content_store 	p_hit[32] 	0.15268316996179
scalar tree_4_3_u04_r16_network.node[32].content_store 	hits[32] 	1838
scalar tree_4_3_u04_r16_network.node[32].content_store 	misses[32] 	10200
scalar tree_4_3_u04_r16_network.node[32].content_store 	decision_yes[32] 	10199
scalar tree_4_3_u04_r16_network.node[32].content_store 	decision_no[32] 	0
scalar tree_4_3_u04_r16_network.node[32].content_store 	decision_ratio[32] 	1
scalar tree_4_3_u04_r16_network.node[33].core_layer 	interests[33] 	11841
scalar tree_4_3_u04_r16_network.node[33].core_layer 	data[33] 	9964
scalar tree_4_3_u04_r16_network.node[33].content_store 	p_hit[33] 	0.15851701714382
scalar tree_4_3_u04_r16_network.node[33].content_store 	hits[33] 	1877
scalar tree_4_3_u04_r16_network.node[33].content_store 	misses[33] 	9964
scalar tree_4_3_u04_r16_network.node[33].content_store 	decision_yes[33] 	9964
scalar tree_4_3_u04_r16_network.node[33].content_store 	decision_no[33] 	0
scalar tree_4_3_u04_r16_network.node[33].content_store 	decision_ratio[33] 	1
scalar tree_4_3_u04_r16_network.node[34].core_layer 	interests[34] 	12057
scalar tree_4_3_u04_r16_network.node[34].core_layer 	data[34] 	10145
scalar tree_4_3_u04_r16_network.node[34].content_store 	p_hit[34] 	0.15858007796301
scalar tree_4_3_u04_r16_network.node[34].content_store 	hits[34] 	1912
scalar tree_4_3_u04_r16_network.node[34].content_store 	misses[34] 	10145
scalar tree_4_3_u04_r16_network.node[34].content_store 	decision_yes[34] 	10145
scalar tree_4_3_u04_r16_network.node[34].content_store 	decision_no[34] 	0
scalar tree_4_3_u04_r16_network.node[34].content_store 	decision_ratio[34] 	1
scalar tree_4_3_u04_r16_network.node[35].core_layer 	interests[35] 	12073
scalar tree_4_3_u04_r16_network.node[35].core_layer 	data[35] 	10216
scalar tree_4_3_u04_r16_network.node[35].content_store 	p_hit[35] 	0.15381429636379
scalar tree_4_3_u04_r16_network.node[35].content_store 	hits[35] 	1857
scalar tree_4_3_u04_r16_network.node[35].content_store 	misses[35] 	10216
scalar tree_4_3_u04_r16_network.node[35].content_store 	decision_yes[35] 	10216
scalar tree_4_3_u04_r16_network.node[35].content_store 	decision_no[35] 	0
scalar tree_4_3_u04_r16_network.node[35].content_store 	decision_ratio[35] 	1
scalar tree_4_3_u04_r16_network.node[36].core_layer 	interests[36] 	12014
scalar tree_4_3_u04_r16_network.node[36].core_layer 	data[36] 	10137
scalar tree_4_3_u04_r16_network.node[36].content_store 	p_hit[36] 	0.15623439320792
scalar tree_4_3_u04_r16_network.node[36].content_store 	hits[36] 	1877
scalar tree_4_3_u04_r16_network.node[36].content_store 	misses[36] 	10137
scalar tree_4_3_u04_r16_network.node[36].content_store 	decision_yes[36] 	10137
scalar tree_4_3_u04_r16_network.node[36].content_store 	decision_no[36] 	0
scalar tree_4_3_u04_r16_network.node[36].content_store 	decision_ratio[36] 	1
scalar tree_4_3_u04_r16_network.node[37].core_layer 	interests[37] 	11935
scalar tree_4_3_u04_r16_network.node[37].core_layer 	data[37] 	10015
scalar tree_4_3_u04_r16_network.node[37].content_store 	p_hit[37] 	0.1609551738584
scalar tree_4_3_u04_r16_network.node[37].content_store 	hits[37] 	1921
scalar tree_4_3_u04_r16_network.node[37].content_store 	misses[37] 	10014
scalar tree_4_3_u04_r16_network.node[37].content_store 	decision_yes[37] 	10015
scalar tree_4_3_u04_r16_network.node[37].content_store 	decision_no[37] 	0
scalar tree_4_3_u04_r16_network.node[37].content_store 	decision_ratio[37] 	1
scalar tree_4_3_u04_r16_network.node[38].core_layer 	interests[38] 	12002
scalar tree_4_3_u04_r16_network.node[38].core_layer 	data[38] 	10119
scalar tree_4_3_u04_r16_network.node[38].content_store 	p_hit[38] 	0.15672387935344
scalar tree_4_3_u04_r16_network.node[38].content_store 	hits[38] 	1881
scalar tree_4_3_u04_r16_network.node[38].content_store 	misses[38] 	10121
scalar tree_4_3_u04_r16_network.node[38].content_store 	decision_yes[38] 	10119
scalar tree_4_3_u04_r16_network.node[38].content_store 	decision_no[38] 	0
scalar tree_4_3_u04_r16_network.node[38].content_store 	decision_ratio[38] 	1
scalar tree_4_3_u04_r16_network.node[39].core_layer 	interests[39] 	11980
scalar tree_4_3_u04_r16_network.node[39].core_layer 	data[39] 	10150
scalar tree_4_3_u04_r16_network.node[39].content_store 	p_hit[39] 	0.15283806343907
scalar tree_4_3_u04_r16_network.node[39].content_store 	hits[39] 	1831
scalar tree_4_3_u04_r16_network.node[39].content_store 	misses[39] 	10149
scalar tree_4_3_u04_r16_network.node[39].content_store 	decision_yes[39] 	10150
scalar tree_4_3_u04_r16_network.node[39].content_store 	decision_no[39] 	0
scalar tree_4_3_u04_r16_network.node[39].content_store 	decision_ratio[39] 	1
scalar tree_4_3_u04_r16_network.client[13] 	hdistance[13] 	3.2867990654206
scalar tree_4_3_u04_r16_network.client[13] 	downloads[13] 	11984
scalar tree_4_3_u04_r16_network.client[13] 	avg_time[13] 	0.004979034234
scalar tree_4_3_u04_r16_network.client[14] 	hdistance[14] 	3.2463542520072
scalar tree_4_3_u04_r16_network.client[14] 	downloads[14] 	12206
scalar tree_4_3_u04_r16_network.client[14] 	avg_time[14] 	0.004917846482
scalar tree_4_3_u04_r16_network.client[15] 	hdistance[15] 	3.2604210000832
scalar tree_4_3_u04_r16_network.client[15] 	downloads[15] 	12019
scalar tree_4_3_u04_r16_network.client[15] 	avg_time[15] 	0.004942440864
scalar tree_4_3_u04_r16_network.client[16] 	hdistance[16] 	3.2577725634794
scalar tree_4_3_u04_r16_network.client[16] 	downloads[16] 	11933
scalar tree_4_3_u04_r16_network.client[16] 	avg_time[16] 	0.004935607127
scalar tree_4_3_u04_r16_network.client[17] 	hdistance[17] 	3.2530220925386
scalar tree_4_3_u04_r16_network.client[17] 	downloads[17] 	11995
scalar tree_4_3_u04_r16_network.client[17] 	avg_time[17] 	0.004930095259
scalar tree_4_3_u04_r16_network.client[18] 	hdistance[18] 	3.272431892027
scalar tree_4_3_u04_r16_network.client[18] 	downloads[18] 	12003
scalar tree_4_3_u04_r16_network.client[18] 	avg_time[18] 	0.004956912626
scalar tree_4_3_u04_r16_network.client[19] 	hdistance[19] 	3.2767148466873
scalar tree_4_3_u04_r16_network.client[19] 	downloads[19] 	11969
scalar tree_4_3_u04_r16_network.client[19] 	avg_time[19] 	0.004964488619
scalar tree_4_3_u04_r16_network.client[20] 	hdistance[20] 	3.2649746192893
scalar tree_4_3_u04_r16_network.client[20] 	downloads[20] 	11820
scalar tree_4_3_u04_r16_network.client[20] 	avg_time[20] 	0.00494814764
scalar tree_4_3_u04_r16_network.client[21] 	hdistance[21] 	3.2529942575882
scalar tree_4_3_u04_r16_network.client[21] 	downloads[21] 	12190
scalar tree_4_3_u04_r16_network.client[21] 	avg_time[21] 	0.004929119198
scalar tree_4_3_u04_r16_network.client[22] 	hdistance[22] 	3.2240931557343
scalar tree_4_3_u04_r16_network.client[22] 	downloads[22] 	11937
scalar tree_4_3_u04_r16_network.client[22] 	avg_time[22] 	0.004885409367
scalar tree_4_3_u04_r16_network.client[23] 	hdistance[23] 	3.2574133020606
scalar tree_4_3_u04_r16_network.client[23] 	downloads[23] 	11938
scalar tree_4_3_u04_r16_network.client[23] 	avg_time[23] 	0.004934697466
scalar tree_4_3_u04_r16_network.client[24] 	hdistance[24] 	3.2811823480433
scalar tree_4_3_u04_r16_network.client[24] 	downloads[24] 	12010
scalar tree_4_3_u04_r16_network.client[24] 	avg_time[24] 	0.004972671226
scalar tree_4_3_u04_r16_network.client[25] 	hdistance[25] 	3.2598762886598
scalar tree_4_3_u04_r16_network.client[25] 	downloads[25] 	12125
scalar tree_4_3_u04_r16_network.client[25] 	avg_time[25] 	0.004937808192
scalar tree_4_3_u04_r16_network.client[26] 	hdistance[26] 	3.2121516444891
scalar tree_4_3_u04_r16_network.client[26] 	downloads[26] 	11949
scalar tree_4_3_u04_r16_network.client[26] 	avg_time[26] 	0.004875062164
scalar tree_4_3_u04_r16_network.client[27] 	hdistance[27] 	3.2627932214709
scalar tree_4_3_u04_r16_network.client[27] 	downloads[27] 	11979
scalar tree_4_3_u04_r16_network.client[27] 	avg_time[27] 	0.004945151007
scalar tree_4_3_u04_r16_network.client[28] 	hdistance[28] 	3.2739177579448
scalar tree_4_3_u04_r16_network.client[28] 	downloads[28] 	11989
scalar tree_4_3_u04_r16_network.client[28] 	avg_time[28] 	0.004963550629
scalar tree_4_3_u04_r16_network.client[29] 	hdistance[29] 	3.242698133735
scalar tree_4_3_u04_r16_network.client[29] 	downloads[29] 	11949
scalar tree_4_3_u04_r16_network.client[29] 	avg_time[29] 	0.00492132914
scalar tree_4_3_u04_r16_network.client[30] 	hdistance[30] 	3.263567187892
scalar tree_4_3_u04_r16_network.client[30] 	downloads[30] 	11959
scalar tree_4_3_u04_r16_network.client[30] 	avg_time[30] 	0.004953621237
scalar tree_4_3_u04_r16_network.client[31] 	hdistance[31] 	3.2711609233857
scalar tree_4_3_u04_r16_network.client[31] 	downloads[31] 	11956
scalar tree_4_3_u04_r16_network.client[31] 	avg_time[31] 	0.004959521651
scalar tree_4_3_u04_r16_network.client[32] 	hdistance[32] 	3.271330065631
scalar tree_4_3_u04_r16_network.client[32] 	downloads[32] 	12037
scalar tree_4_3_u04_r16_network.client[32] 	avg_time[32] 	0.004962117828
scalar tree_4_3_u04_r16_network.client[33] 	hdistance[33] 	3.2548771218647
scalar tree_4_3_u04_r16_network.client[33] 	downloads[33] 	11841
scalar tree_4_3_u04_r16_network.client[33] 	avg_time[33] 	0.004930661702
scalar tree_4_3_u04_r16_network.client[34] 	hdistance[34] 	3.2453346603633
scalar tree_4_3_u04_r16_network.client[34] 	downloads[34] 	12057
scalar tree_4_3_u04_r16_network.client[34] 	avg_time[34] 	0.004918540595
scalar tree_4_3_u04_r16_network.client[35] 	hdistance[35] 	3.2484055330075
scalar tree_4_3_u04_r16_network.client[35] 	downloads[35] 	12073
scalar tree_4_3_u04_r16_network.client[35] 	avg_time[35] 	0.004928515154
scalar tree_4_3_u04_r16_network.client[36] 	hdistance[36] 	3.2523722323955
scalar tree_4_3_u04_r16_network.client[36] 	downloads[36] 	12014
scalar tree_4_3_u04_r16_network.client[36] 	avg_time[36] 	0.00493059387
scalar tree_4_3_u04_r16_network.client[37] 	hdistance[37] 	3.2515918230563
scalar tree_4_3_u04_r16_network.client[37] 	downloads[37] 	11936
scalar tree_4_3_u04_r16_network.client[37] 	avg_time[37] 	0.004931863092
scalar tree_4_3_u04_r16_network.client[38] 	hdistance[38] 	3.2450833333333
scalar tree_4_3_u04_r16_network.client[38] 	downloads[38] 	12000
scalar tree_4_3_u04_r16_network.client[38] 	avg_time[38] 	0.004918265475
scalar tree_4_3_u04_r16_network.client[39] 	hdistance[39] 	3.2785243301895
scalar tree_4_3_u04_r16_network.client[39] 	downloads[39] 	11981
scalar tree_4_3_u04_r16_network.client[39] 	avg_time[39] 	0.004971368352
