version 2
run General-84-20160820-15:09:33-2644
attr a 0.9
attr cd lce
attr configname General
attr cr lru
attr datetime 20160820-15:09:33
attr experiment General
attr fsize 1
attr inifile hw5115/scenario_A/SPR-LCE.ini
attr iterationvars "$name=tree_4_3, $un=04, $rep=5, $cd=lce, $cr=lru, $fsize=1, $a=0.9, $sl=spr, $ttl=1000, $variance=0.05"
attr iterationvars2 "$name=tree_4_3, $un=04, $rep=5, $cd=lce, $cr=lru, $fsize=1, $a=0.9, $sl=spr, $ttl=1000, $variance=0.05, $repetition=0"
attr measurement "$name=tree_4_3, $un=04, $rep=5, $cd=lce, $cr=lru, $fsize=1, $a=0.9, $sl=spr, $ttl=1000, $variance=0.05"
attr name tree_4_3
attr network networks.${name}_u${un}_r${rep}_network
attr processid 2644
attr rep 5
attr repetition 0
attr replication #0
attr resultdir results
attr runnumber 84
attr seedset 5
attr sl spr
attr ttl 1000
attr un 04
attr variance 0.05

scalar . 	a 	0.9
scalar . 	fsize 	1
scalar . 	rep 	5
scalar . 	ttl 	1000
scalar . 	un 	04
scalar . 	variance 	0.05
scalar tree_4_3_u04_r5_network.content_distribution 	repo-0 	0
scalar tree_4_3_u04_r5_network.content_distribution 	client-0 	13
scalar tree_4_3_u04_r5_network.content_distribution 	client-1 	14
scalar tree_4_3_u04_r5_network.content_distribution 	client-2 	15
scalar tree_4_3_u04_r5_network.content_distribution 	client-3 	16
scalar tree_4_3_u04_r5_network.content_distribution 	client-4 	17
scalar tree_4_3_u04_r5_network.content_distribution 	client-5 	18
scalar tree_4_3_u04_r5_network.content_distribution 	client-6 	19
scalar tree_4_3_u04_r5_network.content_distribution 	client-7 	20
scalar tree_4_3_u04_r5_network.content_distribution 	client-8 	21
scalar tree_4_3_u04_r5_network.content_distribution 	client-9 	22
scalar tree_4_3_u04_r5_network.content_distribution 	client-10 	23
scalar tree_4_3_u04_r5_network.content_distribution 	client-11 	24
scalar tree_4_3_u04_r5_network.content_distribution 	client-12 	25
scalar tree_4_3_u04_r5_network.content_distribution 	client-13 	26
scalar tree_4_3_u04_r5_network.content_distribution 	client-14 	27
scalar tree_4_3_u04_r5_network.content_distribution 	client-15 	28
scalar tree_4_3_u04_r5_network.content_distribution 	client-16 	29
scalar tree_4_3_u04_r5_network.content_distribution 	client-17 	30
scalar tree_4_3_u04_r5_network.content_distribution 	client-18 	31
scalar tree_4_3_u04_r5_network.content_distribution 	client-19 	32
scalar tree_4_3_u04_r5_network.content_distribution 	client-20 	33
scalar tree_4_3_u04_r5_network.content_distribution 	client-21 	34
scalar tree_4_3_u04_r5_network.content_distribution 	client-22 	35
scalar tree_4_3_u04_r5_network.content_distribution 	client-23 	36
scalar tree_4_3_u04_r5_network.content_distribution 	client-24 	37
scalar tree_4_3_u04_r5_network.content_distribution 	client-25 	38
scalar tree_4_3_u04_r5_network.content_distribution 	client-26 	39
scalar tree_4_3_u04_r5_network.content_distribution 	repo-0_card 	100000
scalar tree_4_3_u04_r5_network.content_distribution 	repo-0_price 	0
scalar tree_4_3_u04_r5_network.statistics 	stabilization_time 	497.2
scalar tree_4_3_u04_r5_network.statistics 	p_hit 	0.11336764896123
scalar tree_4_3_u04_r5_network.statistics 	interests 	27996.325
scalar tree_4_3_u04_r5_network.statistics 	data 	19918.725
scalar tree_4_3_u04_r5_network.statistics 	hdistance 	3.2535251969556
scalar tree_4_3_u04_r5_network.statistics 	avg_time 	0.004932106941
scalar tree_4_3_u04_r5_network.statistics 	downloads 	323085
scalar tree_4_3_u04_r5_network.statistics 	total_cost 	0
scalar tree_4_3_u04_r5_network.statistics 	total_replicas 	100000
scalar tree_4_3_u04_r5_network.statistics 	inner_hit 	0.21281087020444
scalar tree_4_3_u04_r5_network.node[0].core_layer 	interests[0] 	259028
scalar tree_4_3_u04_r5_network.node[0].core_layer 	repo_load[0] 	254329
scalar tree_4_3_u04_r5_network.node[0].core_layer 	data[0] 	0
scalar tree_4_3_u04_r5_network.node[0].core_layer 	repo_int[0] 	254329
scalar tree_4_3_u04_r5_network.node[0].content_store 	p_hit[0] 	0.018140895964915
scalar tree_4_3_u04_r5_network.node[0].content_store 	hits[0] 	4699
scalar tree_4_3_u04_r5_network.node[0].content_store 	misses[0] 	254329
scalar tree_4_3_u04_r5_network.node[0].content_store 	decision_yes[0] 	254329
scalar tree_4_3_u04_r5_network.node[0].content_store 	decision_no[0] 	0
scalar tree_4_3_u04_r5_network.node[0].content_store 	decision_ratio[0] 	1
scalar tree_4_3_u04_r5_network.node[1].core_layer 	interests[1] 	127637
scalar tree_4_3_u04_r5_network.node[1].core_layer 	data[1] 	124472
scalar tree_4_3_u04_r5_network.node[1].content_store 	p_hit[1] 	0.024702868290543
scalar tree_4_3_u04_r5_network.node[1].content_store 	hits[1] 	3153
scalar tree_4_3_u04_r5_network.node[1].content_store 	misses[1] 	124484
scalar tree_4_3_u04_r5_network.node[1].content_store 	decision_yes[1] 	124472
scalar tree_4_3_u04_r5_network.node[1].content_store 	decision_no[1] 	0
scalar tree_4_3_u04_r5_network.node[1].content_store 	decision_ratio[1] 	1
scalar tree_4_3_u04_r5_network.node[2].core_layer 	interests[2] 	88191
scalar tree_4_3_u04_r5_network.node[2].core_layer 	data[2] 	86242
scalar tree_4_3_u04_r5_network.node[2].content_store 	p_hit[2] 	0.022043065618941
scalar tree_4_3_u04_r5_network.node[2].content_store 	hits[2] 	1944
scalar tree_4_3_u04_r5_network.node[2].content_store 	misses[2] 	86247
scalar tree_4_3_u04_r5_network.node[2].content_store 	decision_yes[2] 	86242
scalar tree_4_3_u04_r5_network.node[2].content_store 	decision_no[2] 	0
scalar tree_4_3_u04_r5_network.node[2].content_store 	decision_ratio[2] 	1
scalar tree_4_3_u04_r5_network.node[3].core_layer 	interests[3] 	49161
scalar tree_4_3_u04_r5_network.node[3].core_layer 	data[3] 	48314
scalar tree_4_3_u04_r5_network.node[3].content_store 	p_hit[3] 	0.017208763043876
scalar tree_4_3_u04_r5_network.node[3].content_store 	hits[3] 	846
scalar tree_4_3_u04_r5_network.node[3].content_store 	misses[3] 	48315
scalar tree_4_3_u04_r5_network.node[3].content_store 	decision_yes[3] 	48314
scalar tree_4_3_u04_r5_network.node[3].content_store 	decision_no[3] 	0
scalar tree_4_3_u04_r5_network.node[3].content_store 	decision_ratio[3] 	1
scalar tree_4_3_u04_r5_network.node[4].core_layer 	interests[4] 	40226
scalar tree_4_3_u04_r5_network.node[4].core_layer 	data[4] 	38956
scalar tree_4_3_u04_r5_network.node[4].content_store 	p_hit[4] 	0.031447322627157
scalar tree_4_3_u04_r5_network.node[4].content_store 	hits[4] 	1265
scalar tree_4_3_u04_r5_network.node[4].content_store 	misses[4] 	38961
scalar tree_4_3_u04_r5_network.node[4].content_store 	decision_yes[4] 	38956
scalar tree_4_3_u04_r5_network.node[4].content_store 	decision_no[4] 	0
scalar tree_4_3_u04_r5_network.node[4].content_store 	decision_ratio[4] 	1
scalar tree_4_3_u04_r5_network.node[5].core_layer 	interests[5] 	20390
scalar tree_4_3_u04_r5_network.node[5].core_layer 	data[5] 	19960
scalar tree_4_3_u04_r5_network.node[5].content_store 	p_hit[5] 	0.021088769004414
scalar tree_4_3_u04_r5_network.node[5].content_store 	hits[5] 	430
scalar tree_4_3_u04_r5_network.node[5].content_store 	misses[5] 	19960
scalar tree_4_3_u04_r5_network.node[5].content_store 	decision_yes[5] 	19960
scalar tree_4_3_u04_r5_network.node[5].content_store 	decision_no[5] 	0
scalar tree_4_3_u04_r5_network.node[5].content_store 	decision_ratio[5] 	1
scalar tree_4_3_u04_r5_network.node[6].core_layer 	interests[6] 	30504
scalar tree_4_3_u04_r5_network.node[6].core_layer 	data[6] 	29661
scalar tree_4_3_u04_r5_network.node[6].content_store 	p_hit[6] 	0.027602937319696
scalar tree_4_3_u04_r5_network.node[6].content_store 	hits[6] 	842
scalar tree_4_3_u04_r5_network.node[6].content_store 	misses[6] 	29662
scalar tree_4_3_u04_r5_network.node[6].content_store 	decision_yes[6] 	29661
scalar tree_4_3_u04_r5_network.node[6].content_store 	decision_no[6] 	0
scalar tree_4_3_u04_r5_network.node[6].content_store 	decision_ratio[6] 	1
scalar tree_4_3_u04_r5_network.node[7].core_layer 	interests[7] 	40366
scalar tree_4_3_u04_r5_network.node[7].core_layer 	data[7] 	39062
scalar tree_4_3_u04_r5_network.node[7].content_store 	p_hit[7] 	0.032205321310013
scalar tree_4_3_u04_r5_network.node[7].content_store 	hits[7] 	1300
scalar tree_4_3_u04_r5_network.node[7].content_store 	misses[7] 	39066
scalar tree_4_3_u04_r5_network.node[7].content_store 	decision_yes[7] 	39062
scalar tree_4_3_u04_r5_network.node[7].content_store 	decision_no[7] 	0
scalar tree_4_3_u04_r5_network.node[7].content_store 	decision_ratio[7] 	1
scalar tree_4_3_u04_r5_network.node[8].core_layer 	interests[8] 	20226
scalar tree_4_3_u04_r5_network.node[8].core_layer 	data[8] 	19769
scalar tree_4_3_u04_r5_network.node[8].content_store 	p_hit[8] 	0.022545238801543
scalar tree_4_3_u04_r5_network.node[8].content_store 	hits[8] 	456
scalar tree_4_3_u04_r5_network.node[8].content_store 	misses[8] 	19770
scalar tree_4_3_u04_r5_network.node[8].content_store 	decision_yes[8] 	19769
scalar tree_4_3_u04_r5_network.node[8].content_store 	decision_no[8] 	0
scalar tree_4_3_u04_r5_network.node[8].content_store 	decision_ratio[8] 	1
scalar tree_4_3_u04_r5_network.node[9].core_layer 	interests[9] 	30006
scalar tree_4_3_u04_r5_network.node[9].core_layer 	data[9] 	29095
scalar tree_4_3_u04_r5_network.node[9].content_store 	p_hit[9] 	0.030293941211758
scalar tree_4_3_u04_r5_network.node[9].content_store 	hits[9] 	909
scalar tree_4_3_u04_r5_network.node[9].content_store 	misses[9] 	29097
scalar tree_4_3_u04_r5_network.node[9].content_store 	decision_yes[9] 	29095
scalar tree_4_3_u04_r5_network.node[9].content_store 	decision_no[9] 	0
scalar tree_4_3_u04_r5_network.node[9].content_store 	decision_ratio[9] 	1
scalar tree_4_3_u04_r5_network.node[10].core_layer 	interests[10] 	20063
scalar tree_4_3_u04_r5_network.node[10].core_layer 	data[10] 	19642
scalar tree_4_3_u04_r5_network.node[10].content_store 	p_hit[10] 	0.020934057718188
scalar tree_4_3_u04_r5_network.node[10].content_store 	hits[10] 	420
scalar tree_4_3_u04_r5_network.node[10].content_store 	misses[10] 	19643
scalar tree_4_3_u04_r5_network.node[10].content_store 	decision_yes[10] 	19642
scalar tree_4_3_u04_r5_network.node[10].content_store 	decision_no[10] 	0
scalar tree_4_3_u04_r5_network.node[10].content_store 	decision_ratio[10] 	1
scalar tree_4_3_u04_r5_network.node[11].core_layer 	interests[11] 	40588
scalar tree_4_3_u04_r5_network.node[11].core_layer 	data[11] 	39327
scalar tree_4_3_u04_r5_network.node[11].content_store 	p_hit[11] 	0.031019020400118
scalar tree_4_3_u04_r5_network.node[11].content_store 	hits[11] 	1259
scalar tree_4_3_u04_r5_network.node[11].content_store 	misses[11] 	39329
scalar tree_4_3_u04_r5_network.node[11].content_store 	decision_yes[11] 	39327
scalar tree_4_3_u04_r5_network.node[11].content_store 	decision_no[11] 	0
scalar tree_4_3_u04_r5_network.node[11].content_store 	decision_ratio[11] 	1
scalar tree_4_3_u04_r5_network.node[12].core_layer 	interests[12] 	30361
scalar tree_4_3_u04_r5_network.node[12].core_layer 	data[12] 	29519
scalar tree_4_3_u04_r5_network.node[12].content_store 	p_hit[12] 	0.027634135898027
scalar tree_4_3_u04_r5_network.node[12].content_store 	hits[12] 	839
scalar tree_4_3_u04_r5_network.node[12].content_store 	misses[12] 	29522
scalar tree_4_3_u04_r5_network.node[12].content_store 	decision_yes[12] 	29519
scalar tree_4_3_u04_r5_network.node[12].content_store 	decision_no[12] 	0
scalar tree_4_3_u04_r5_network.node[12].content_store 	decision_ratio[12] 	1
scalar tree_4_3_u04_r5_network.node[13].core_layer 	interests[13] 	11941
scalar tree_4_3_u04_r5_network.node[13].core_layer 	data[13] 	10083
scalar tree_4_3_u04_r5_network.node[13].content_store 	p_hit[13] 	0.15551461351646
scalar tree_4_3_u04_r5_network.node[13].content_store 	hits[13] 	1857
scalar tree_4_3_u04_r5_network.node[13].content_store 	misses[13] 	10084
scalar tree_4_3_u04_r5_network.node[13].content_store 	decision_yes[13] 	10083
scalar tree_4_3_u04_r5_network.node[13].content_store 	decision_no[13] 	0
scalar tree_4_3_u04_r5_network.node[13].content_store 	decision_ratio[13] 	1
scalar tree_4_3_u04_r5_network.node[14].core_layer 	interests[14] 	11816
scalar tree_4_3_u04_r5_network.node[14].core_layer 	data[14] 	9957
scalar tree_4_3_u04_r5_network.node[14].content_store 	p_hit[14] 	0.15699052132701
scalar tree_4_3_u04_r5_network.node[14].content_store 	hits[14] 	1855
scalar tree_4_3_u04_r5_network.node[14].content_store 	misses[14] 	9961
scalar tree_4_3_u04_r5_network.node[14].content_store 	decision_yes[14] 	9957
scalar tree_4_3_u04_r5_network.node[14].content_store 	decision_no[14] 	0
scalar tree_4_3_u04_r5_network.node[14].content_store 	decision_ratio[14] 	1
scalar tree_4_3_u04_r5_network.node[15].core_layer 	interests[15] 	12023
scalar tree_4_3_u04_r5_network.node[15].core_layer 	data[15] 	10143
scalar tree_4_3_u04_r5_network.node[15].content_store 	p_hit[15] 	0.15620061548698
scalar tree_4_3_u04_r5_network.node[15].content_store 	hits[15] 	1878
scalar tree_4_3_u04_r5_network.node[15].content_store 	misses[15] 	10145
scalar tree_4_3_u04_r5_network.node[15].content_store 	decision_yes[15] 	10143
scalar tree_4_3_u04_r5_network.node[15].content_store 	decision_no[15] 	0
scalar tree_4_3_u04_r5_network.node[15].content_store 	decision_ratio[15] 	1
scalar tree_4_3_u04_r5_network.node[16].core_layer 	interests[16] 	11922
scalar tree_4_3_u04_r5_network.node[16].core_layer 	data[16] 	10043
scalar tree_4_3_u04_r5_network.node[16].content_store 	p_hit[16] 	0.15760778392887
scalar tree_4_3_u04_r5_network.node[16].content_store 	hits[16] 	1879
scalar tree_4_3_u04_r5_network.node[16].content_store 	misses[16] 	10043
scalar tree_4_3_u04_r5_network.node[16].content_store 	decision_yes[16] 	10043
scalar tree_4_3_u04_r5_network.node[16].content_store 	decision_no[16] 	0
scalar tree_4_3_u04_r5_network.node[16].content_store 	decision_ratio[16] 	1
scalar tree_4_3_u04_r5_network.node[17].core_layer 	interests[17] 	12146
scalar tree_4_3_u04_r5_network.node[17].core_layer 	data[17] 	10268
scalar tree_4_3_u04_r5_network.node[17].content_store 	p_hit[17] 	0.15461880454471
scalar tree_4_3_u04_r5_network.node[17].content_store 	hits[17] 	1878
scalar tree_4_3_u04_r5_network.node[17].content_store 	misses[17] 	10268
scalar tree_4_3_u04_r5_network.node[17].content_store 	decision_yes[17] 	10268
scalar tree_4_3_u04_r5_network.node[17].content_store 	decision_no[17] 	0
scalar tree_4_3_u04_r5_network.node[17].content_store 	decision_ratio[17] 	1
scalar tree_4_3_u04_r5_network.node[18].core_layer 	interests[18] 	12077
scalar tree_4_3_u04_r5_network.node[18].core_layer 	data[18] 	10123
scalar tree_4_3_u04_r5_network.node[18].content_store 	p_hit[18] 	0.16187794982198
scalar tree_4_3_u04_r5_network.node[18].content_store 	hits[18] 	1955
scalar tree_4_3_u04_r5_network.node[18].content_store 	misses[18] 	10122
scalar tree_4_3_u04_r5_network.node[18].content_store 	decision_yes[18] 	10123
scalar tree_4_3_u04_r5_network.node[18].content_store 	decision_no[18] 	0
scalar tree_4_3_u04_r5_network.node[18].content_store 	decision_ratio[18] 	1
scalar tree_4_3_u04_r5_network.node[19].core_layer 	interests[19] 	12175
scalar tree_4_3_u04_r5_network.node[19].core_layer 	data[19] 	10288
scalar tree_4_3_u04_r5_network.node[19].content_store 	p_hit[19] 	0.15490759753593
scalar tree_4_3_u04_r5_network.node[19].content_store 	hits[19] 	1886
scalar tree_4_3_u04_r5_network.node[19].content_store 	misses[19] 	10289
scalar tree_4_3_u04_r5_network.node[19].content_store 	decision_yes[19] 	10288
scalar tree_4_3_u04_r5_network.node[19].content_store 	decision_no[19] 	0
scalar tree_4_3_u04_r5_network.node[19].content_store 	decision_ratio[19] 	1
scalar tree_4_3_u04_r5_network.node[20].core_layer 	interests[20] 	11975
scalar tree_4_3_u04_r5_network.node[20].core_layer 	data[20] 	10152
scalar tree_4_3_u04_r5_network.node[20].content_store 	p_hit[20] 	0.15206680584551
scalar tree_4_3_u04_r5_network.node[20].content_store 	hits[20] 	1821
scalar tree_4_3_u04_r5_network.node[20].content_store 	misses[20] 	10154
scalar tree_4_3_u04_r5_network.node[20].content_store 	decision_yes[20] 	10152
scalar tree_4_3_u04_r5_network.node[20].content_store 	decision_no[20] 	0
scalar tree_4_3_u04_r5_network.node[20].content_store 	decision_ratio[20] 	1
scalar tree_4_3_u04_r5_network.node[21].core_layer 	interests[21] 	12010
scalar tree_4_3_u04_r5_network.node[21].core_layer 	data[21] 	10063
scalar tree_4_3_u04_r5_network.node[21].content_store 	p_hit[21] 	0.16203164029975
scalar tree_4_3_u04_r5_network.node[21].content_store 	hits[21] 	1946
scalar tree_4_3_u04_r5_network.node[21].content_store 	misses[21] 	10064
scalar tree_4_3_u04_r5_network.node[21].content_store 	decision_yes[21] 	10063
scalar tree_4_3_u04_r5_network.node[21].content_store 	decision_no[21] 	0
scalar tree_4_3_u04_r5_network.node[21].content_store 	decision_ratio[21] 	1
scalar tree_4_3_u04_r5_network.node[22].core_layer 	interests[22] 	12059
scalar tree_4_3_u04_r5_network.node[22].core_layer 	data[22] 	10178
scalar tree_4_3_u04_r5_network.node[22].content_store 	p_hit[22] 	0.15590015755867
scalar tree_4_3_u04_r5_network.node[22].content_store 	hits[22] 	1880
scalar tree_4_3_u04_r5_network.node[22].content_store 	misses[22] 	10179
scalar tree_4_3_u04_r5_network.node[22].content_store 	decision_yes[22] 	10178
scalar tree_4_3_u04_r5_network.node[22].content_store 	decision_no[22] 	0
scalar tree_4_3_u04_r5_network.node[22].content_store 	decision_ratio[22] 	1
scalar tree_4_3_u04_r5_network.node[23].core_layer 	interests[23] 	11878
scalar tree_4_3_u04_r5_network.node[23].core_layer 	data[23] 	10033
scalar tree_4_3_u04_r5_network.node[23].content_store 	p_hit[23] 	0.15541336925408
scalar tree_4_3_u04_r5_network.node[23].content_store 	hits[23] 	1846
scalar tree_4_3_u04_r5_network.node[23].content_store 	misses[23] 	10032
scalar tree_4_3_u04_r5_network.node[23].content_store 	decision_yes[23] 	10033
scalar tree_4_3_u04_r5_network.node[23].content_store 	decision_no[23] 	0
scalar tree_4_3_u04_r5_network.node[23].content_store 	decision_ratio[23] 	1
scalar tree_4_3_u04_r5_network.node[24].core_layer 	interests[24] 	11837
scalar tree_4_3_u04_r5_network.node[24].core_layer 	data[24] 	9952
scalar tree_4_3_u04_r5_network.node[24].content_store 	p_hit[24] 	0.15907746895328
scalar tree_4_3_u04_r5_network.node[24].content_store 	hits[24] 	1883
scalar tree_4_3_u04_r5_network.node[24].content_store 	misses[24] 	9954
scalar tree_4_3_u04_r5_network.node[24].content_store 	decision_yes[24] 	9952
scalar tree_4_3_u04_r5_network.node[24].content_store 	decision_no[24] 	0
scalar tree_4_3_u04_r5_network.node[24].content_store 	decision_ratio[24] 	1
scalar tree_4_3_u04_r5_network.node[25].core_layer 	interests[25] 	11983
scalar tree_4_3_u04_r5_network.node[25].core_layer 	data[25] 	10203
scalar tree_4_3_u04_r5_network.node[25].content_store 	p_hit[25] 	0.14846031878495
scalar tree_4_3_u04_r5_network.node[25].content_store 	hits[25] 	1779
scalar tree_4_3_u04_r5_network.node[25].content_store 	misses[25] 	10204
scalar tree_4_3_u04_r5_network.node[25].content_store 	decision_yes[25] 	10203
scalar tree_4_3_u04_r5_network.node[25].content_store 	decision_no[25] 	0
scalar tree_4_3_u04_r5_network.node[25].content_store 	decision_ratio[25] 	1
scalar tree_4_3_u04_r5_network.node[26].core_layer 	interests[26] 	11901
scalar tree_4_3_u04_r5_network.node[26].core_layer 	data[26] 	10025
scalar tree_4_3_u04_r5_network.node[26].content_store 	p_hit[26] 	0.15763381228468
scalar tree_4_3_u04_r5_network.node[26].content_store 	hits[26] 	1876
scalar tree_4_3_u04_r5_network.node[26].content_store 	misses[26] 	10025
scalar tree_4_3_u04_r5_network.node[26].content_store 	decision_yes[26] 	10025
scalar tree_4_3_u04_r5_network.node[26].content_store 	decision_no[26] 	0
scalar tree_4_3_u04_r5_network.node[26].content_store 	decision_ratio[26] 	1
scalar tree_4_3_u04_r5_network.node[27].core_layer 	interests[27] 	12058
scalar tree_4_3_u04_r5_network.node[27].core_layer 	data[27] 	10201
scalar tree_4_3_u04_r5_network.node[27].content_store 	p_hit[27] 	0.15392270691657
scalar tree_4_3_u04_r5_network.node[27].content_store 	hits[27] 	1856
scalar tree_4_3_u04_r5_network.node[27].content_store 	misses[27] 	10202
scalar tree_4_3_u04_r5_network.node[27].content_store 	decision_yes[27] 	10201
scalar tree_4_3_u04_r5_network.node[27].content_store 	decision_no[27] 	0
scalar tree_4_3_u04_r5_network.node[27].content_store 	decision_ratio[27] 	1
scalar tree_4_3_u04_r5_network.node[28].core_layer 	interests[28] 	11975
scalar tree_4_3_u04_r5_network.node[28].core_layer 	data[28] 	9944
scalar tree_4_3_u04_r5_network.node[28].content_store 	p_hit[28] 	0.16960334029228
scalar tree_4_3_u04_r5_network.node[28].content_store 	hits[28] 	2031
scalar tree_4_3_u04_r5_network.node[28].content_store 	misses[28] 	9944
scalar tree_4_3_u04_r5_network.node[28].content_store 	decision_yes[28] 	9944
scalar tree_4_3_u04_r5_network.node[28].content_store 	decision_no[28] 	0
scalar tree_4_3_u04_r5_network.node[28].content_store 	decision_ratio[28] 	1
scalar tree_4_3_u04_r5_network.node[29].core_layer 	interests[29] 	11873
scalar tree_4_3_u04_r5_network.node[29].core_layer 	data[29] 	10112
scalar tree_4_3_u04_r5_network.node[29].content_store 	p_hit[29] 	0.14823549229344
scalar tree_4_3_u04_r5_network.node[29].content_store 	hits[29] 	1760
scalar tree_4_3_u04_r5_network.node[29].content_store 	misses[29] 	10113
scalar tree_4_3_u04_r5_network.node[29].content_store 	decision_yes[29] 	10112
scalar tree_4_3_u04_r5_network.node[29].content_store 	decision_no[29] 	0
scalar tree_4_3_u04_r5_network.node[29].content_store 	decision_ratio[29] 	1
scalar tree_4_3_u04_r5_network.node[30].core_layer 	interests[30] 	11865
scalar tree_4_3_u04_r5_network.node[30].core_layer 	data[30] 	9950
scalar tree_4_3_u04_r5_network.node[30].content_store 	p_hit[30] 	0.1613990729035
scalar tree_4_3_u04_r5_network.node[30].content_store 	hits[30] 	1915
scalar tree_4_3_u04_r5_network.node[30].content_store 	misses[30] 	9950
scalar tree_4_3_u04_r5_network.node[30].content_store 	decision_yes[30] 	9950
scalar tree_4_3_u04_r5_network.node[30].content_store 	decision_no[30] 	0
scalar tree_4_3_u04_r5_network.node[30].content_store 	decision_ratio[30] 	1
scalar tree_4_3_u04_r5_network.node[31].core_layer 	interests[31] 	11971
scalar tree_4_3_u04_r5_network.node[31].core_layer 	data[31] 	10125
scalar tree_4_3_u04_r5_network.node[31].content_store 	p_hit[31] 	0.15412246261799
scalar tree_4_3_u04_r5_network.node[31].content_store 	hits[31] 	1845
scalar tree_4_3_u04_r5_network.node[31].content_store 	misses[31] 	10126
scalar tree_4_3_u04_r5_network.node[31].content_store 	decision_yes[31] 	10125
scalar tree_4_3_u04_r5_network.node[31].content_store 	decision_no[31] 	0
scalar tree_4_3_u04_r5_network.node[31].content_store 	decision_ratio[31] 	1
scalar tree_4_3_u04_r5_network.node[32].core_layer 	interests[32] 	12008
scalar tree_4_3_u04_r5_network.node[32].core_layer 	data[32] 	10216
scalar tree_4_3_u04_r5_network.node[32].content_store 	p_hit[32] 	0.14890073284477
scalar tree_4_3_u04_r5_network.node[32].content_store 	hits[32] 	1788
scalar tree_4_3_u04_r5_network.node[32].content_store 	misses[32] 	10220
scalar tree_4_3_u04_r5_network.node[32].content_store 	decision_yes[32] 	10216
scalar tree_4_3_u04_r5_network.node[32].content_store 	decision_no[32] 	0
scalar tree_4_3_u04_r5_network.node[32].content_store 	decision_ratio[32] 	1
scalar tree_4_3_u04_r5_network.node[33].core_layer 	interests[33] 	11858
scalar tree_4_3_u04_r5_network.node[33].core_layer 	data[33] 	9938
scalar tree_4_3_u04_r5_network.node[33].content_store 	p_hit[33] 	0.16191600607185
scalar tree_4_3_u04_r5_network.node[33].content_store 	hits[33] 	1920
scalar tree_4_3_u04_r5_network.node[33].content_store 	misses[33] 	9938
scalar tree_4_3_u04_r5_network.node[33].content_store 	decision_yes[33] 	9938
scalar tree_4_3_u04_r5_network.node[33].content_store 	decision_no[33] 	0
scalar tree_4_3_u04_r5_network.node[33].content_store 	decision_ratio[33] 	1
scalar tree_4_3_u04_r5_network.node[34].core_layer 	interests[34] 	11974
scalar tree_4_3_u04_r5_network.node[34].core_layer 	data[34] 	10144
scalar tree_4_3_u04_r5_network.node[34].content_store 	p_hit[34] 	0.15283113412394
scalar tree_4_3_u04_r5_network.node[34].content_store 	hits[34] 	1830
scalar tree_4_3_u04_r5_network.node[34].content_store 	misses[34] 	10144
scalar tree_4_3_u04_r5_network.node[34].content_store 	decision_yes[34] 	10144
scalar tree_4_3_u04_r5_network.node[34].content_store 	decision_no[34] 	0
scalar tree_4_3_u04_r5_network.node[34].content_store 	decision_ratio[34] 	1
scalar tree_4_3_u04_r5_network.node[35].core_layer 	interests[35] 	12030
scalar tree_4_3_u04_r5_network.node[35].core_layer 	data[35] 	10155
scalar tree_4_3_u04_r5_network.node[35].content_store 	p_hit[35] 	0.15577722360765
scalar tree_4_3_u04_r5_network.node[35].content_store 	hits[35] 	1874
scalar tree_4_3_u04_r5_network.node[35].content_store 	misses[35] 	10156
scalar tree_4_3_u04_r5_network.node[35].content_store 	decision_yes[35] 	10155
scalar tree_4_3_u04_r5_network.node[35].content_store 	decision_no[35] 	0
scalar tree_4_3_u04_r5_network.node[35].content_store 	decision_ratio[35] 	1
scalar tree_4_3_u04_r5_network.node[36].core_layer 	interests[36] 	11884
scalar tree_4_3_u04_r5_network.node[36].core_layer 	data[36] 	10073
scalar tree_4_3_u04_r5_network.node[36].content_store 	p_hit[36] 	0.15238976775496
scalar tree_4_3_u04_r5_network.node[36].content_store 	hits[36] 	1811
scalar tree_4_3_u04_r5_network.node[36].content_store 	misses[36] 	10073
scalar tree_4_3_u04_r5_network.node[36].content_store 	decision_yes[36] 	10073
scalar tree_4_3_u04_r5_network.node[36].content_store 	decision_no[36] 	0
scalar tree_4_3_u04_r5_network.node[36].content_store 	decision_ratio[36] 	1
scalar tree_4_3_u04_r5_network.node[37].core_layer 	interests[37] 	12182
scalar tree_4_3_u04_r5_network.node[37].core_layer 	data[37] 	10270
scalar tree_4_3_u04_r5_network.node[37].content_store 	p_hit[37] 	0.15695288130028
scalar tree_4_3_u04_r5_network.node[37].content_store 	hits[37] 	1912
scalar tree_4_3_u04_r5_network.node[37].content_store 	misses[37] 	10270
scalar tree_4_3_u04_r5_network.node[37].content_store 	decision_yes[37] 	10270
scalar tree_4_3_u04_r5_network.node[37].content_store 	decision_no[37] 	0
scalar tree_4_3_u04_r5_network.node[37].content_store 	decision_ratio[37] 	1
scalar tree_4_3_u04_r5_network.node[38].core_layer 	interests[38] 	11833
scalar tree_4_3_u04_r5_network.node[38].core_layer 	data[38] 	10007
scalar tree_4_3_u04_r5_network.node[38].content_store 	p_hit[38] 	0.15431420603397
scalar tree_4_3_u04_r5_network.node[38].content_store 	hits[38] 	1826
scalar tree_4_3_u04_r5_network.node[38].content_store 	misses[38] 	10007
scalar tree_4_3_u04_r5_network.node[38].content_store 	decision_yes[38] 	10007
scalar tree_4_3_u04_r5_network.node[38].content_store 	decision_no[38] 	0
scalar tree_4_3_u04_r5_network.node[38].content_store 	decision_ratio[38] 	1
scalar tree_4_3_u04_r5_network.node[39].core_layer 	interests[39] 	11852
scalar tree_4_3_u04_r5_network.node[39].core_layer 	data[39] 	10084
scalar tree_4_3_u04_r5_network.node[39].content_store 	p_hit[39] 	0.14917313533581
scalar tree_4_3_u04_r5_network.node[39].content_store 	hits[39] 	1768
scalar tree_4_3_u04_r5_network.node[39].content_store 	misses[39] 	10084
scalar tree_4_3_u04_r5_network.node[39].content_store 	decision_yes[39] 	10084
scalar tree_4_3_u04_r5_network.node[39].content_store 	decision_no[39] 	0
scalar tree_4_3_u04_r5_network.node[39].content_store 	decision_ratio[39] 	1
scalar tree_4_3_u04_r5_network.client[13] 	hdistance[13] 	3.2522613065327
scalar tree_4_3_u04_r5_network.client[13] 	downloads[13] 	11940
scalar tree_4_3_u04_r5_network.client[13] 	avg_time[13] 	0.004924413783
scalar tree_4_3_u04_r5_network.client[14] 	hdistance[14] 	3.2412800541822
scalar tree_4_3_u04_r5_network.client[14] 	downloads[14] 	11812
scalar tree_4_3_u04_r5_network.client[14] 	avg_time[14] 	0.004910754543
scalar tree_4_3_u04_r5_network.client[15] 	hdistance[15] 	3.251476582647
scalar tree_4_3_u04_r5_network.client[15] 	downloads[15] 	12021
scalar tree_4_3_u04_r5_network.client[15] 	avg_time[15] 	0.004925738997
scalar tree_4_3_u04_r5_network.client[16] 	hdistance[16] 	3.237879550411
scalar tree_4_3_u04_r5_network.client[16] 	downloads[16] 	11922
scalar tree_4_3_u04_r5_network.client[16] 	avg_time[16] 	0.00490561738
scalar tree_4_3_u04_r5_network.client[17] 	hdistance[17] 	3.2660958340194
scalar tree_4_3_u04_r5_network.client[17] 	downloads[17] 	12146
scalar tree_4_3_u04_r5_network.client[17] 	avg_time[17] 	0.004950954821
scalar tree_4_3_u04_r5_network.client[18] 	hdistance[18] 	3.2441629408843
scalar tree_4_3_u04_r5_network.client[18] 	downloads[18] 	12078
scalar tree_4_3_u04_r5_network.client[18] 	avg_time[18] 	0.004915223935
scalar tree_4_3_u04_r5_network.client[19] 	hdistance[19] 	3.2584195827173
scalar tree_4_3_u04_r5_network.client[19] 	downloads[19] 	12174
scalar tree_4_3_u04_r5_network.client[19] 	avg_time[19] 	0.00493597828
scalar tree_4_3_u04_r5_network.client[20] 	hdistance[20] 	3.2640942119769
scalar tree_4_3_u04_r5_network.client[20] 	downloads[20] 	11973
scalar tree_4_3_u04_r5_network.client[20] 	avg_time[20] 	0.00494665605
scalar tree_4_3_u04_r5_network.client[21] 	hdistance[21] 	3.2246648347073
scalar tree_4_3_u04_r5_network.client[21] 	downloads[21] 	12009
scalar tree_4_3_u04_r5_network.client[21] 	avg_time[21] 	0.004886834607
scalar tree_4_3_u04_r5_network.client[22] 	hdistance[22] 	3.239011444684
scalar tree_4_3_u04_r5_network.client[22] 	downloads[22] 	12058
scalar tree_4_3_u04_r5_network.client[22] 	avg_time[22] 	0.004909601644
scalar tree_4_3_u04_r5_network.client[23] 	hdistance[23] 	3.2489266773297
scalar tree_4_3_u04_r5_network.client[23] 	downloads[23] 	11879
scalar tree_4_3_u04_r5_network.client[23] 	avg_time[23] 	0.004920940871
scalar tree_4_3_u04_r5_network.client[24] 	hdistance[24] 	3.2326151246303
scalar tree_4_3_u04_r5_network.client[24] 	downloads[24] 	11835
scalar tree_4_3_u04_r5_network.client[24] 	avg_time[24] 	0.004899839764
scalar tree_4_3_u04_r5_network.client[25] 	hdistance[25] 	3.2805875479886
scalar tree_4_3_u04_r5_network.client[25] 	downloads[25] 	11982
scalar tree_4_3_u04_r5_network.client[25] 	avg_time[25] 	0.004969478431
scalar tree_4_3_u04_r5_network.client[26] 	hdistance[26] 	3.2494748340476
scalar tree_4_3_u04_r5_network.client[26] 	downloads[26] 	11901
scalar tree_4_3_u04_r5_network.client[26] 	avg_time[26] 	0.004931683432
scalar tree_4_3_u04_r5_network.client[27] 	hdistance[27] 	3.2640789582815
scalar tree_4_3_u04_r5_network.client[27] 	downloads[27] 	12057
scalar tree_4_3_u04_r5_network.client[27] 	avg_time[27] 	0.004951630529
scalar tree_4_3_u04_r5_network.client[28] 	hdistance[28] 	3.1942379958246
scalar tree_4_3_u04_r5_network.client[28] 	downloads[28] 	11975
scalar tree_4_3_u04_r5_network.client[28] 	avg_time[28] 	0.004847640554
scalar tree_4_3_u04_r5_network.client[29] 	hdistance[29] 	3.2805761455526
scalar tree_4_3_u04_r5_network.client[29] 	downloads[29] 	11872
scalar tree_4_3_u04_r5_network.client[29] 	avg_time[29] 	0.004975548461
scalar tree_4_3_u04_r5_network.client[30] 	hdistance[30] 	3.2254530130636
scalar tree_4_3_u04_r5_network.client[30] 	downloads[30] 	11865
scalar tree_4_3_u04_r5_network.client[30] 	avg_time[30] 	0.004889560313
scalar tree_4_3_u04_r5_network.client[31] 	hdistance[31] 	3.278529657477
scalar tree_4_3_u04_r5_network.client[31] 	downloads[31] 	11970
scalar tree_4_3_u04_r5_network.client[31] 	avg_time[31] 	0.004972866049
scalar tree_4_3_u04_r5_network.client[32] 	hdistance[32] 	3.2797400866378
scalar tree_4_3_u04_r5_network.client[32] 	downloads[32] 	12004
scalar tree_4_3_u04_r5_network.client[32] 	avg_time[32] 	0.004970006589
scalar tree_4_3_u04_r5_network.client[33] 	hdistance[33] 	3.247680890538
scalar tree_4_3_u04_r5_network.client[33] 	downloads[33] 	11858
scalar tree_4_3_u04_r5_network.client[33] 	avg_time[33] 	0.004924056405
scalar tree_4_3_u04_r5_network.client[34] 	hdistance[34] 	3.260815099382
scalar tree_4_3_u04_r5_network.client[34] 	downloads[34] 	11974
scalar tree_4_3_u04_r5_network.client[34] 	avg_time[34] 	0.004946046781
scalar tree_4_3_u04_r5_network.client[35] 	hdistance[35] 	3.2498960844626
scalar tree_4_3_u04_r5_network.client[35] 	downloads[35] 	12029
scalar tree_4_3_u04_r5_network.client[35] 	avg_time[35] 	0.00492626258
scalar tree_4_3_u04_r5_network.client[36] 	hdistance[36] 	3.2648939750926
scalar tree_4_3_u04_r5_network.client[36] 	downloads[36] 	11884
scalar tree_4_3_u04_r5_network.client[36] 	avg_time[36] 	0.004949984687
scalar tree_4_3_u04_r5_network.client[37] 	hdistance[37] 	3.2600558200624
scalar tree_4_3_u04_r5_network.client[37] 	downloads[37] 	12182
scalar tree_4_3_u04_r5_network.client[37] 	avg_time[37] 	0.004942552247
scalar tree_4_3_u04_r5_network.client[38] 	hdistance[38] 	3.2695005493113
scalar tree_4_3_u04_r5_network.client[38] 	downloads[38] 	11833
scalar tree_4_3_u04_r5_network.client[38] 	avg_time[38] 	0.004961391387
scalar tree_4_3_u04_r5_network.client[39] 	hdistance[39] 	3.2787715153561
scalar tree_4_3_u04_r5_network.client[39] 	downloads[39] 	11852
scalar tree_4_3_u04_r5_network.client[39] 	avg_time[39] 	0.004975624287
