version 2
run General-19-20160822-10:14:05-13100
attr D fix0.05
attr F spr
attr R lru
attr a 0.6
attr configname General
attr datetime 20160822-10:14:05
attr experiment General
attr inifile hw5115/scenario_B/bus.ini
attr iterationvars "$net=bus, $rep=0, $a=0.6, $F=spr, $D=fix0.05, $R=lru, $window=60, $variance=0.05, $mytime=600"
attr iterationvars2 "$net=bus, $rep=0, $a=0.6, $F=spr, $D=fix0.05, $R=lru, $window=60, $variance=0.05, $mytime=600, $repetition=0"
attr measurement "$net=bus, $rep=0, $a=0.6, $F=spr, $D=fix0.05, $R=lru, $window=60, $variance=0.05, $mytime=600"
attr mytime 600
attr net bus
attr network networks.${net=bus}_network
attr processid 13100
attr rep 0
attr repetition 0
attr replication #0
attr resultdir results
attr runnumber 19
attr seedset 0
attr variance 0.05
attr window 60

scalar . 	a 	0.6
scalar . 	mytime 	600
scalar . 	rep 	0
scalar . 	variance 	0.05
scalar . 	window 	60
scalar bus_network.content_distribution 	repo-0 	9
scalar bus_network.content_distribution 	client-0 	5
scalar bus_network.content_distribution 	client-1 	8
scalar bus_network.content_distribution 	client-2 	9
scalar bus_network.content_distribution 	client-3 	0
scalar bus_network.content_distribution 	client-4 	1
scalar bus_network.content_distribution 	client-5 	7
scalar bus_network.content_distribution 	client-6 	6
scalar bus_network.content_distribution 	client-7 	2
scalar bus_network.content_distribution 	client-8 	4
scalar bus_network.content_distribution 	client-9 	3
scalar bus_network.content_distribution 	repo-0_card 	100000
scalar bus_network.content_distribution 	repo-0_price 	0
scalar bus_network.statistics 	stabilization_time 	1085.6
scalar bus_network.statistics 	p_hit 	0.0078337590742509
scalar bus_network.statistics 	interests 	64410.3
scalar bus_network.statistics 	data 	52414.9
scalar bus_network.statistics 	hdistance 	5.34358260607
scalar bus_network.statistics 	avg_time 	0.008755452648
scalar bus_network.statistics 	downloads 	119962
scalar bus_network.statistics 	total_cost 	0
scalar bus_network.statistics 	total_replicas 	100000
scalar bus_network.statistics 	inner_hit 	0.034302529134226
scalar bus_network.node[0].core_layer 	interests[0] 	11945
scalar bus_network.node[0].core_layer 	data[0] 	11734
scalar bus_network.node[0].core_layer 	repo_int[0] 	115847
scalar bus_network.node[0].content_store 	p_hit[0] 	0.017664294683968
scalar bus_network.node[0].content_store 	hits[0] 	211
scalar bus_network.node[0].content_store 	misses[0] 	11734
scalar bus_network.node[0].content_store 	decision_yes[0] 	593
scalar bus_network.node[0].content_store 	decision_no[0] 	11141
scalar bus_network.node[0].content_store 	decision_ratio[0] 	0.050536901312425
scalar bus_network.node[1].core_layer 	interests[1] 	23689
scalar bus_network.node[1].core_layer 	data[1] 	23448
scalar bus_network.node[1].content_store 	p_hit[1] 	0.010173498248132
scalar bus_network.node[1].content_store 	hits[1] 	241
scalar bus_network.node[1].content_store 	misses[1] 	23448
scalar bus_network.node[1].content_store 	decision_yes[1] 	1172
scalar bus_network.node[1].content_store 	decision_no[1] 	22276
scalar bus_network.node[1].content_store 	decision_ratio[1] 	0.049982940975776
scalar bus_network.node[2].core_layer 	interests[2] 	35287
scalar bus_network.node[2].core_layer 	data[2] 	34966
scalar bus_network.node[2].content_store 	p_hit[2] 	0.0090684954799218
scalar bus_network.node[2].content_store 	hits[2] 	320
scalar bus_network.node[2].content_store 	misses[2] 	34967
scalar bus_network.node[2].content_store 	decision_yes[2] 	1766
scalar bus_network.node[2].content_store 	decision_no[2] 	33200
scalar bus_network.node[2].content_store 	decision_ratio[2] 	0.050506206028714
scalar bus_network.node[3].core_layer 	interests[3] 	47064
scalar bus_network.node[3].core_layer 	data[3] 	46767
scalar bus_network.node[3].content_store 	p_hit[3] 	0.0063105558388577
scalar bus_network.node[3].content_store 	hits[3] 	297
scalar bus_network.node[3].content_store 	misses[3] 	46767
scalar bus_network.node[3].content_store 	decision_yes[3] 	2363
scalar bus_network.node[3].content_store 	decision_no[3] 	44404
scalar bus_network.node[3].content_store 	decision_ratio[3] 	0.050527081061432
scalar bus_network.node[4].core_layer 	interests[4] 	58763
scalar bus_network.node[4].core_layer 	data[4] 	58411
scalar bus_network.node[4].content_store 	p_hit[4] 	0.0060071813896499
scalar bus_network.node[4].content_store 	hits[4] 	353
scalar bus_network.node[4].content_store 	misses[4] 	58410
scalar bus_network.node[4].content_store 	decision_yes[4] 	2984
scalar bus_network.node[4].content_store 	decision_no[4] 	55427
scalar bus_network.node[4].content_store 	decision_ratio[4] 	0.051086267997466
scalar bus_network.node[5].core_layer 	interests[5] 	70388
scalar bus_network.node[5].core_layer 	data[5] 	69917
scalar bus_network.node[5].content_store 	p_hit[5] 	0.0066914815025288
scalar bus_network.node[5].content_store 	hits[5] 	471
scalar bus_network.node[5].content_store 	misses[5] 	69917
scalar bus_network.node[5].content_store 	decision_yes[5] 	3533
scalar bus_network.node[5].content_store 	decision_no[5] 	66384
scalar bus_network.node[5].content_store 	decision_ratio[5] 	0.050531344308251
scalar bus_network.node[6].core_layer 	interests[6] 	81951
scalar bus_network.node[6].core_layer 	data[6] 	81475
scalar bus_network.node[6].content_store 	p_hit[6] 	0.0057961464777733
scalar bus_network.node[6].content_store 	hits[6] 	475
scalar bus_network.node[6].content_store 	misses[6] 	81476
scalar bus_network.node[6].content_store 	decision_yes[6] 	4121
scalar bus_network.node[6].content_store 	decision_no[6] 	77354
scalar bus_network.node[6].content_store 	decision_ratio[6] 	0.05057993249463
scalar bus_network.node[7].core_layer 	interests[7] 	93552
scalar bus_network.node[7].core_layer 	data[7] 	92982
scalar bus_network.node[7].content_store 	p_hit[7] 	0.0060928681375064
scalar bus_network.node[7].content_store 	hits[7] 	570
scalar bus_network.node[7].content_store 	misses[7] 	92982
scalar bus_network.node[7].content_store 	decision_yes[7] 	4634
scalar bus_network.node[7].content_store 	decision_no[7] 	88348
scalar bus_network.node[7].content_store 	decision_ratio[7] 	0.04983760297692
scalar bus_network.node[8].core_layer 	interests[8] 	104997
scalar bus_network.node[8].core_layer 	data[8] 	104449
scalar bus_network.node[8].content_store 	p_hit[8] 	0.005209672657314
scalar bus_network.node[8].content_store 	hits[8] 	547
scalar bus_network.node[8].content_store 	misses[8] 	104450
scalar bus_network.node[8].content_store 	decision_yes[8] 	5223
scalar bus_network.node[8].content_store 	decision_no[8] 	99226
scalar bus_network.node[8].content_store 	decision_ratio[8] 	0.050005265727771
scalar bus_network.node[9].core_layer 	interests[9] 	116467
scalar bus_network.node[9].core_layer 	repo_load[9] 	115847
scalar bus_network.node[9].core_layer 	data[9] 	0
scalar bus_network.node[9].content_store 	p_hit[9] 	0.0053233963268565
scalar bus_network.node[9].content_store 	hits[9] 	620
scalar bus_network.node[9].content_store 	misses[9] 	115847
scalar bus_network.node[9].content_store 	decision_yes[9] 	5888
scalar bus_network.node[9].content_store 	decision_no[9] 	109959
scalar bus_network.node[9].content_store 	decision_ratio[9] 	0.050825657979922
scalar bus_network.client[0] 	hdistance[0] 	9.5871075763918
scalar bus_network.client[0] 	downloads[0] 	11945
scalar bus_network.client[0] 	avg_time[0] 	0.017289712483
scalar bus_network.client[1] 	hdistance[1] 	8.6820843091334
scalar bus_network.client[1] 	downloads[1] 	11956
scalar bus_network.client[1] 	avg_time[1] 	0.015469719308
scalar bus_network.client[2] 	hdistance[2] 	7.7594391418194
scalar bus_network.client[2] 	downloads[2] 	11839
scalar bus_network.client[2] 	avg_time[2] 	0.01360913091
scalar bus_network.client[3] 	hdistance[3] 	6.8134556574924
scalar bus_network.client[3] 	downloads[3] 	12099
scalar bus_network.client[3] 	avg_time[3] 	0.011710744247
scalar bus_network.client[4] 	hdistance[4] 	5.8559639909977
scalar bus_network.client[4] 	downloads[4] 	11997
scalar bus_network.client[4] 	avg_time[4] 	0.009786777049
scalar bus_network.client[5] 	hdistance[5] 	4.8878777759225
scalar bus_network.client[5] 	downloads[5] 	11978
scalar bus_network.client[5] 	avg_time[5] 	0.007843005089
scalar bus_network.client[6] 	hdistance[6] 	3.9263044200731
scalar bus_network.client[6] 	downloads[6] 	12036
scalar bus_network.client[6] 	avg_time[6] 	0.005909810526
scalar bus_network.client[7] 	hdistance[7] 	2.9535519125683
scalar bus_network.client[7] 	downloads[7] 	12078
scalar bus_network.client[7] 	avg_time[7] 	0.003950110562
scalar bus_network.client[8] 	hdistance[8] 	1.9780292942743
scalar bus_network.client[8] 	downloads[8] 	12016
scalar bus_network.client[8] 	avg_time[8] 	0.001985516312
scalar bus_network.client[9] 	hdistance[9] 	0.99201198202696
scalar bus_network.client[9] 	downloads[9] 	12018
scalar bus_network.client[9] 	avg_time[9] 	0
