version 2
run General-3-20160819-00:04:31-14109
attr a 0.9
attr cd fix0.01
attr configname General
attr cr lru
attr datetime 20160819-00:04:31
attr experiment General
attr fsize 1
attr inifile hw5115/scenario_A/NRR-FIX0.01.ini
attr iterationvars "$name=tree_4_3, $un=00, $rep=4, $cd=fix0.01, $cr=lru, $fsize=1, $a=0.9, $sl=nrr, $ttl=1000, $variance=0.05"
attr iterationvars2 "$name=tree_4_3, $un=00, $rep=4, $cd=fix0.01, $cr=lru, $fsize=1, $a=0.9, $sl=nrr, $ttl=1000, $variance=0.05, $repetition=0"
attr measurement "$name=tree_4_3, $un=00, $rep=4, $cd=fix0.01, $cr=lru, $fsize=1, $a=0.9, $sl=nrr, $ttl=1000, $variance=0.05"
attr name tree_4_3
attr network networks.${name}_u${un}_r${rep}_network
attr processid 14109
attr rep 4
attr repetition 0
attr replication #0
attr resultdir results
attr runnumber 3
attr seedset 4
attr sl nrr
attr ttl 1000
attr un 00
attr variance 0.05

scalar . 	a 	0.9
scalar . 	fsize 	1
scalar . 	rep 	4
scalar . 	ttl 	1000
scalar . 	un 	00
scalar . 	variance 	0.05
scalar tree_4_3_u00_r4_network.content_distribution 	repo-0 	0
scalar tree_4_3_u00_r4_network.content_distribution 	client-0 	13
scalar tree_4_3_u00_r4_network.content_distribution 	client-1 	14
scalar tree_4_3_u00_r4_network.content_distribution 	client-2 	15
scalar tree_4_3_u00_r4_network.content_distribution 	client-3 	16
scalar tree_4_3_u00_r4_network.content_distribution 	client-4 	17
scalar tree_4_3_u00_r4_network.content_distribution 	client-5 	18
scalar tree_4_3_u00_r4_network.content_distribution 	client-6 	19
scalar tree_4_3_u00_r4_network.content_distribution 	client-7 	20
scalar tree_4_3_u00_r4_network.content_distribution 	client-8 	21
scalar tree_4_3_u00_r4_network.content_distribution 	client-9 	22
scalar tree_4_3_u00_r4_network.content_distribution 	client-10 	23
scalar tree_4_3_u00_r4_network.content_distribution 	client-11 	24
scalar tree_4_3_u00_r4_network.content_distribution 	client-12 	25
scalar tree_4_3_u00_r4_network.content_distribution 	client-13 	26
scalar tree_4_3_u00_r4_network.content_distribution 	client-14 	27
scalar tree_4_3_u00_r4_network.content_distribution 	client-15 	28
scalar tree_4_3_u00_r4_network.content_distribution 	client-16 	29
scalar tree_4_3_u00_r4_network.content_distribution 	client-17 	30
scalar tree_4_3_u00_r4_network.content_distribution 	client-18 	31
scalar tree_4_3_u00_r4_network.content_distribution 	client-19 	32
scalar tree_4_3_u00_r4_network.content_distribution 	client-20 	33
scalar tree_4_3_u00_r4_network.content_distribution 	client-21 	34
scalar tree_4_3_u00_r4_network.content_distribution 	client-22 	35
scalar tree_4_3_u00_r4_network.content_distribution 	client-23 	36
scalar tree_4_3_u00_r4_network.content_distribution 	client-24 	37
scalar tree_4_3_u00_r4_network.content_distribution 	client-25 	38
scalar tree_4_3_u00_r4_network.content_distribution 	client-26 	39
scalar tree_4_3_u00_r4_network.content_distribution 	repo-0_card 	100000
scalar tree_4_3_u00_r4_network.content_distribution 	repo-0_price 	0
scalar tree_4_3_u00_r4_network.statistics 	stabilization_time 	2027.5
scalar tree_4_3_u00_r4_network.statistics 	p_hit 	0.21415800211431
scalar tree_4_3_u00_r4_network.statistics 	interests 	25840.525
scalar tree_4_3_u00_r4_network.statistics 	data 	17709.55
scalar tree_4_3_u00_r4_network.statistics 	hdistance 	2.7751647853632
scalar tree_4_3_u00_r4_network.statistics 	avg_time 	0.004356044849
scalar tree_4_3_u00_r4_network.statistics 	downloads 	325230
scalar tree_4_3_u00_r4_network.statistics 	total_cost 	0
scalar tree_4_3_u00_r4_network.statistics 	total_replicas 	100000
scalar tree_4_3_u00_r4_network.statistics 	inner_hit 	0.40287796328752
scalar tree_4_3_u00_r4_network.node[0].core_layer 	interests[0] 	196138
scalar tree_4_3_u00_r4_network.node[0].core_layer 	repo_load[0] 	194202
scalar tree_4_3_u00_r4_network.node[0].core_layer 	data[0] 	0
scalar tree_4_3_u00_r4_network.node[0].core_layer 	repo_int[0] 	194202
scalar tree_4_3_u00_r4_network.node[0].content_store 	p_hit[0] 	0.0098706013113216
scalar tree_4_3_u00_r4_network.node[0].content_store 	hits[0] 	1936
scalar tree_4_3_u00_r4_network.node[0].content_store 	misses[0] 	194202
scalar tree_4_3_u00_r4_network.node[0].content_store 	decision_yes[0] 	1984
scalar tree_4_3_u00_r4_network.node[0].content_store 	decision_no[0] 	192218
scalar tree_4_3_u00_r4_network.node[0].content_store 	decision_ratio[0] 	0.010216166671816
scalar tree_4_3_u00_r4_network.node[1].core_layer 	interests[1] 	73016
scalar tree_4_3_u00_r4_network.node[1].core_layer 	data[1] 	71141
scalar tree_4_3_u00_r4_network.node[1].content_store 	p_hit[1] 	0.025679303166429
scalar tree_4_3_u00_r4_network.node[1].content_store 	hits[1] 	1875
scalar tree_4_3_u00_r4_network.node[1].content_store 	misses[1] 	71141
scalar tree_4_3_u00_r4_network.node[1].content_store 	decision_yes[1] 	697
scalar tree_4_3_u00_r4_network.node[1].content_store 	decision_no[1] 	70444
scalar tree_4_3_u00_r4_network.node[1].content_store 	decision_ratio[1] 	0.0097974445116037
scalar tree_4_3_u00_r4_network.node[2].core_layer 	interests[2] 	73369
scalar tree_4_3_u00_r4_network.node[2].core_layer 	data[2] 	71672
scalar tree_4_3_u00_r4_network.node[2].content_store 	p_hit[2] 	0.023116029930897
scalar tree_4_3_u00_r4_network.node[2].content_store 	hits[2] 	1696
scalar tree_4_3_u00_r4_network.node[2].content_store 	misses[2] 	71673
scalar tree_4_3_u00_r4_network.node[2].content_store 	decision_yes[2] 	677
scalar tree_4_3_u00_r4_network.node[2].content_store 	decision_no[2] 	70995
scalar tree_4_3_u00_r4_network.node[2].content_store 	decision_ratio[2] 	0.0094458086840049
scalar tree_4_3_u00_r4_network.node[3].core_layer 	interests[3] 	73353
scalar tree_4_3_u00_r4_network.node[3].core_layer 	data[3] 	71604
scalar tree_4_3_u00_r4_network.node[3].content_store 	p_hit[3] 	0.023843605578504
scalar tree_4_3_u00_r4_network.node[3].content_store 	hits[3] 	1749
scalar tree_4_3_u00_r4_network.node[3].content_store 	misses[3] 	71604
scalar tree_4_3_u00_r4_network.node[3].content_store 	decision_yes[3] 	748
scalar tree_4_3_u00_r4_network.node[3].content_store 	decision_no[3] 	70856
scalar tree_4_3_u00_r4_network.node[3].content_store 	decision_ratio[3] 	0.010446343779677
scalar tree_4_3_u00_r4_network.node[4].core_layer 	interests[4] 	29837
scalar tree_4_3_u00_r4_network.node[4].core_layer 	data[4] 	27142
scalar tree_4_3_u00_r4_network.node[4].content_store 	p_hit[4] 	0.090290578811543
scalar tree_4_3_u00_r4_network.node[4].content_store 	hits[4] 	2694
scalar tree_4_3_u00_r4_network.node[4].content_store 	misses[4] 	27143
scalar tree_4_3_u00_r4_network.node[4].content_store 	decision_yes[4] 	289
scalar tree_4_3_u00_r4_network.node[4].content_store 	decision_no[4] 	26853
scalar tree_4_3_u00_r4_network.node[4].content_store 	decision_ratio[4] 	0.010647704664358
scalar tree_4_3_u00_r4_network.node[5].core_layer 	interests[5] 	29866
scalar tree_4_3_u00_r4_network.node[5].core_layer 	data[5] 	27019
scalar tree_4_3_u00_r4_network.node[5].content_store 	p_hit[5] 	0.095325788522065
scalar tree_4_3_u00_r4_network.node[5].content_store 	hits[5] 	2847
scalar tree_4_3_u00_r4_network.node[5].content_store 	misses[5] 	27019
scalar tree_4_3_u00_r4_network.node[5].content_store 	decision_yes[5] 	238
scalar tree_4_3_u00_r4_network.node[5].content_store 	decision_no[5] 	26781
scalar tree_4_3_u00_r4_network.node[5].content_store 	decision_ratio[5] 	0.0088086161589992
scalar tree_4_3_u00_r4_network.node[6].core_layer 	interests[6] 	29511
scalar tree_4_3_u00_r4_network.node[6].core_layer 	data[6] 	27040
scalar tree_4_3_u00_r4_network.node[6].content_store 	p_hit[6] 	0.083731489952899
scalar tree_4_3_u00_r4_network.node[6].content_store 	hits[6] 	2471
scalar tree_4_3_u00_r4_network.node[6].content_store 	misses[6] 	27040
scalar tree_4_3_u00_r4_network.node[6].content_store 	decision_yes[6] 	290
scalar tree_4_3_u00_r4_network.node[6].content_store 	decision_no[6] 	26750
scalar tree_4_3_u00_r4_network.node[6].content_store 	decision_ratio[6] 	0.010724852071006
scalar tree_4_3_u00_r4_network.node[7].core_layer 	interests[7] 	30228
scalar tree_4_3_u00_r4_network.node[7].core_layer 	data[7] 	27466
scalar tree_4_3_u00_r4_network.node[7].content_store 	p_hit[7] 	0.091372237660447
scalar tree_4_3_u00_r4_network.node[7].content_store 	hits[7] 	2762
scalar tree_4_3_u00_r4_network.node[7].content_store 	misses[7] 	27466
scalar tree_4_3_u00_r4_network.node[7].content_store 	decision_yes[7] 	258
scalar tree_4_3_u00_r4_network.node[7].content_store 	decision_no[7] 	27208
scalar tree_4_3_u00_r4_network.node[7].content_store 	decision_ratio[7] 	0.0093934318794145
scalar tree_4_3_u00_r4_network.node[8].core_layer 	interests[8] 	29654
scalar tree_4_3_u00_r4_network.node[8].core_layer 	data[8] 	26972
scalar tree_4_3_u00_r4_network.node[8].content_store 	p_hit[8] 	0.09044311054158
scalar tree_4_3_u00_r4_network.node[8].content_store 	hits[8] 	2682
scalar tree_4_3_u00_r4_network.node[8].content_store 	misses[8] 	26972
scalar tree_4_3_u00_r4_network.node[8].content_store 	decision_yes[8] 	262
scalar tree_4_3_u00_r4_network.node[8].content_store 	decision_no[8] 	26710
scalar tree_4_3_u00_r4_network.node[8].content_store 	decision_ratio[8] 	0.009713777250482
scalar tree_4_3_u00_r4_network.node[9].core_layer 	interests[9] 	29669
scalar tree_4_3_u00_r4_network.node[9].core_layer 	data[9] 	26932
scalar tree_4_3_u00_r4_network.node[9].content_store 	p_hit[9] 	0.092251171256193
scalar tree_4_3_u00_r4_network.node[9].content_store 	hits[9] 	2737
scalar tree_4_3_u00_r4_network.node[9].content_store 	misses[9] 	26932
scalar tree_4_3_u00_r4_network.node[9].content_store 	decision_yes[9] 	285
scalar tree_4_3_u00_r4_network.node[9].content_store 	decision_no[9] 	26647
scalar tree_4_3_u00_r4_network.node[9].content_store 	decision_ratio[9] 	0.010582207039952
scalar tree_4_3_u00_r4_network.node[10].core_layer 	interests[10] 	29803
scalar tree_4_3_u00_r4_network.node[10].core_layer 	data[10] 	27023
scalar tree_4_3_u00_r4_network.node[10].content_store 	p_hit[10] 	0.093279200080529
scalar tree_4_3_u00_r4_network.node[10].content_store 	hits[10] 	2780
scalar tree_4_3_u00_r4_network.node[10].content_store 	misses[10] 	27023
scalar tree_4_3_u00_r4_network.node[10].content_store 	decision_yes[10] 	300
scalar tree_4_3_u00_r4_network.node[10].content_store 	decision_no[10] 	26723
scalar tree_4_3_u00_r4_network.node[10].content_store 	decision_ratio[10] 	0.011101654146468
scalar tree_4_3_u00_r4_network.node[11].core_layer 	interests[11] 	30296
scalar tree_4_3_u00_r4_network.node[11].core_layer 	data[11] 	27196
scalar tree_4_3_u00_r4_network.node[11].content_store 	p_hit[11] 	0.10235674676525
scalar tree_4_3_u00_r4_network.node[11].content_store 	hits[11] 	3101
scalar tree_4_3_u00_r4_network.node[11].content_store 	misses[11] 	27195
scalar tree_4_3_u00_r4_network.node[11].content_store 	decision_yes[11] 	254
scalar tree_4_3_u00_r4_network.node[11].content_store 	decision_no[11] 	26942
scalar tree_4_3_u00_r4_network.node[11].content_store 	decision_ratio[11] 	0.009339608765995
scalar tree_4_3_u00_r4_network.node[12].core_layer 	interests[12] 	29644
scalar tree_4_3_u00_r4_network.node[12].core_layer 	data[12] 	26946
scalar tree_4_3_u00_r4_network.node[12].content_store 	p_hit[12] 	0.091013358521117
scalar tree_4_3_u00_r4_network.node[12].content_store 	hits[12] 	2698
scalar tree_4_3_u00_r4_network.node[12].content_store 	misses[12] 	26946
scalar tree_4_3_u00_r4_network.node[12].content_store 	decision_yes[12] 	304
scalar tree_4_3_u00_r4_network.node[12].content_store 	decision_no[12] 	26642
scalar tree_4_3_u00_r4_network.node[12].content_store 	decision_ratio[12] 	0.011281822905069
scalar tree_4_3_u00_r4_network.node[13].core_layer 	interests[13] 	13078
scalar tree_4_3_u00_r4_network.node[13].core_layer 	data[13] 	9278
scalar tree_4_3_u00_r4_network.node[13].content_store 	p_hit[13] 	0.2904878421777
scalar tree_4_3_u00_r4_network.node[13].content_store 	hits[13] 	3799
scalar tree_4_3_u00_r4_network.node[13].content_store 	misses[13] 	9279
scalar tree_4_3_u00_r4_network.node[13].content_store 	decision_yes[13] 	78
scalar tree_4_3_u00_r4_network.node[13].content_store 	decision_no[13] 	9200
scalar tree_4_3_u00_r4_network.node[13].content_store 	decision_ratio[13] 	0.00840698426385
scalar tree_4_3_u00_r4_network.node[14].core_layer 	interests[14] 	12988
scalar tree_4_3_u00_r4_network.node[14].core_layer 	data[14] 	9258
scalar tree_4_3_u00_r4_network.node[14].content_store 	p_hit[14] 	0.28711117955035
scalar tree_4_3_u00_r4_network.node[14].content_store 	hits[14] 	3729
scalar tree_4_3_u00_r4_network.node[14].content_store 	misses[14] 	9259
scalar tree_4_3_u00_r4_network.node[14].content_store 	decision_yes[14] 	86
scalar tree_4_3_u00_r4_network.node[14].content_store 	decision_no[14] 	9172
scalar tree_4_3_u00_r4_network.node[14].content_store 	decision_ratio[14] 	0.0092892633398142
scalar tree_4_3_u00_r4_network.node[15].core_layer 	interests[15] 	12847
scalar tree_4_3_u00_r4_network.node[15].core_layer 	data[15] 	9257
scalar tree_4_3_u00_r4_network.node[15].content_store 	p_hit[15] 	0.27928699307231
scalar tree_4_3_u00_r4_network.node[15].content_store 	hits[15] 	3588
scalar tree_4_3_u00_r4_network.node[15].content_store 	misses[15] 	9259
scalar tree_4_3_u00_r4_network.node[15].content_store 	decision_yes[15] 	79
scalar tree_4_3_u00_r4_network.node[15].content_store 	decision_no[15] 	9178
scalar tree_4_3_u00_r4_network.node[15].content_store 	decision_ratio[15] 	0.0085340823160851
scalar tree_4_3_u00_r4_network.node[16].core_layer 	interests[16] 	12939
scalar tree_4_3_u00_r4_network.node[16].core_layer 	data[16] 	9065
scalar tree_4_3_u00_r4_network.node[16].content_store 	p_hit[16] 	0.29932761418966
scalar tree_4_3_u00_r4_network.node[16].content_store 	hits[16] 	3873
scalar tree_4_3_u00_r4_network.node[16].content_store 	misses[16] 	9066
scalar tree_4_3_u00_r4_network.node[16].content_store 	decision_yes[16] 	108
scalar tree_4_3_u00_r4_network.node[16].content_store 	decision_no[16] 	8957
scalar tree_4_3_u00_r4_network.node[16].content_store 	decision_ratio[16] 	0.011913954771098
scalar tree_4_3_u00_r4_network.node[17].core_layer 	interests[17] 	13041
scalar tree_4_3_u00_r4_network.node[17].core_layer 	data[17] 	9417
scalar tree_4_3_u00_r4_network.node[17].content_store 	p_hit[17] 	0.27781611839583
scalar tree_4_3_u00_r4_network.node[17].content_store 	hits[17] 	3623
scalar tree_4_3_u00_r4_network.node[17].content_store 	misses[17] 	9418
scalar tree_4_3_u00_r4_network.node[17].content_store 	decision_yes[17] 	119
scalar tree_4_3_u00_r4_network.node[17].content_store 	decision_no[17] 	9298
scalar tree_4_3_u00_r4_network.node[17].content_store 	decision_ratio[17] 	0.012636720824042
scalar tree_4_3_u00_r4_network.node[18].core_layer 	interests[18] 	12946
scalar tree_4_3_u00_r4_network.node[18].core_layer 	data[18] 	9506
scalar tree_4_3_u00_r4_network.node[18].content_store 	p_hit[18] 	0.26571914104743
scalar tree_4_3_u00_r4_network.node[18].content_store 	hits[18] 	3440
scalar tree_4_3_u00_r4_network.node[18].content_store 	misses[18] 	9506
scalar tree_4_3_u00_r4_network.node[18].content_store 	decision_yes[18] 	91
scalar tree_4_3_u00_r4_network.node[18].content_store 	decision_no[18] 	9415
scalar tree_4_3_u00_r4_network.node[18].content_store 	decision_ratio[18] 	0.0095729013254786
scalar tree_4_3_u00_r4_network.node[19].core_layer 	interests[19] 	13087
scalar tree_4_3_u00_r4_network.node[19].core_layer 	data[19] 	9327
scalar tree_4_3_u00_r4_network.node[19].content_store 	p_hit[19] 	0.28723160388171
scalar tree_4_3_u00_r4_network.node[19].content_store 	hits[19] 	3759
scalar tree_4_3_u00_r4_network.node[19].content_store 	misses[19] 	9328
scalar tree_4_3_u00_r4_network.node[19].content_store 	decision_yes[19] 	90
scalar tree_4_3_u00_r4_network.node[19].content_store 	decision_no[19] 	9237
scalar tree_4_3_u00_r4_network.node[19].content_store 	decision_ratio[19] 	0.0096494049533612
scalar tree_4_3_u00_r4_network.node[20].core_layer 	interests[20] 	12817
scalar tree_4_3_u00_r4_network.node[20].core_layer 	data[20] 	9149
scalar tree_4_3_u00_r4_network.node[20].content_store 	p_hit[20] 	0.28618241398143
scalar tree_4_3_u00_r4_network.node[20].content_store 	hits[20] 	3668
scalar tree_4_3_u00_r4_network.node[20].content_store 	misses[20] 	9149
scalar tree_4_3_u00_r4_network.node[20].content_store 	decision_yes[20] 	95
scalar tree_4_3_u00_r4_network.node[20].content_store 	decision_no[20] 	9054
scalar tree_4_3_u00_r4_network.node[20].content_store 	decision_ratio[20] 	0.010383648486173
scalar tree_4_3_u00_r4_network.node[21].core_layer 	interests[21] 	12911
scalar tree_4_3_u00_r4_network.node[21].core_layer 	data[21] 	9164
scalar tree_4_3_u00_r4_network.node[21].content_store 	p_hit[21] 	0.29021764386957
scalar tree_4_3_u00_r4_network.node[21].content_store 	hits[21] 	3747
scalar tree_4_3_u00_r4_network.node[21].content_store 	misses[21] 	9164
scalar tree_4_3_u00_r4_network.node[21].content_store 	decision_yes[21] 	102
scalar tree_4_3_u00_r4_network.node[21].content_store 	decision_no[21] 	9062
scalar tree_4_3_u00_r4_network.node[21].content_store 	decision_ratio[21] 	0.01113051069402
scalar tree_4_3_u00_r4_network.node[22].core_layer 	interests[22] 	13234
scalar tree_4_3_u00_r4_network.node[22].core_layer 	data[22] 	9509
scalar tree_4_3_u00_r4_network.node[22].content_store 	p_hit[22] 	0.28139640320387
scalar tree_4_3_u00_r4_network.node[22].content_store 	hits[22] 	3724
scalar tree_4_3_u00_r4_network.node[22].content_store 	misses[22] 	9510
scalar tree_4_3_u00_r4_network.node[22].content_store 	decision_yes[22] 	109
scalar tree_4_3_u00_r4_network.node[22].content_store 	decision_no[22] 	9400
scalar tree_4_3_u00_r4_network.node[22].content_store 	decision_ratio[22] 	0.011462824692397
scalar tree_4_3_u00_r4_network.node[23].core_layer 	interests[23] 	13066
scalar tree_4_3_u00_r4_network.node[23].core_layer 	data[23] 	9426
scalar tree_4_3_u00_r4_network.node[23].content_store 	p_hit[23] 	0.27850910760753
scalar tree_4_3_u00_r4_network.node[23].content_store 	hits[23] 	3639
scalar tree_4_3_u00_r4_network.node[23].content_store 	misses[23] 	9427
scalar tree_4_3_u00_r4_network.node[23].content_store 	decision_yes[23] 	101
scalar tree_4_3_u00_r4_network.node[23].content_store 	decision_no[23] 	9325
scalar tree_4_3_u00_r4_network.node[23].content_store 	decision_ratio[23] 	0.010715043496711
scalar tree_4_3_u00_r4_network.node[24].core_layer 	interests[24] 	12939
scalar tree_4_3_u00_r4_network.node[24].core_layer 	data[24] 	9132
scalar tree_4_3_u00_r4_network.node[24].content_store 	p_hit[24] 	0.29422675631811
scalar tree_4_3_u00_r4_network.node[24].content_store 	hits[24] 	3807
scalar tree_4_3_u00_r4_network.node[24].content_store 	misses[24] 	9132
scalar tree_4_3_u00_r4_network.node[24].content_store 	decision_yes[24] 	83
scalar tree_4_3_u00_r4_network.node[24].content_store 	decision_no[24] 	9049
scalar tree_4_3_u00_r4_network.node[24].content_store 	decision_ratio[24] 	0.0090889180902322
scalar tree_4_3_u00_r4_network.node[25].core_layer 	interests[25] 	12988
scalar tree_4_3_u00_r4_network.node[25].core_layer 	data[25] 	9154
scalar tree_4_3_u00_r4_network.node[25].content_store 	p_hit[25] 	0.2951185709886
scalar tree_4_3_u00_r4_network.node[25].content_store 	hits[25] 	3833
scalar tree_4_3_u00_r4_network.node[25].content_store 	misses[25] 	9155
scalar tree_4_3_u00_r4_network.node[25].content_store 	decision_yes[25] 	99
scalar tree_4_3_u00_r4_network.node[25].content_store 	decision_no[25] 	9055
scalar tree_4_3_u00_r4_network.node[25].content_store 	decision_ratio[25] 	0.010814944286651
scalar tree_4_3_u00_r4_network.node[26].core_layer 	interests[26] 	12660
scalar tree_4_3_u00_r4_network.node[26].core_layer 	data[26] 	9098
scalar tree_4_3_u00_r4_network.node[26].content_store 	p_hit[26] 	0.28135860979463
scalar tree_4_3_u00_r4_network.node[26].content_store 	hits[26] 	3562
scalar tree_4_3_u00_r4_network.node[26].content_store 	misses[26] 	9098
scalar tree_4_3_u00_r4_network.node[26].content_store 	decision_yes[26] 	95
scalar tree_4_3_u00_r4_network.node[26].content_store 	decision_no[26] 	9003
scalar tree_4_3_u00_r4_network.node[26].content_store 	decision_ratio[26] 	0.010441855352825
scalar tree_4_3_u00_r4_network.node[27].core_layer 	interests[27] 	12901
scalar tree_4_3_u00_r4_network.node[27].core_layer 	data[27] 	9316
scalar tree_4_3_u00_r4_network.node[27].content_store 	p_hit[27] 	0.27788543523758
scalar tree_4_3_u00_r4_network.node[27].content_store 	hits[27] 	3585
scalar tree_4_3_u00_r4_network.node[27].content_store 	misses[27] 	9316
scalar tree_4_3_u00_r4_network.node[27].content_store 	decision_yes[27] 	107
scalar tree_4_3_u00_r4_network.node[27].content_store 	decision_no[27] 	9209
scalar tree_4_3_u00_r4_network.node[27].content_store 	decision_ratio[27] 	0.011485616144268
scalar tree_4_3_u00_r4_network.node[28].core_layer 	interests[28] 	12795
scalar tree_4_3_u00_r4_network.node[28].core_layer 	data[28] 	9245
scalar tree_4_3_u00_r4_network.node[28].content_store 	p_hit[28] 	0.27745212973818
scalar tree_4_3_u00_r4_network.node[28].content_store 	hits[28] 	3550
scalar tree_4_3_u00_r4_network.node[28].content_store 	misses[28] 	9245
scalar tree_4_3_u00_r4_network.node[28].content_store 	decision_yes[28] 	92
scalar tree_4_3_u00_r4_network.node[28].content_store 	decision_no[28] 	9153
scalar tree_4_3_u00_r4_network.node[28].content_store 	decision_ratio[28] 	0.0099513250405625
scalar tree_4_3_u00_r4_network.node[29].core_layer 	interests[29] 	12876
scalar tree_4_3_u00_r4_network.node[29].core_layer 	data[29] 	9108
scalar tree_4_3_u00_r4_network.node[29].content_store 	p_hit[29] 	0.29263746505126
scalar tree_4_3_u00_r4_network.node[29].content_store 	hits[29] 	3768
scalar tree_4_3_u00_r4_network.node[29].content_store 	misses[29] 	9108
scalar tree_4_3_u00_r4_network.node[29].content_store 	decision_yes[29] 	90
scalar tree_4_3_u00_r4_network.node[29].content_store 	decision_no[29] 	9018
scalar tree_4_3_u00_r4_network.node[29].content_store 	decision_ratio[29] 	0.0098814229249012
scalar tree_4_3_u00_r4_network.node[30].core_layer 	interests[30] 	12934
scalar tree_4_3_u00_r4_network.node[30].core_layer 	data[30] 	9449
scalar tree_4_3_u00_r4_network.node[30].content_store 	p_hit[30] 	0.26944487397557
scalar tree_4_3_u00_r4_network.node[30].content_store 	hits[30] 	3485
scalar tree_4_3_u00_r4_network.node[30].content_store 	misses[30] 	9449
scalar tree_4_3_u00_r4_network.node[30].content_store 	decision_yes[30] 	87
scalar tree_4_3_u00_r4_network.node[30].content_store 	decision_no[30] 	9362
scalar tree_4_3_u00_r4_network.node[30].content_store 	decision_ratio[30] 	0.0092073235262991
scalar tree_4_3_u00_r4_network.node[31].core_layer 	interests[31] 	12907
scalar tree_4_3_u00_r4_network.node[31].core_layer 	data[31] 	9221
scalar tree_4_3_u00_r4_network.node[31].content_store 	p_hit[31] 	0.2855039900829
scalar tree_4_3_u00_r4_network.node[31].content_store 	hits[31] 	3685
scalar tree_4_3_u00_r4_network.node[31].content_store 	misses[31] 	9222
scalar tree_4_3_u00_r4_network.node[31].content_store 	decision_yes[31] 	85
scalar tree_4_3_u00_r4_network.node[31].content_store 	decision_no[31] 	9136
scalar tree_4_3_u00_r4_network.node[31].content_store 	decision_ratio[31] 	0.0092180891443444
scalar tree_4_3_u00_r4_network.node[32].core_layer 	interests[32] 	12678
scalar tree_4_3_u00_r4_network.node[32].core_layer 	data[32] 	9080
scalar tree_4_3_u00_r4_network.node[32].content_store 	p_hit[32] 	0.28379870642057
scalar tree_4_3_u00_r4_network.node[32].content_store 	hits[32] 	3598
scalar tree_4_3_u00_r4_network.node[32].content_store 	misses[32] 	9080
scalar tree_4_3_u00_r4_network.node[32].content_store 	decision_yes[32] 	91
scalar tree_4_3_u00_r4_network.node[32].content_store 	decision_no[32] 	8989
scalar tree_4_3_u00_r4_network.node[32].content_store 	decision_ratio[32] 	0.010022026431718
scalar tree_4_3_u00_r4_network.node[33].core_layer 	interests[33] 	12945
scalar tree_4_3_u00_r4_network.node[33].core_layer 	data[33] 	9454
scalar tree_4_3_u00_r4_network.node[33].content_store 	p_hit[33] 	0.26967941290073
scalar tree_4_3_u00_r4_network.node[33].content_store 	hits[33] 	3491
scalar tree_4_3_u00_r4_network.node[33].content_store 	misses[33] 	9454
scalar tree_4_3_u00_r4_network.node[33].content_store 	decision_yes[33] 	101
scalar tree_4_3_u00_r4_network.node[33].content_store 	decision_no[33] 	9353
scalar tree_4_3_u00_r4_network.node[33].content_store 	decision_ratio[33] 	0.010683308652422
scalar tree_4_3_u00_r4_network.node[34].core_layer 	interests[34] 	12953
scalar tree_4_3_u00_r4_network.node[34].core_layer 	data[34] 	9136
scalar tree_4_3_u00_r4_network.node[34].content_store 	p_hit[34] 	0.29468076893384
scalar tree_4_3_u00_r4_network.node[34].content_store 	hits[34] 	3817
scalar tree_4_3_u00_r4_network.node[34].content_store 	misses[34] 	9136
scalar tree_4_3_u00_r4_network.node[34].content_store 	decision_yes[34] 	84
scalar tree_4_3_u00_r4_network.node[34].content_store 	decision_no[34] 	9052
scalar tree_4_3_u00_r4_network.node[34].content_store 	decision_ratio[34] 	0.0091943957968476
scalar tree_4_3_u00_r4_network.node[35].core_layer 	interests[35] 	13005
scalar tree_4_3_u00_r4_network.node[35].core_layer 	data[35] 	9594
scalar tree_4_3_u00_r4_network.node[35].content_store 	p_hit[35] 	0.26236063052672
scalar tree_4_3_u00_r4_network.node[35].content_store 	hits[35] 	3412
scalar tree_4_3_u00_r4_network.node[35].content_store 	misses[35] 	9593
scalar tree_4_3_u00_r4_network.node[35].content_store 	decision_yes[35] 	97
scalar tree_4_3_u00_r4_network.node[35].content_store 	decision_no[35] 	9497
scalar tree_4_3_u00_r4_network.node[35].content_store 	decision_ratio[35] 	0.010110485720242
scalar tree_4_3_u00_r4_network.node[36].core_layer 	interests[36] 	13016
scalar tree_4_3_u00_r4_network.node[36].core_layer 	data[36] 	9342
scalar tree_4_3_u00_r4_network.node[36].content_store 	p_hit[36] 	0.28226797787339
scalar tree_4_3_u00_r4_network.node[36].content_store 	hits[36] 	3674
scalar tree_4_3_u00_r4_network.node[36].content_store 	misses[36] 	9342
scalar tree_4_3_u00_r4_network.node[36].content_store 	decision_yes[36] 	109
scalar tree_4_3_u00_r4_network.node[36].content_store 	decision_no[36] 	9233
scalar tree_4_3_u00_r4_network.node[36].content_store 	decision_ratio[36] 	0.011667737101263
scalar tree_4_3_u00_r4_network.node[37].core_layer 	interests[37] 	12891
scalar tree_4_3_u00_r4_network.node[37].core_layer 	data[37] 	9046
scalar tree_4_3_u00_r4_network.node[37].content_store 	p_hit[37] 	0.29827011093011
scalar tree_4_3_u00_r4_network.node[37].content_store 	hits[37] 	3845
scalar tree_4_3_u00_r4_network.node[37].content_store 	misses[37] 	9046
scalar tree_4_3_u00_r4_network.node[37].content_store 	decision_yes[37] 	82
scalar tree_4_3_u00_r4_network.node[37].content_store 	decision_no[37] 	8964
scalar tree_4_3_u00_r4_network.node[37].content_store 	decision_ratio[37] 	0.0090647800132655
scalar tree_4_3_u00_r4_network.node[38].core_layer 	interests[38] 	12917
scalar tree_4_3_u00_r4_network.node[38].core_layer 	data[38] 	9292
scalar tree_4_3_u00_r4_network.node[38].content_store 	p_hit[38] 	0.28063791902144
scalar tree_4_3_u00_r4_network.node[38].content_store 	hits[38] 	3625
scalar tree_4_3_u00_r4_network.node[38].content_store 	misses[38] 	9292
scalar tree_4_3_u00_r4_network.node[38].content_store 	decision_yes[38] 	90
scalar tree_4_3_u00_r4_network.node[38].content_store 	decision_no[38] 	9202
scalar tree_4_3_u00_r4_network.node[38].content_store 	decision_ratio[38] 	0.009685751183814
scalar tree_4_3_u00_r4_network.node[39].core_layer 	interests[39] 	12878
scalar tree_4_3_u00_r4_network.node[39].core_layer 	data[39] 	9206
scalar tree_4_3_u00_r4_network.node[39].content_store 	p_hit[39] 	0.28513744370244
scalar tree_4_3_u00_r4_network.node[39].content_store 	hits[39] 	3672
scalar tree_4_3_u00_r4_network.node[39].content_store 	misses[39] 	9206
scalar tree_4_3_u00_r4_network.node[39].content_store 	decision_yes[39] 	86
scalar tree_4_3_u00_r4_network.node[39].content_store 	decision_no[39] 	9120
scalar tree_4_3_u00_r4_network.node[39].content_store 	decision_ratio[39] 	0.0093417336519661
scalar tree_4_3_u00_r4_network.client[13] 	hdistance[13] 	2.7817384831693
scalar tree_4_3_u00_r4_network.client[13] 	downloads[13] 	12091
scalar tree_4_3_u00_r4_network.client[13] 	avg_time[13] 	0.004367873925
scalar tree_4_3_u00_r4_network.client[14] 	hdistance[14] 	2.7725719049604
scalar tree_4_3_u00_r4_network.client[14] 	downloads[14] 	11995
scalar tree_4_3_u00_r4_network.client[14] 	avg_time[14] 	0.004343306717
scalar tree_4_3_u00_r4_network.client[15] 	hdistance[15] 	2.7586264238796
scalar tree_4_3_u00_r4_network.client[15] 	downloads[15] 	12027
scalar tree_4_3_u00_r4_network.client[15] 	avg_time[15] 	0.00433076218
scalar tree_4_3_u00_r4_network.client[16] 	hdistance[16] 	2.7355102722566
scalar tree_4_3_u00_r4_network.client[16] 	downloads[16] 	11974
scalar tree_4_3_u00_r4_network.client[16] 	avg_time[16] 	0.004287693301
scalar tree_4_3_u00_r4_network.client[17] 	hdistance[17] 	2.7737890336858
scalar tree_4_3_u00_r4_network.client[17] 	downloads[17] 	12201
scalar tree_4_3_u00_r4_network.client[17] 	avg_time[17] 	0.004357239499
scalar tree_4_3_u00_r4_network.client[18] 	hdistance[18] 	2.7938491900337
scalar tree_4_3_u00_r4_network.client[18] 	downloads[18] 	12161
scalar tree_4_3_u00_r4_network.client[18] 	avg_time[18] 	0.004383682521
scalar tree_4_3_u00_r4_network.client[19] 	hdistance[19] 	2.7874575990734
scalar tree_4_3_u00_r4_network.client[19] 	downloads[19] 	12087
scalar tree_4_3_u00_r4_network.client[19] 	avg_time[19] 	0.004371899268
scalar tree_4_3_u00_r4_network.client[20] 	hdistance[20] 	2.7762472702839
scalar tree_4_3_u00_r4_network.client[20] 	downloads[20] 	11906
scalar tree_4_3_u00_r4_network.client[20] 	avg_time[20] 	0.004359479637
scalar tree_4_3_u00_r4_network.client[21] 	hdistance[21] 	2.7518928363425
scalar tree_4_3_u00_r4_network.client[21] 	downloads[21] 	12019
scalar tree_4_3_u00_r4_network.client[21] 	avg_time[21] 	0.004323151992
scalar tree_4_3_u00_r4_network.client[22] 	hdistance[22] 	2.7868226500934
scalar tree_4_3_u00_r4_network.client[22] 	downloads[22] 	12309
scalar tree_4_3_u00_r4_network.client[22] 	avg_time[22] 	0.004371914732
scalar tree_4_3_u00_r4_network.client[23] 	hdistance[23] 	2.8028470336542
scalar tree_4_3_u00_r4_network.client[23] 	downloads[23] 	12153
scalar tree_4_3_u00_r4_network.client[23] 	avg_time[23] 	0.004391793588
scalar tree_4_3_u00_r4_network.client[24] 	hdistance[24] 	2.7642324138509
scalar tree_4_3_u00_r4_network.client[24] 	downloads[24] 	11927
scalar tree_4_3_u00_r4_network.client[24] 	avg_time[24] 	0.004335873599
scalar tree_4_3_u00_r4_network.client[25] 	hdistance[25] 	2.757570729279
scalar tree_4_3_u00_r4_network.client[25] 	downloads[25] 	12053
scalar tree_4_3_u00_r4_network.client[25] 	avg_time[25] 	0.004325376218
scalar tree_4_3_u00_r4_network.client[26] 	hdistance[26] 	2.7855691056911
scalar tree_4_3_u00_r4_network.client[26] 	downloads[26] 	11808
scalar tree_4_3_u00_r4_network.client[26] 	avg_time[26] 	0.004366358829
scalar tree_4_3_u00_r4_network.client[27] 	hdistance[27] 	2.7966143888474
scalar tree_4_3_u00_r4_network.client[27] 	downloads[27] 	12051
scalar tree_4_3_u00_r4_network.client[27] 	avg_time[27] 	0.004392827465
scalar tree_4_3_u00_r4_network.client[28] 	hdistance[28] 	2.7906821407698
scalar tree_4_3_u00_r4_network.client[28] 	downloads[28] 	11977
scalar tree_4_3_u00_r4_network.client[28] 	avg_time[28] 	0.004380893716
scalar tree_4_3_u00_r4_network.client[29] 	hdistance[29] 	2.7506259389084
scalar tree_4_3_u00_r4_network.client[29] 	downloads[29] 	11982
scalar tree_4_3_u00_r4_network.client[29] 	avg_time[29] 	0.004320310809
scalar tree_4_3_u00_r4_network.client[30] 	hdistance[30] 	2.7900074202325
scalar tree_4_3_u00_r4_network.client[30] 	downloads[30] 	12129
scalar tree_4_3_u00_r4_network.client[30] 	avg_time[30] 	0.004384549335
scalar tree_4_3_u00_r4_network.client[31] 	hdistance[31] 	2.7639118913548
scalar tree_4_3_u00_r4_network.client[31] 	downloads[31] 	12076
scalar tree_4_3_u00_r4_network.client[31] 	avg_time[31] 	0.004335227165
scalar tree_4_3_u00_r4_network.client[32] 	hdistance[32] 	2.7657597321055
scalar tree_4_3_u00_r4_network.client[32] 	downloads[32] 	11945
scalar tree_4_3_u00_r4_network.client[32] 	avg_time[32] 	0.004340892781
scalar tree_4_3_u00_r4_network.client[33] 	hdistance[33] 	2.7973963912005
scalar tree_4_3_u00_r4_network.client[33] 	downloads[33] 	12137
scalar tree_4_3_u00_r4_network.client[33] 	avg_time[33] 	0.004396305777
scalar tree_4_3_u00_r4_network.client[34] 	hdistance[34] 	2.764021603656
scalar tree_4_3_u00_r4_network.client[34] 	downloads[34] 	12035
scalar tree_4_3_u00_r4_network.client[34] 	avg_time[34] 	0.004328808236
scalar tree_4_3_u00_r4_network.client[35] 	hdistance[35] 	2.7996877824336
scalar tree_4_3_u00_r4_network.client[35] 	downloads[35] 	12171
scalar tree_4_3_u00_r4_network.client[35] 	avg_time[35] 	0.004408344659
scalar tree_4_3_u00_r4_network.client[36] 	hdistance[36] 	2.7797217362326
scalar tree_4_3_u00_r4_network.client[36] 	downloads[36] 	12003
scalar tree_4_3_u00_r4_network.client[36] 	avg_time[36] 	0.004370755994
scalar tree_4_3_u00_r4_network.client[37] 	hdistance[37] 	2.7450342179936
scalar tree_4_3_u00_r4_network.client[37] 	downloads[37] 	11982
scalar tree_4_3_u00_r4_network.client[37] 	avg_time[37] 	0.004303452183
scalar tree_4_3_u00_r4_network.client[38] 	hdistance[38] 	2.7846243642125
scalar tree_4_3_u00_r4_network.client[38] 	downloads[38] 	11993
scalar tree_4_3_u00_r4_network.client[38] 	avg_time[38] 	0.004382720277
scalar tree_4_3_u00_r4_network.client[39] 	hdistance[39] 	2.7726366506064
scalar tree_4_3_u00_r4_network.client[39] 	downloads[39] 	12038
scalar tree_4_3_u00_r4_network.client[39] 	avg_time[39] 	0.004351716525
