version 2
run General-9-20160819-00:16:32-14109
attr a 0.9
attr cd fix0.01
attr configname General
attr cr lru
attr datetime 20160819-00:16:32
attr experiment General
attr fsize 1
attr inifile hw5115/scenario_A/NRR-FIX0.01.ini
attr iterationvars "$name=tree_4_3, $un=00, $rep=10, $cd=fix0.01, $cr=lru, $fsize=1, $a=0.9, $sl=nrr, $ttl=1000, $variance=0.05"
attr iterationvars2 "$name=tree_4_3, $un=00, $rep=10, $cd=fix0.01, $cr=lru, $fsize=1, $a=0.9, $sl=nrr, $ttl=1000, $variance=0.05, $repetition=0"
attr measurement "$name=tree_4_3, $un=00, $rep=10, $cd=fix0.01, $cr=lru, $fsize=1, $a=0.9, $sl=nrr, $ttl=1000, $variance=0.05"
attr name tree_4_3
attr network networks.${name}_u${un}_r${rep}_network
attr processid 14109
attr rep 10
attr repetition 0
attr replication #0
attr resultdir results
attr runnumber 9
attr seedset 10
attr sl nrr
attr ttl 1000
attr un 00
attr variance 0.05

scalar . 	a 	0.9
scalar . 	fsize 	1
scalar . 	rep 	10
scalar . 	ttl 	1000
scalar . 	un 	00
scalar . 	variance 	0.05
scalar tree_4_3_u00_r10_network.content_distribution 	repo-0 	0
scalar tree_4_3_u00_r10_network.content_distribution 	client-0 	13
scalar tree_4_3_u00_r10_network.content_distribution 	client-1 	14
scalar tree_4_3_u00_r10_network.content_distribution 	client-2 	15
scalar tree_4_3_u00_r10_network.content_distribution 	client-3 	16
scalar tree_4_3_u00_r10_network.content_distribution 	client-4 	17
scalar tree_4_3_u00_r10_network.content_distribution 	client-5 	18
scalar tree_4_3_u00_r10_network.content_distribution 	client-6 	19
scalar tree_4_3_u00_r10_network.content_distribution 	client-7 	20
scalar tree_4_3_u00_r10_network.content_distribution 	client-8 	21
scalar tree_4_3_u00_r10_network.content_distribution 	client-9 	22
scalar tree_4_3_u00_r10_network.content_distribution 	client-10 	23
scalar tree_4_3_u00_r10_network.content_distribution 	client-11 	24
scalar tree_4_3_u00_r10_network.content_distribution 	client-12 	25
scalar tree_4_3_u00_r10_network.content_distribution 	client-13 	26
scalar tree_4_3_u00_r10_network.content_distribution 	client-14 	27
scalar tree_4_3_u00_r10_network.content_distribution 	client-15 	28
scalar tree_4_3_u00_r10_network.content_distribution 	client-16 	29
scalar tree_4_3_u00_r10_network.content_distribution 	client-17 	30
scalar tree_4_3_u00_r10_network.content_distribution 	client-18 	31
scalar tree_4_3_u00_r10_network.content_distribution 	client-19 	32
scalar tree_4_3_u00_r10_network.content_distribution 	client-20 	33
scalar tree_4_3_u00_r10_network.content_distribution 	client-21 	34
scalar tree_4_3_u00_r10_network.content_distribution 	client-22 	35
scalar tree_4_3_u00_r10_network.content_distribution 	client-23 	36
scalar tree_4_3_u00_r10_network.content_distribution 	client-24 	37
scalar tree_4_3_u00_r10_network.content_distribution 	client-25 	38
scalar tree_4_3_u00_r10_network.content_distribution 	client-26 	39
scalar tree_4_3_u00_r10_network.content_distribution 	repo-0_card 	100000
scalar tree_4_3_u00_r10_network.content_distribution 	repo-0_price 	0
scalar tree_4_3_u00_r10_network.statistics 	stabilization_time 	1831.5
scalar tree_4_3_u00_r10_network.statistics 	p_hit 	0.2125436420817
scalar tree_4_3_u00_r10_network.statistics 	interests 	25783.775
scalar tree_4_3_u00_r10_network.statistics 	data 	17688.5
scalar tree_4_3_u00_r10_network.statistics 	hdistance 	2.7832099066688
scalar tree_4_3_u00_r10_network.statistics 	avg_time 	0.004370247814
scalar tree_4_3_u00_r10_network.statistics 	downloads 	323807
scalar tree_4_3_u00_r10_network.statistics 	total_cost 	0
scalar tree_4_3_u00_r10_network.statistics 	total_replicas 	100000
scalar tree_4_3_u00_r10_network.statistics 	inner_hit 	0.40196475060762
scalar tree_4_3_u00_r10_network.node[0].core_layer 	interests[0] 	195714
scalar tree_4_3_u00_r10_network.node[0].core_layer 	repo_load[0] 	193648
scalar tree_4_3_u00_r10_network.node[0].core_layer 	data[0] 	0
scalar tree_4_3_u00_r10_network.node[0].core_layer 	repo_int[0] 	193648
scalar tree_4_3_u00_r10_network.node[0].content_store 	p_hit[0] 	0.010556219790102
scalar tree_4_3_u00_r10_network.node[0].content_store 	hits[0] 	2066
scalar tree_4_3_u00_r10_network.node[0].content_store 	misses[0] 	193648
scalar tree_4_3_u00_r10_network.node[0].content_store 	decision_yes[0] 	1942
scalar tree_4_3_u00_r10_network.node[0].content_store 	decision_no[0] 	191706
scalar tree_4_3_u00_r10_network.node[0].content_store 	decision_ratio[0] 	0.010028505329257
scalar tree_4_3_u00_r10_network.node[1].core_layer 	interests[1] 	73462
scalar tree_4_3_u00_r10_network.node[1].core_layer 	data[1] 	71413
scalar tree_4_3_u00_r10_network.node[1].content_store 	p_hit[1] 	0.027891971359342
scalar tree_4_3_u00_r10_network.node[1].content_store 	hits[1] 	2049
scalar tree_4_3_u00_r10_network.node[1].content_store 	misses[1] 	71413
scalar tree_4_3_u00_r10_network.node[1].content_store 	decision_yes[1] 	716
scalar tree_4_3_u00_r10_network.node[1].content_store 	decision_no[1] 	70697
scalar tree_4_3_u00_r10_network.node[1].content_store 	decision_ratio[1] 	0.010026185708484
scalar tree_4_3_u00_r10_network.node[2].core_layer 	interests[2] 	72851
scalar tree_4_3_u00_r10_network.node[2].core_layer 	data[2] 	71038
scalar tree_4_3_u00_r10_network.node[2].content_store 	p_hit[2] 	0.024858958696518
scalar tree_4_3_u00_r10_network.node[2].content_store 	hits[2] 	1811
scalar tree_4_3_u00_r10_network.node[2].content_store 	misses[2] 	71040
scalar tree_4_3_u00_r10_network.node[2].content_store 	decision_yes[2] 	730
scalar tree_4_3_u00_r10_network.node[2].content_store 	decision_no[2] 	70308
scalar tree_4_3_u00_r10_network.node[2].content_store 	decision_ratio[2] 	0.010276190208058
scalar tree_4_3_u00_r10_network.node[3].core_layer 	interests[3] 	72697
scalar tree_4_3_u00_r10_network.node[3].core_layer 	data[3] 	70850
scalar tree_4_3_u00_r10_network.node[3].content_store 	p_hit[3] 	0.025393069865331
scalar tree_4_3_u00_r10_network.node[3].content_store 	hits[3] 	1846
scalar tree_4_3_u00_r10_network.node[3].content_store 	misses[3] 	70851
scalar tree_4_3_u00_r10_network.node[3].content_store 	decision_yes[3] 	723
scalar tree_4_3_u00_r10_network.node[3].content_store 	decision_no[3] 	70127
scalar tree_4_3_u00_r10_network.node[3].content_store 	decision_ratio[3] 	0.010204657727594
scalar tree_4_3_u00_r10_network.node[4].core_layer 	interests[4] 	29965
scalar tree_4_3_u00_r10_network.node[4].core_layer 	data[4] 	27420
scalar tree_4_3_u00_r10_network.node[4].content_store 	p_hit[4] 	0.084932421158018
scalar tree_4_3_u00_r10_network.node[4].content_store 	hits[4] 	2545
scalar tree_4_3_u00_r10_network.node[4].content_store 	misses[4] 	27420
scalar tree_4_3_u00_r10_network.node[4].content_store 	decision_yes[4] 	285
scalar tree_4_3_u00_r10_network.node[4].content_store 	decision_no[4] 	27135
scalar tree_4_3_u00_r10_network.node[4].content_store 	decision_ratio[4] 	0.010393873085339
scalar tree_4_3_u00_r10_network.node[5].core_layer 	interests[5] 	30133
scalar tree_4_3_u00_r10_network.node[5].core_layer 	data[5] 	27224
scalar tree_4_3_u00_r10_network.node[5].content_store 	p_hit[5] 	0.096538678525205
scalar tree_4_3_u00_r10_network.node[5].content_store 	hits[5] 	2909
scalar tree_4_3_u00_r10_network.node[5].content_store 	misses[5] 	27224
scalar tree_4_3_u00_r10_network.node[5].content_store 	decision_yes[5] 	269
scalar tree_4_3_u00_r10_network.node[5].content_store 	decision_no[5] 	26955
scalar tree_4_3_u00_r10_network.node[5].content_store 	decision_ratio[5] 	0.0098809873640905
scalar tree_4_3_u00_r10_network.node[6].core_layer 	interests[6] 	29575
scalar tree_4_3_u00_r10_network.node[6].core_layer 	data[6] 	26914
scalar tree_4_3_u00_r10_network.node[6].content_store 	p_hit[6] 	0.089940828402367
scalar tree_4_3_u00_r10_network.node[6].content_store 	hits[6] 	2660
scalar tree_4_3_u00_r10_network.node[6].content_store 	misses[6] 	26915
scalar tree_4_3_u00_r10_network.node[6].content_store 	decision_yes[6] 	270
scalar tree_4_3_u00_r10_network.node[6].content_store 	decision_no[6] 	26644
scalar tree_4_3_u00_r10_network.node[6].content_store 	decision_ratio[6] 	0.010031953630081
scalar tree_4_3_u00_r10_network.node[7].core_layer 	interests[7] 	29913
scalar tree_4_3_u00_r10_network.node[7].core_layer 	data[7] 	27066
scalar tree_4_3_u00_r10_network.node[7].content_store 	p_hit[7] 	0.095176010430248
scalar tree_4_3_u00_r10_network.node[7].content_store 	hits[7] 	2847
scalar tree_4_3_u00_r10_network.node[7].content_store 	misses[7] 	27066
scalar tree_4_3_u00_r10_network.node[7].content_store 	decision_yes[7] 	264
scalar tree_4_3_u00_r10_network.node[7].content_store 	decision_no[7] 	26802
scalar tree_4_3_u00_r10_network.node[7].content_store 	decision_ratio[7] 	0.0097539348259809
scalar tree_4_3_u00_r10_network.node[8].core_layer 	interests[8] 	29608
scalar tree_4_3_u00_r10_network.node[8].core_layer 	data[8] 	26942
scalar tree_4_3_u00_r10_network.node[8].content_store 	p_hit[8] 	0.09000945690354
scalar tree_4_3_u00_r10_network.node[8].content_store 	hits[8] 	2665
scalar tree_4_3_u00_r10_network.node[8].content_store 	misses[8] 	26943
scalar tree_4_3_u00_r10_network.node[8].content_store 	decision_yes[8] 	280
scalar tree_4_3_u00_r10_network.node[8].content_store 	decision_no[8] 	26662
scalar tree_4_3_u00_r10_network.node[8].content_store 	decision_ratio[8] 	0.010392695419791
scalar tree_4_3_u00_r10_network.node[9].core_layer 	interests[9] 	29552
scalar tree_4_3_u00_r10_network.node[9].core_layer 	data[9] 	27148
scalar tree_4_3_u00_r10_network.node[9].content_store 	p_hit[9] 	0.081348132106118
scalar tree_4_3_u00_r10_network.node[9].content_store 	hits[9] 	2404
scalar tree_4_3_u00_r10_network.node[9].content_store 	misses[9] 	27148
scalar tree_4_3_u00_r10_network.node[9].content_store 	decision_yes[9] 	274
scalar tree_4_3_u00_r10_network.node[9].content_store 	decision_no[9] 	26874
scalar tree_4_3_u00_r10_network.node[9].content_store 	decision_ratio[9] 	0.01009282451746
scalar tree_4_3_u00_r10_network.node[10].core_layer 	interests[10] 	29427
scalar tree_4_3_u00_r10_network.node[10].core_layer 	data[10] 	26876
scalar tree_4_3_u00_r10_network.node[10].content_store 	p_hit[10] 	0.086689095048765
scalar tree_4_3_u00_r10_network.node[10].content_store 	hits[10] 	2551
scalar tree_4_3_u00_r10_network.node[10].content_store 	misses[10] 	26876
scalar tree_4_3_u00_r10_network.node[10].content_store 	decision_yes[10] 	261
scalar tree_4_3_u00_r10_network.node[10].content_store 	decision_no[10] 	26615
scalar tree_4_3_u00_r10_network.node[10].content_store 	decision_ratio[10] 	0.0097112665575234
scalar tree_4_3_u00_r10_network.node[11].core_layer 	interests[11] 	29953
scalar tree_4_3_u00_r10_network.node[11].core_layer 	data[11] 	27024
scalar tree_4_3_u00_r10_network.node[11].content_store 	p_hit[11] 	0.097753146596334
scalar tree_4_3_u00_r10_network.node[11].content_store 	hits[11] 	2928
scalar tree_4_3_u00_r10_network.node[11].content_store 	misses[11] 	27025
scalar tree_4_3_u00_r10_network.node[11].content_store 	decision_yes[11] 	275
scalar tree_4_3_u00_r10_network.node[11].content_store 	decision_no[11] 	26749
scalar tree_4_3_u00_r10_network.node[11].content_store 	decision_ratio[11] 	0.010176139727649
scalar tree_4_3_u00_r10_network.node[12].core_layer 	interests[12] 	29921
scalar tree_4_3_u00_r10_network.node[12].core_layer 	data[12] 	27165
scalar tree_4_3_u00_r10_network.node[12].content_store 	p_hit[12] 	0.092075799605628
scalar tree_4_3_u00_r10_network.node[12].content_store 	hits[12] 	2755
scalar tree_4_3_u00_r10_network.node[12].content_store 	misses[12] 	27166
scalar tree_4_3_u00_r10_network.node[12].content_store 	decision_yes[12] 	251
scalar tree_4_3_u00_r10_network.node[12].content_store 	decision_no[12] 	26914
scalar tree_4_3_u00_r10_network.node[12].content_store 	decision_ratio[12] 	0.0092398306644579
scalar tree_4_3_u00_r10_network.node[13].core_layer 	interests[13] 	12981
scalar tree_4_3_u00_r10_network.node[13].core_layer 	data[13] 	9355
scalar tree_4_3_u00_r10_network.node[13].content_store 	p_hit[13] 	0.27933133040598
scalar tree_4_3_u00_r10_network.node[13].content_store 	hits[13] 	3626
scalar tree_4_3_u00_r10_network.node[13].content_store 	misses[13] 	9355
scalar tree_4_3_u00_r10_network.node[13].content_store 	decision_yes[13] 	91
scalar tree_4_3_u00_r10_network.node[13].content_store 	decision_no[13] 	9264
scalar tree_4_3_u00_r10_network.node[13].content_store 	decision_ratio[13] 	0.0097274184927846
scalar tree_4_3_u00_r10_network.node[14].core_layer 	interests[14] 	12912
scalar tree_4_3_u00_r10_network.node[14].core_layer 	data[14] 	9236
scalar tree_4_3_u00_r10_network.node[14].content_store 	p_hit[14] 	0.28461895910781
scalar tree_4_3_u00_r10_network.node[14].content_store 	hits[14] 	3675
scalar tree_4_3_u00_r10_network.node[14].content_store 	misses[14] 	9237
scalar tree_4_3_u00_r10_network.node[14].content_store 	decision_yes[14] 	80
scalar tree_4_3_u00_r10_network.node[14].content_store 	decision_no[14] 	9156
scalar tree_4_3_u00_r10_network.node[14].content_store 	decision_ratio[14] 	0.0086617583369424
scalar tree_4_3_u00_r10_network.node[15].core_layer 	interests[15] 	12983
scalar tree_4_3_u00_r10_network.node[15].core_layer 	data[15] 	9233
scalar tree_4_3_u00_r10_network.node[15].content_store 	p_hit[15] 	0.28883925132866
scalar tree_4_3_u00_r10_network.node[15].content_store 	hits[15] 	3750
scalar tree_4_3_u00_r10_network.node[15].content_store 	misses[15] 	9233
scalar tree_4_3_u00_r10_network.node[15].content_store 	decision_yes[15] 	98
scalar tree_4_3_u00_r10_network.node[15].content_store 	decision_no[15] 	9135
scalar tree_4_3_u00_r10_network.node[15].content_store 	decision_ratio[15] 	0.010614101592115
scalar tree_4_3_u00_r10_network.node[16].core_layer 	interests[16] 	12796
scalar tree_4_3_u00_r10_network.node[16].core_layer 	data[16] 	9146
scalar tree_4_3_u00_r10_network.node[16].content_store 	p_hit[16] 	0.28524538918412
scalar tree_4_3_u00_r10_network.node[16].content_store 	hits[16] 	3650
scalar tree_4_3_u00_r10_network.node[16].content_store 	misses[16] 	9146
scalar tree_4_3_u00_r10_network.node[16].content_store 	decision_yes[16] 	82
scalar tree_4_3_u00_r10_network.node[16].content_store 	decision_no[16] 	9064
scalar tree_4_3_u00_r10_network.node[16].content_store 	decision_ratio[16] 	0.0089656680516073
scalar tree_4_3_u00_r10_network.node[17].core_layer 	interests[17] 	12779
scalar tree_4_3_u00_r10_network.node[17].core_layer 	data[17] 	9365
scalar tree_4_3_u00_r10_network.node[17].content_store 	p_hit[17] 	0.26715705454261
scalar tree_4_3_u00_r10_network.node[17].content_store 	hits[17] 	3414
scalar tree_4_3_u00_r10_network.node[17].content_store 	misses[17] 	9365
scalar tree_4_3_u00_r10_network.node[17].content_store 	decision_yes[17] 	97
scalar tree_4_3_u00_r10_network.node[17].content_store 	decision_no[17] 	9268
scalar tree_4_3_u00_r10_network.node[17].content_store 	decision_ratio[17] 	0.010357714895889
scalar tree_4_3_u00_r10_network.node[18].core_layer 	interests[18] 	13302
scalar tree_4_3_u00_r10_network.node[18].core_layer 	data[18] 	9533
scalar tree_4_3_u00_r10_network.node[18].content_store 	p_hit[18] 	0.28326567433469
scalar tree_4_3_u00_r10_network.node[18].content_store 	hits[18] 	3768
scalar tree_4_3_u00_r10_network.node[18].content_store 	misses[18] 	9534
scalar tree_4_3_u00_r10_network.node[18].content_store 	decision_yes[18] 	126
scalar tree_4_3_u00_r10_network.node[18].content_store 	decision_no[18] 	9407
scalar tree_4_3_u00_r10_network.node[18].content_store 	decision_ratio[18] 	0.013217245358229
scalar tree_4_3_u00_r10_network.node[19].core_layer 	interests[19] 	12786
scalar tree_4_3_u00_r10_network.node[19].core_layer 	data[19] 	9239
scalar tree_4_3_u00_r10_network.node[19].content_store 	p_hit[19] 	0.2774127952448
scalar tree_4_3_u00_r10_network.node[19].content_store 	hits[19] 	3547
scalar tree_4_3_u00_r10_network.node[19].content_store 	misses[19] 	9239
scalar tree_4_3_u00_r10_network.node[19].content_store 	decision_yes[19] 	113
scalar tree_4_3_u00_r10_network.node[19].content_store 	decision_no[19] 	9126
scalar tree_4_3_u00_r10_network.node[19].content_store 	decision_ratio[19] 	0.01223076090486
scalar tree_4_3_u00_r10_network.node[20].core_layer 	interests[20] 	12777
scalar tree_4_3_u00_r10_network.node[20].core_layer 	data[20] 	9209
scalar tree_4_3_u00_r10_network.node[20].content_store 	p_hit[20] 	0.27925178054316
scalar tree_4_3_u00_r10_network.node[20].content_store 	hits[20] 	3568
scalar tree_4_3_u00_r10_network.node[20].content_store 	misses[20] 	9209
scalar tree_4_3_u00_r10_network.node[20].content_store 	decision_yes[20] 	85
scalar tree_4_3_u00_r10_network.node[20].content_store 	decision_no[20] 	9124
scalar tree_4_3_u00_r10_network.node[20].content_store 	decision_ratio[20] 	0.0092301009881638
scalar tree_4_3_u00_r10_network.node[21].core_layer 	interests[21] 	12811
scalar tree_4_3_u00_r10_network.node[21].core_layer 	data[21] 	9289
scalar tree_4_3_u00_r10_network.node[21].content_store 	p_hit[21] 	0.27484193271407
scalar tree_4_3_u00_r10_network.node[21].content_store 	hits[21] 	3521
scalar tree_4_3_u00_r10_network.node[21].content_store 	misses[21] 	9290
scalar tree_4_3_u00_r10_network.node[21].content_store 	decision_yes[21] 	102
scalar tree_4_3_u00_r10_network.node[21].content_store 	decision_no[21] 	9187
scalar tree_4_3_u00_r10_network.node[21].content_store 	decision_ratio[21] 	0.010980729895575
scalar tree_4_3_u00_r10_network.node[22].core_layer 	interests[22] 	12929
scalar tree_4_3_u00_r10_network.node[22].core_layer 	data[22] 	9281
scalar tree_4_3_u00_r10_network.node[22].content_store 	p_hit[22] 	0.28207904710341
scalar tree_4_3_u00_r10_network.node[22].content_store 	hits[22] 	3647
scalar tree_4_3_u00_r10_network.node[22].content_store 	misses[22] 	9282
scalar tree_4_3_u00_r10_network.node[22].content_store 	decision_yes[22] 	97
scalar tree_4_3_u00_r10_network.node[22].content_store 	decision_no[22] 	9184
scalar tree_4_3_u00_r10_network.node[22].content_store 	decision_ratio[22] 	0.010451459971986
scalar tree_4_3_u00_r10_network.node[23].core_layer 	interests[23] 	13033
scalar tree_4_3_u00_r10_network.node[23].core_layer 	data[23] 	9416
scalar tree_4_3_u00_r10_network.node[23].content_store 	p_hit[23] 	0.27752627944449
scalar tree_4_3_u00_r10_network.node[23].content_store 	hits[23] 	3617
scalar tree_4_3_u00_r10_network.node[23].content_store 	misses[23] 	9416
scalar tree_4_3_u00_r10_network.node[23].content_store 	decision_yes[23] 	87
scalar tree_4_3_u00_r10_network.node[23].content_store 	decision_no[23] 	9329
scalar tree_4_3_u00_r10_network.node[23].content_store 	decision_ratio[23] 	0.0092395921835174
scalar tree_4_3_u00_r10_network.node[24].core_layer 	interests[24] 	12807
scalar tree_4_3_u00_r10_network.node[24].core_layer 	data[24] 	9156
scalar tree_4_3_u00_r10_network.node[24].content_store 	p_hit[24] 	0.28507847271024
scalar tree_4_3_u00_r10_network.node[24].content_store 	hits[24] 	3651
scalar tree_4_3_u00_r10_network.node[24].content_store 	misses[24] 	9156
scalar tree_4_3_u00_r10_network.node[24].content_store 	decision_yes[24] 	76
scalar tree_4_3_u00_r10_network.node[24].content_store 	decision_no[24] 	9080
scalar tree_4_3_u00_r10_network.node[24].content_store 	decision_ratio[24] 	0.0083005679335955
scalar tree_4_3_u00_r10_network.node[25].core_layer 	interests[25] 	12954
scalar tree_4_3_u00_r10_network.node[25].core_layer 	data[25] 	9226
scalar tree_4_3_u00_r10_network.node[25].content_store 	p_hit[25] 	0.28771035973444
scalar tree_4_3_u00_r10_network.node[25].content_store 	hits[25] 	3727
scalar tree_4_3_u00_r10_network.node[25].content_store 	misses[25] 	9227
scalar tree_4_3_u00_r10_network.node[25].content_store 	decision_yes[25] 	97
scalar tree_4_3_u00_r10_network.node[25].content_store 	decision_no[25] 	9129
scalar tree_4_3_u00_r10_network.node[25].content_store 	decision_ratio[25] 	0.01051376544548
scalar tree_4_3_u00_r10_network.node[26].core_layer 	interests[26] 	13011
scalar tree_4_3_u00_r10_network.node[26].core_layer 	data[26] 	9285
scalar tree_4_3_u00_r10_network.node[26].content_store 	p_hit[26] 	0.28644992698486
scalar tree_4_3_u00_r10_network.node[26].content_store 	hits[26] 	3727
scalar tree_4_3_u00_r10_network.node[26].content_store 	misses[26] 	9284
scalar tree_4_3_u00_r10_network.node[26].content_store 	decision_yes[26] 	98
scalar tree_4_3_u00_r10_network.node[26].content_store 	decision_no[26] 	9187
scalar tree_4_3_u00_r10_network.node[26].content_store 	decision_ratio[26] 	0.010554658050619
scalar tree_4_3_u00_r10_network.node[27].core_layer 	interests[27] 	12673
scalar tree_4_3_u00_r10_network.node[27].core_layer 	data[27] 	9322
scalar tree_4_3_u00_r10_network.node[27].content_store 	p_hit[27] 	0.26442042136826
scalar tree_4_3_u00_r10_network.node[27].content_store 	hits[27] 	3351
scalar tree_4_3_u00_r10_network.node[27].content_store 	misses[27] 	9322
scalar tree_4_3_u00_r10_network.node[27].content_store 	decision_yes[27] 	100
scalar tree_4_3_u00_r10_network.node[27].content_store 	decision_no[27] 	9222
scalar tree_4_3_u00_r10_network.node[27].content_store 	decision_ratio[27] 	0.010727311735679
scalar tree_4_3_u00_r10_network.node[28].core_layer 	interests[28] 	12986
scalar tree_4_3_u00_r10_network.node[28].core_layer 	data[28] 	9094
scalar tree_4_3_u00_r10_network.node[28].content_store 	p_hit[28] 	0.29970737717542
scalar tree_4_3_u00_r10_network.node[28].content_store 	hits[28] 	3892
scalar tree_4_3_u00_r10_network.node[28].content_store 	misses[28] 	9094
scalar tree_4_3_u00_r10_network.node[28].content_store 	decision_yes[28] 	89
scalar tree_4_3_u00_r10_network.node[28].content_store 	decision_no[28] 	9005
scalar tree_4_3_u00_r10_network.node[28].content_store 	decision_ratio[28] 	0.0097866725313393
scalar tree_4_3_u00_r10_network.node[29].core_layer 	interests[29] 	12647
scalar tree_4_3_u00_r10_network.node[29].core_layer 	data[29] 	9166
scalar tree_4_3_u00_r10_network.node[29].content_store 	p_hit[29] 	0.27524314066577
scalar tree_4_3_u00_r10_network.node[29].content_store 	hits[29] 	3481
scalar tree_4_3_u00_r10_network.node[29].content_store 	misses[29] 	9166
scalar tree_4_3_u00_r10_network.node[29].content_store 	decision_yes[29] 	82
scalar tree_4_3_u00_r10_network.node[29].content_store 	decision_no[29] 	9084
scalar tree_4_3_u00_r10_network.node[29].content_store 	decision_ratio[29] 	0.0089461051712852
scalar tree_4_3_u00_r10_network.node[30].core_layer 	interests[30] 	13186
scalar tree_4_3_u00_r10_network.node[30].core_layer 	data[30] 	9433
scalar tree_4_3_u00_r10_network.node[30].content_store 	p_hit[30] 	0.28462005156985
scalar tree_4_3_u00_r10_network.node[30].content_store 	hits[30] 	3753
scalar tree_4_3_u00_r10_network.node[30].content_store 	misses[30] 	9433
scalar tree_4_3_u00_r10_network.node[30].content_store 	decision_yes[30] 	96
scalar tree_4_3_u00_r10_network.node[30].content_store 	decision_no[30] 	9337
scalar tree_4_3_u00_r10_network.node[30].content_store 	decision_ratio[30] 	0.010177038057882
scalar tree_4_3_u00_r10_network.node[31].core_layer 	interests[31] 	12597
scalar tree_4_3_u00_r10_network.node[31].core_layer 	data[31] 	9003
scalar tree_4_3_u00_r10_network.node[31].content_store 	p_hit[31] 	0.28530602524411
scalar tree_4_3_u00_r10_network.node[31].content_store 	hits[31] 	3594
scalar tree_4_3_u00_r10_network.node[31].content_store 	misses[31] 	9003
scalar tree_4_3_u00_r10_network.node[31].content_store 	decision_yes[31] 	109
scalar tree_4_3_u00_r10_network.node[31].content_store 	decision_no[31] 	8894
scalar tree_4_3_u00_r10_network.node[31].content_store 	decision_ratio[31] 	0.012107075419305
scalar tree_4_3_u00_r10_network.node[32].core_layer 	interests[32] 	13014
scalar tree_4_3_u00_r10_network.node[32].core_layer 	data[32] 	9227
scalar tree_4_3_u00_r10_network.node[32].content_store 	p_hit[32] 	0.29099431381589
scalar tree_4_3_u00_r10_network.node[32].content_store 	hits[32] 	3787
scalar tree_4_3_u00_r10_network.node[32].content_store 	misses[32] 	9227
scalar tree_4_3_u00_r10_network.node[32].content_store 	decision_yes[32] 	79
scalar tree_4_3_u00_r10_network.node[32].content_store 	decision_no[32] 	9148
scalar tree_4_3_u00_r10_network.node[32].content_store 	decision_ratio[32] 	0.0085618294136773
scalar tree_4_3_u00_r10_network.node[33].core_layer 	interests[33] 	13001
scalar tree_4_3_u00_r10_network.node[33].core_layer 	data[33] 	9246
scalar tree_4_3_u00_r10_network.node[33].content_store 	p_hit[33] 	0.28882393662026
scalar tree_4_3_u00_r10_network.node[33].content_store 	hits[33] 	3755
scalar tree_4_3_u00_r10_network.node[33].content_store 	misses[33] 	9246
scalar tree_4_3_u00_r10_network.node[33].content_store 	decision_yes[33] 	100
scalar tree_4_3_u00_r10_network.node[33].content_store 	decision_no[33] 	9146
scalar tree_4_3_u00_r10_network.node[33].content_store 	decision_ratio[33] 	0.010815487778499
scalar tree_4_3_u00_r10_network.node[34].core_layer 	interests[34] 	12996
scalar tree_4_3_u00_r10_network.node[34].core_layer 	data[34] 	9304
scalar tree_4_3_u00_r10_network.node[34].content_store 	p_hit[34] 	0.28408741151123
scalar tree_4_3_u00_r10_network.node[34].content_store 	hits[34] 	3692
scalar tree_4_3_u00_r10_network.node[34].content_store 	misses[34] 	9304
scalar tree_4_3_u00_r10_network.node[34].content_store 	decision_yes[34] 	85
scalar tree_4_3_u00_r10_network.node[34].content_store 	decision_no[34] 	9219
scalar tree_4_3_u00_r10_network.node[34].content_store 	decision_ratio[34] 	0.0091358555460017
scalar tree_4_3_u00_r10_network.node[35].core_layer 	interests[35] 	13132
scalar tree_4_3_u00_r10_network.node[35].core_layer 	data[35] 	9504
scalar tree_4_3_u00_r10_network.node[35].content_store 	p_hit[35] 	0.27627170271094
scalar tree_4_3_u00_r10_network.node[35].content_store 	hits[35] 	3628
scalar tree_4_3_u00_r10_network.node[35].content_store 	misses[35] 	9504
scalar tree_4_3_u00_r10_network.node[35].content_store 	decision_yes[35] 	101
scalar tree_4_3_u00_r10_network.node[35].content_store 	decision_no[35] 	9403
scalar tree_4_3_u00_r10_network.node[35].content_store 	decision_ratio[35] 	0.010627104377104
scalar tree_4_3_u00_r10_network.node[36].core_layer 	interests[36] 	12684
scalar tree_4_3_u00_r10_network.node[36].core_layer 	data[36] 	9243
scalar tree_4_3_u00_r10_network.node[36].content_store 	p_hit[36] 	0.27128666035951
scalar tree_4_3_u00_r10_network.node[36].content_store 	hits[36] 	3441
scalar tree_4_3_u00_r10_network.node[36].content_store 	misses[36] 	9243
scalar tree_4_3_u00_r10_network.node[36].content_store 	decision_yes[36] 	89
scalar tree_4_3_u00_r10_network.node[36].content_store 	decision_no[36] 	9154
scalar tree_4_3_u00_r10_network.node[36].content_store 	decision_ratio[36] 	0.0096289083630856
scalar tree_4_3_u00_r10_network.node[37].core_layer 	interests[37] 	12917
scalar tree_4_3_u00_r10_network.node[37].core_layer 	data[37] 	9286
scalar tree_4_3_u00_r10_network.node[37].content_store 	p_hit[37] 	0.28110242316327
scalar tree_4_3_u00_r10_network.node[37].content_store 	hits[37] 	3631
scalar tree_4_3_u00_r10_network.node[37].content_store 	misses[37] 	9286
scalar tree_4_3_u00_r10_network.node[37].content_store 	decision_yes[37] 	103
scalar tree_4_3_u00_r10_network.node[37].content_store 	decision_no[37] 	9183
scalar tree_4_3_u00_r10_network.node[37].content_store 	decision_ratio[37] 	0.011091966401034
scalar tree_4_3_u00_r10_network.node[38].core_layer 	interests[38] 	13053
scalar tree_4_3_u00_r10_network.node[38].core_layer 	data[38] 	9295
scalar tree_4_3_u00_r10_network.node[38].content_store 	p_hit[38] 	0.2879031640236
scalar tree_4_3_u00_r10_network.node[38].content_store 	hits[38] 	3758
scalar tree_4_3_u00_r10_network.node[38].content_store 	misses[38] 	9295
scalar tree_4_3_u00_r10_network.node[38].content_store 	decision_yes[38] 	95
scalar tree_4_3_u00_r10_network.node[38].content_store 	decision_no[38] 	9200
scalar tree_4_3_u00_r10_network.node[38].content_store 	decision_ratio[38] 	0.010220548682087
scalar tree_4_3_u00_r10_network.node[39].core_layer 	interests[39] 	12833
scalar tree_4_3_u00_r10_network.node[39].core_layer 	data[39] 	9368
scalar tree_4_3_u00_r10_network.node[39].content_store 	p_hit[39] 	0.27000701316917
scalar tree_4_3_u00_r10_network.node[39].content_store 	hits[39] 	3465
scalar tree_4_3_u00_r10_network.node[39].content_store 	misses[39] 	9368
scalar tree_4_3_u00_r10_network.node[39].content_store 	decision_yes[39] 	87
scalar tree_4_3_u00_r10_network.node[39].content_store 	decision_no[39] 	9281
scalar tree_4_3_u00_r10_network.node[39].content_store 	decision_ratio[39] 	0.0092869342442357
scalar tree_4_3_u00_r10_network.client[13] 	hdistance[13] 	2.8029203101798
scalar tree_4_3_u00_r10_network.client[13] 	downloads[13] 	12122
scalar tree_4_3_u00_r10_network.client[13] 	avg_time[13] 	0.004398116094
scalar tree_4_3_u00_r10_network.client[14] 	hdistance[14] 	2.7943386773547
scalar tree_4_3_u00_r10_network.client[14] 	downloads[14] 	11976
scalar tree_4_3_u00_r10_network.client[14] 	avg_time[14] 	0.004388906699
scalar tree_4_3_u00_r10_network.client[15] 	hdistance[15] 	2.7797951195136
scalar tree_4_3_u00_r10_network.client[15] 	downloads[15] 	12007
scalar tree_4_3_u00_r10_network.client[15] 	avg_time[15] 	0.004369115031
scalar tree_4_3_u00_r10_network.client[16] 	hdistance[16] 	2.7681692732291
scalar tree_4_3_u00_r10_network.client[16] 	downloads[16] 	11957
scalar tree_4_3_u00_r10_network.client[16] 	avg_time[16] 	0.004344565029
scalar tree_4_3_u00_r10_network.client[17] 	hdistance[17] 	2.8084677419355
scalar tree_4_3_u00_r10_network.client[17] 	downloads[17] 	11904
scalar tree_4_3_u00_r10_network.client[17] 	avg_time[17] 	0.004417503755
scalar tree_4_3_u00_r10_network.client[18] 	hdistance[18] 	2.7757654511492
scalar tree_4_3_u00_r10_network.client[18] 	downloads[18] 	12313
scalar tree_4_3_u00_r10_network.client[18] 	avg_time[18] 	0.004364027168
scalar tree_4_3_u00_r10_network.client[19] 	hdistance[19] 	2.7706406591559
scalar tree_4_3_u00_r10_network.client[19] 	downloads[19] 	11894
scalar tree_4_3_u00_r10_network.client[19] 	avg_time[19] 	0.004358833412
scalar tree_4_3_u00_r10_network.client[20] 	hdistance[20] 	2.7784033613445
scalar tree_4_3_u00_r10_network.client[20] 	downloads[20] 	11900
scalar tree_4_3_u00_r10_network.client[20] 	avg_time[20] 	0.00435611049
scalar tree_4_3_u00_r10_network.client[21] 	hdistance[21] 	2.814721873693
scalar tree_4_3_u00_r10_network.client[21] 	downloads[21] 	11955
scalar tree_4_3_u00_r10_network.client[21] 	avg_time[21] 	0.004421721589
scalar tree_4_3_u00_r10_network.client[22] 	hdistance[22] 	2.7757509831813
scalar tree_4_3_u00_r10_network.client[22] 	downloads[22] 	11951
scalar tree_4_3_u00_r10_network.client[22] 	avg_time[22] 	0.00435374621
scalar tree_4_3_u00_r10_network.client[23] 	hdistance[23] 	2.8017726971504
scalar tree_4_3_u00_r10_network.client[23] 	downloads[23] 	12072
scalar tree_4_3_u00_r10_network.client[23] 	avg_time[23] 	0.004390653035
scalar tree_4_3_u00_r10_network.client[24] 	hdistance[24] 	2.781052631579
scalar tree_4_3_u00_r10_network.client[24] 	downloads[24] 	11875
scalar tree_4_3_u00_r10_network.client[24] 	avg_time[24] 	0.004353512815
scalar tree_4_3_u00_r10_network.client[25] 	hdistance[25] 	2.7843284830239
scalar tree_4_3_u00_r10_network.client[25] 	downloads[25] 	11958
scalar tree_4_3_u00_r10_network.client[25] 	avg_time[25] 	0.004367951509
scalar tree_4_3_u00_r10_network.client[26] 	hdistance[26] 	2.7676400033088
scalar tree_4_3_u00_r10_network.client[26] 	downloads[26] 	12089
scalar tree_4_3_u00_r10_network.client[26] 	avg_time[26] 	0.004347420282
scalar tree_4_3_u00_r10_network.client[27] 	hdistance[27] 	2.7983625928427
scalar tree_4_3_u00_r10_network.client[27] 	downloads[27] 	11848
scalar tree_4_3_u00_r10_network.client[27] 	avg_time[27] 	0.004402259023
scalar tree_4_3_u00_r10_network.client[28] 	hdistance[28] 	2.7615282170801
scalar tree_4_3_u00_r10_network.client[28] 	downloads[28] 	12014
scalar tree_4_3_u00_r10_network.client[28] 	avg_time[28] 	0.004333607789
scalar tree_4_3_u00_r10_network.client[29] 	hdistance[29] 	2.797873238248
scalar tree_4_3_u00_r10_network.client[29] 	downloads[29] 	11849
scalar tree_4_3_u00_r10_network.client[29] 	avg_time[29] 	0.004392435198
scalar tree_4_3_u00_r10_network.client[30] 	hdistance[30] 	2.7697325505545
scalar tree_4_3_u00_r10_network.client[30] 	downloads[30] 	12264
scalar tree_4_3_u00_r10_network.client[30] 	avg_time[30] 	0.004351185141
scalar tree_4_3_u00_r10_network.client[31] 	hdistance[31] 	2.7921223513329
scalar tree_4_3_u00_r10_network.client[31] 	downloads[31] 	11704
scalar tree_4_3_u00_r10_network.client[31] 	avg_time[31] 	0.004382772204
scalar tree_4_3_u00_r10_network.client[32] 	hdistance[32] 	2.7697407065537
scalar tree_4_3_u00_r10_network.client[32] 	downloads[32] 	11917
scalar tree_4_3_u00_r10_network.client[32] 	avg_time[32] 	0.004351259941
scalar tree_4_3_u00_r10_network.client[33] 	hdistance[33] 	2.7543209876543
scalar tree_4_3_u00_r10_network.client[33] 	downloads[33] 	12150
scalar tree_4_3_u00_r10_network.client[33] 	avg_time[33] 	0.004328062798
scalar tree_4_3_u00_r10_network.client[34] 	hdistance[34] 	2.7611166007905
scalar tree_4_3_u00_r10_network.client[34] 	downloads[34] 	12144
scalar tree_4_3_u00_r10_network.client[34] 	avg_time[34] 	0.004329213033
scalar tree_4_3_u00_r10_network.client[35] 	hdistance[35] 	2.7938093678349
scalar tree_4_3_u00_r10_network.client[35] 	downloads[35] 	12212
scalar tree_4_3_u00_r10_network.client[35] 	avg_time[35] 	0.004381943943
scalar tree_4_3_u00_r10_network.client[36] 	hdistance[36] 	2.7826528883618
scalar tree_4_3_u00_r10_network.client[36] 	downloads[36] 	11806
scalar tree_4_3_u00_r10_network.client[36] 	avg_time[36] 	0.004368453755
scalar tree_4_3_u00_r10_network.client[37] 	hdistance[37] 	2.7784476262246
scalar tree_4_3_u00_r10_network.client[37] 	downloads[37] 	11943
scalar tree_4_3_u00_r10_network.client[37] 	avg_time[37] 	0.004363389806
scalar tree_4_3_u00_r10_network.client[38] 	hdistance[38] 	2.783614139412
scalar tree_4_3_u00_r10_network.client[38] 	downloads[38] 	12108
scalar tree_4_3_u00_r10_network.client[38] 	avg_time[38] 	0.004368597862
scalar tree_4_3_u00_r10_network.client[39] 	hdistance[39] 	2.7995789473684
scalar tree_4_3_u00_r10_network.client[39] 	downloads[39] 	11875
scalar tree_4_3_u00_r10_network.client[39] 	avg_time[39] 	0.004411327393
