version 2
run General-5-20160819-00:08:17-14109
attr a 0.9
attr cd fix0.01
attr configname General
attr cr lru
attr datetime 20160819-00:08:17
attr experiment General
attr fsize 1
attr inifile hw5115/scenario_A/NRR-FIX0.01.ini
attr iterationvars "$name=tree_4_3, $un=00, $rep=6, $cd=fix0.01, $cr=lru, $fsize=1, $a=0.9, $sl=nrr, $ttl=1000, $variance=0.05"
attr iterationvars2 "$name=tree_4_3, $un=00, $rep=6, $cd=fix0.01, $cr=lru, $fsize=1, $a=0.9, $sl=nrr, $ttl=1000, $variance=0.05, $repetition=0"
attr measurement "$name=tree_4_3, $un=00, $rep=6, $cd=fix0.01, $cr=lru, $fsize=1, $a=0.9, $sl=nrr, $ttl=1000, $variance=0.05"
attr name tree_4_3
attr network networks.${name}_u${un}_r${rep}_network
attr processid 14109
attr rep 6
attr repetition 0
attr replication #0
attr resultdir results
attr runnumber 5
attr seedset 6
attr sl nrr
attr ttl 1000
attr un 00
attr variance 0.05

scalar . 	a 	0.9
scalar . 	fsize 	1
scalar . 	rep 	6
scalar . 	ttl 	1000
scalar . 	un 	00
scalar . 	variance 	0.05
scalar tree_4_3_u00_r6_network.content_distribution 	repo-0 	0
scalar tree_4_3_u00_r6_network.content_distribution 	client-0 	13
scalar tree_4_3_u00_r6_network.content_distribution 	client-1 	14
scalar tree_4_3_u00_r6_network.content_distribution 	client-2 	15
scalar tree_4_3_u00_r6_network.content_distribution 	client-3 	16
scalar tree_4_3_u00_r6_network.content_distribution 	client-4 	17
scalar tree_4_3_u00_r6_network.content_distribution 	client-5 	18
scalar tree_4_3_u00_r6_network.content_distribution 	client-6 	19
scalar tree_4_3_u00_r6_network.content_distribution 	client-7 	20
scalar tree_4_3_u00_r6_network.content_distribution 	client-8 	21
scalar tree_4_3_u00_r6_network.content_distribution 	client-9 	22
scalar tree_4_3_u00_r6_network.content_distribution 	client-10 	23
scalar tree_4_3_u00_r6_network.content_distribution 	client-11 	24
scalar tree_4_3_u00_r6_network.content_distribution 	client-12 	25
scalar tree_4_3_u00_r6_network.content_distribution 	client-13 	26
scalar tree_4_3_u00_r6_network.content_distribution 	client-14 	27
scalar tree_4_3_u00_r6_network.content_distribution 	client-15 	28
scalar tree_4_3_u00_r6_network.content_distribution 	client-16 	29
scalar tree_4_3_u00_r6_network.content_distribution 	client-17 	30
scalar tree_4_3_u00_r6_network.content_distribution 	client-18 	31
scalar tree_4_3_u00_r6_network.content_distribution 	client-19 	32
scalar tree_4_3_u00_r6_network.content_distribution 	client-20 	33
scalar tree_4_3_u00_r6_network.content_distribution 	client-21 	34
scalar tree_4_3_u00_r6_network.content_distribution 	client-22 	35
scalar tree_4_3_u00_r6_network.content_distribution 	client-23 	36
scalar tree_4_3_u00_r6_network.content_distribution 	client-24 	37
scalar tree_4_3_u00_r6_network.content_distribution 	client-25 	38
scalar tree_4_3_u00_r6_network.content_distribution 	client-26 	39
scalar tree_4_3_u00_r6_network.content_distribution 	repo-0_card 	100000
scalar tree_4_3_u00_r6_network.content_distribution 	repo-0_price 	0
scalar tree_4_3_u00_r6_network.statistics 	stabilization_time 	2309.7
scalar tree_4_3_u00_r6_network.statistics 	p_hit 	0.21595899090904
scalar tree_4_3_u00_r6_network.statistics 	interests 	25626.2
scalar tree_4_3_u00_r6_network.statistics 	data 	17546.675
scalar tree_4_3_u00_r6_network.statistics 	hdistance 	2.7678022602922
scalar tree_4_3_u00_r6_network.statistics 	avg_time 	0.00434361102
scalar tree_4_3_u00_r6_network.statistics 	downloads 	323181
scalar tree_4_3_u00_r6_network.statistics 	total_cost 	0
scalar tree_4_3_u00_r6_network.statistics 	total_replicas 	100000
scalar tree_4_3_u00_r6_network.statistics 	inner_hit 	0.40401818176192
scalar tree_4_3_u00_r6_network.node[0].core_layer 	interests[0] 	194785
scalar tree_4_3_u00_r6_network.node[0].core_layer 	repo_load[0] 	192610
scalar tree_4_3_u00_r6_network.node[0].core_layer 	data[0] 	0
scalar tree_4_3_u00_r6_network.node[0].core_layer 	repo_int[0] 	192610
scalar tree_4_3_u00_r6_network.node[0].content_store 	p_hit[0] 	0.011166157558334
scalar tree_4_3_u00_r6_network.node[0].content_store 	hits[0] 	2175
scalar tree_4_3_u00_r6_network.node[0].content_store 	misses[0] 	192610
scalar tree_4_3_u00_r6_network.node[0].content_store 	decision_yes[0] 	1892
scalar tree_4_3_u00_r6_network.node[0].content_store 	decision_no[0] 	190718
scalar tree_4_3_u00_r6_network.node[0].content_store 	decision_ratio[0] 	0.0098229583095374
scalar tree_4_3_u00_r6_network.node[1].core_layer 	interests[1] 	72555
scalar tree_4_3_u00_r6_network.node[1].core_layer 	data[1] 	70837
scalar tree_4_3_u00_r6_network.node[1].content_store 	p_hit[1] 	0.023692371304528
scalar tree_4_3_u00_r6_network.node[1].content_store 	hits[1] 	1719
scalar tree_4_3_u00_r6_network.node[1].content_store 	misses[1] 	70836
scalar tree_4_3_u00_r6_network.node[1].content_store 	decision_yes[1] 	697
scalar tree_4_3_u00_r6_network.node[1].content_store 	decision_no[1] 	70140
scalar tree_4_3_u00_r6_network.node[1].content_store 	decision_ratio[1] 	0.0098394906616599
scalar tree_4_3_u00_r6_network.node[2].core_layer 	interests[2] 	72392
scalar tree_4_3_u00_r6_network.node[2].core_layer 	data[2] 	70573
scalar tree_4_3_u00_r6_network.node[2].content_store 	p_hit[2] 	0.025127085865842
scalar tree_4_3_u00_r6_network.node[2].content_store 	hits[2] 	1819
scalar tree_4_3_u00_r6_network.node[2].content_store 	misses[2] 	70573
scalar tree_4_3_u00_r6_network.node[2].content_store 	decision_yes[2] 	698
scalar tree_4_3_u00_r6_network.node[2].content_store 	decision_no[2] 	69875
scalar tree_4_3_u00_r6_network.node[2].content_store 	decision_ratio[2] 	0.0098904680260156
scalar tree_4_3_u00_r6_network.node[3].core_layer 	interests[3] 	72871
scalar tree_4_3_u00_r6_network.node[3].core_layer 	data[3] 	71111
scalar tree_4_3_u00_r6_network.node[3].content_store 	p_hit[3] 	0.02411110043776
scalar tree_4_3_u00_r6_network.node[3].content_store 	hits[3] 	1757
scalar tree_4_3_u00_r6_network.node[3].content_store 	misses[3] 	71114
scalar tree_4_3_u00_r6_network.node[3].content_store 	decision_yes[3] 	671
scalar tree_4_3_u00_r6_network.node[3].content_store 	decision_no[3] 	70440
scalar tree_4_3_u00_r6_network.node[3].content_store 	decision_ratio[3] 	0.0094359522436754
scalar tree_4_3_u00_r6_network.node[4].core_layer 	interests[4] 	29722
scalar tree_4_3_u00_r6_network.node[4].core_layer 	data[4] 	27085
scalar tree_4_3_u00_r6_network.node[4].content_store 	p_hit[4] 	0.088654868447615
scalar tree_4_3_u00_r6_network.node[4].content_store 	hits[4] 	2635
scalar tree_4_3_u00_r6_network.node[4].content_store 	misses[4] 	27087
scalar tree_4_3_u00_r6_network.node[4].content_store 	decision_yes[4] 	289
scalar tree_4_3_u00_r6_network.node[4].content_store 	decision_no[4] 	26796
scalar tree_4_3_u00_r6_network.node[4].content_store 	decision_ratio[4] 	0.010670112608455
scalar tree_4_3_u00_r6_network.node[5].core_layer 	interests[5] 	29472
scalar tree_4_3_u00_r6_network.node[5].core_layer 	data[5] 	26936
scalar tree_4_3_u00_r6_network.node[5].content_store 	p_hit[5] 	0.086047774158523
scalar tree_4_3_u00_r6_network.node[5].content_store 	hits[5] 	2536
scalar tree_4_3_u00_r6_network.node[5].content_store 	misses[5] 	26936
scalar tree_4_3_u00_r6_network.node[5].content_store 	decision_yes[5] 	289
scalar tree_4_3_u00_r6_network.node[5].content_store 	decision_no[5] 	26647
scalar tree_4_3_u00_r6_network.node[5].content_store 	decision_ratio[5] 	0.010729135729136
scalar tree_4_3_u00_r6_network.node[6].core_layer 	interests[6] 	29135
scalar tree_4_3_u00_r6_network.node[6].core_layer 	data[6] 	26669
scalar tree_4_3_u00_r6_network.node[6].content_store 	p_hit[6] 	0.084674789771752
scalar tree_4_3_u00_r6_network.node[6].content_store 	hits[6] 	2467
scalar tree_4_3_u00_r6_network.node[6].content_store 	misses[6] 	26668
scalar tree_4_3_u00_r6_network.node[6].content_store 	decision_yes[6] 	278
scalar tree_4_3_u00_r6_network.node[6].content_store 	decision_no[6] 	26391
scalar tree_4_3_u00_r6_network.node[6].content_store 	decision_ratio[6] 	0.010424087892309
scalar tree_4_3_u00_r6_network.node[7].core_layer 	interests[7] 	29904
scalar tree_4_3_u00_r6_network.node[7].core_layer 	data[7] 	27122
scalar tree_4_3_u00_r6_network.node[7].content_store 	p_hit[7] 	0.093031032637774
scalar tree_4_3_u00_r6_network.node[7].content_store 	hits[7] 	2782
scalar tree_4_3_u00_r6_network.node[7].content_store 	misses[7] 	27122
scalar tree_4_3_u00_r6_network.node[7].content_store 	decision_yes[7] 	284
scalar tree_4_3_u00_r6_network.node[7].content_store 	decision_no[7] 	26838
scalar tree_4_3_u00_r6_network.node[7].content_store 	decision_ratio[7] 	0.010471204188482
scalar tree_4_3_u00_r6_network.node[8].core_layer 	interests[8] 	29337
scalar tree_4_3_u00_r6_network.node[8].core_layer 	data[8] 	26766
scalar tree_4_3_u00_r6_network.node[8].content_store 	p_hit[8] 	0.087602686027883
scalar tree_4_3_u00_r6_network.node[8].content_store 	hits[8] 	2570
scalar tree_4_3_u00_r6_network.node[8].content_store 	misses[8] 	26767
scalar tree_4_3_u00_r6_network.node[8].content_store 	decision_yes[8] 	248
scalar tree_4_3_u00_r6_network.node[8].content_store 	decision_no[8] 	26518
scalar tree_4_3_u00_r6_network.node[8].content_store 	decision_ratio[8] 	0.0092654860644101
scalar tree_4_3_u00_r6_network.node[9].core_layer 	interests[9] 	29061
scalar tree_4_3_u00_r6_network.node[9].core_layer 	data[9] 	26676
scalar tree_4_3_u00_r6_network.node[9].content_store 	p_hit[9] 	0.082034341557414
scalar tree_4_3_u00_r6_network.node[9].content_store 	hits[9] 	2384
scalar tree_4_3_u00_r6_network.node[9].content_store 	misses[9] 	26677
scalar tree_4_3_u00_r6_network.node[9].content_store 	decision_yes[9] 	263
scalar tree_4_3_u00_r6_network.node[9].content_store 	decision_no[9] 	26413
scalar tree_4_3_u00_r6_network.node[9].content_store 	decision_ratio[9] 	0.0098590493327335
scalar tree_4_3_u00_r6_network.node[10].core_layer 	interests[10] 	29637
scalar tree_4_3_u00_r6_network.node[10].core_layer 	data[10] 	26873
scalar tree_4_3_u00_r6_network.node[10].content_store 	p_hit[10] 	0.093194317913419
scalar tree_4_3_u00_r6_network.node[10].content_store 	hits[10] 	2762
scalar tree_4_3_u00_r6_network.node[10].content_store 	misses[10] 	26875
scalar tree_4_3_u00_r6_network.node[10].content_store 	decision_yes[10] 	275
scalar tree_4_3_u00_r6_network.node[10].content_store 	decision_no[10] 	26598
scalar tree_4_3_u00_r6_network.node[10].content_store 	decision_ratio[10] 	0.010233319688907
scalar tree_4_3_u00_r6_network.node[11].core_layer 	interests[11] 	29387
scalar tree_4_3_u00_r6_network.node[11].core_layer 	data[11] 	26769
scalar tree_4_3_u00_r6_network.node[11].content_store 	p_hit[11] 	0.089087011263484
scalar tree_4_3_u00_r6_network.node[11].content_store 	hits[11] 	2618
scalar tree_4_3_u00_r6_network.node[11].content_store 	misses[11] 	26769
scalar tree_4_3_u00_r6_network.node[11].content_store 	decision_yes[11] 	262
scalar tree_4_3_u00_r6_network.node[11].content_store 	decision_no[11] 	26507
scalar tree_4_3_u00_r6_network.node[11].content_store 	decision_ratio[11] 	0.0097874406963278
scalar tree_4_3_u00_r6_network.node[12].core_layer 	interests[12] 	29463
scalar tree_4_3_u00_r6_network.node[12].core_layer 	data[12] 	27068
scalar tree_4_3_u00_r6_network.node[12].content_store 	p_hit[12] 	0.081288395614839
scalar tree_4_3_u00_r6_network.node[12].content_store 	hits[12] 	2395
scalar tree_4_3_u00_r6_network.node[12].content_store 	misses[12] 	27068
scalar tree_4_3_u00_r6_network.node[12].content_store 	decision_yes[12] 	284
scalar tree_4_3_u00_r6_network.node[12].content_store 	decision_no[12] 	26784
scalar tree_4_3_u00_r6_network.node[12].content_store 	decision_ratio[12] 	0.010492093985518
scalar tree_4_3_u00_r6_network.node[13].core_layer 	interests[13] 	12755
scalar tree_4_3_u00_r6_network.node[13].core_layer 	data[13] 	9045
scalar tree_4_3_u00_r6_network.node[13].content_store 	p_hit[13] 	0.29086632693062
scalar tree_4_3_u00_r6_network.node[13].content_store 	hits[13] 	3710
scalar tree_4_3_u00_r6_network.node[13].content_store 	misses[13] 	9045
scalar tree_4_3_u00_r6_network.node[13].content_store 	decision_yes[13] 	104
scalar tree_4_3_u00_r6_network.node[13].content_store 	decision_no[13] 	8941
scalar tree_4_3_u00_r6_network.node[13].content_store 	decision_ratio[13] 	0.011498065229409
scalar tree_4_3_u00_r6_network.node[14].core_layer 	interests[14] 	13096
scalar tree_4_3_u00_r6_network.node[14].core_layer 	data[14] 	9263
scalar tree_4_3_u00_r6_network.node[14].content_store 	p_hit[14] 	0.29268478924863
scalar tree_4_3_u00_r6_network.node[14].content_store 	hits[14] 	3833
scalar tree_4_3_u00_r6_network.node[14].content_store 	misses[14] 	9263
scalar tree_4_3_u00_r6_network.node[14].content_store 	decision_yes[14] 	87
scalar tree_4_3_u00_r6_network.node[14].content_store 	decision_no[14] 	9176
scalar tree_4_3_u00_r6_network.node[14].content_store 	decision_ratio[14] 	0.0093922055489582
scalar tree_4_3_u00_r6_network.node[15].core_layer 	interests[15] 	13051
scalar tree_4_3_u00_r6_network.node[15].core_layer 	data[15] 	9352
scalar tree_4_3_u00_r6_network.node[15].content_store 	p_hit[15] 	0.28342655735193
scalar tree_4_3_u00_r6_network.node[15].content_store 	hits[15] 	3699
scalar tree_4_3_u00_r6_network.node[15].content_store 	misses[15] 	9352
scalar tree_4_3_u00_r6_network.node[15].content_store 	decision_yes[15] 	81
scalar tree_4_3_u00_r6_network.node[15].content_store 	decision_no[15] 	9271
scalar tree_4_3_u00_r6_network.node[15].content_store 	decision_ratio[15] 	0.00866124893071
scalar tree_4_3_u00_r6_network.node[16].core_layer 	interests[16] 	12919
scalar tree_4_3_u00_r6_network.node[16].core_layer 	data[16] 	9220
scalar tree_4_3_u00_r6_network.node[16].content_store 	p_hit[16] 	0.28624506540754
scalar tree_4_3_u00_r6_network.node[16].content_store 	hits[16] 	3698
scalar tree_4_3_u00_r6_network.node[16].content_store 	misses[16] 	9221
scalar tree_4_3_u00_r6_network.node[16].content_store 	decision_yes[16] 	87
scalar tree_4_3_u00_r6_network.node[16].content_store 	decision_no[16] 	9133
scalar tree_4_3_u00_r6_network.node[16].content_store 	decision_ratio[16] 	0.0094360086767896
scalar tree_4_3_u00_r6_network.node[17].core_layer 	interests[17] 	12853
scalar tree_4_3_u00_r6_network.node[17].core_layer 	data[17] 	8979
scalar tree_4_3_u00_r6_network.node[17].content_store 	p_hit[17] 	0.30140823154127
scalar tree_4_3_u00_r6_network.node[17].content_store 	hits[17] 	3874
scalar tree_4_3_u00_r6_network.node[17].content_store 	misses[17] 	8979
scalar tree_4_3_u00_r6_network.node[17].content_store 	decision_yes[17] 	89
scalar tree_4_3_u00_r6_network.node[17].content_store 	decision_no[17] 	8890
scalar tree_4_3_u00_r6_network.node[17].content_store 	decision_ratio[17] 	0.0099120169283885
scalar tree_4_3_u00_r6_network.node[18].core_layer 	interests[18] 	12863
scalar tree_4_3_u00_r6_network.node[18].core_layer 	data[18] 	9312
scalar tree_4_3_u00_r6_network.node[18].content_store 	p_hit[18] 	0.27606312679779
scalar tree_4_3_u00_r6_network.node[18].content_store 	hits[18] 	3551
scalar tree_4_3_u00_r6_network.node[18].content_store 	misses[18] 	9312
scalar tree_4_3_u00_r6_network.node[18].content_store 	decision_yes[18] 	80
scalar tree_4_3_u00_r6_network.node[18].content_store 	decision_no[18] 	9232
scalar tree_4_3_u00_r6_network.node[18].content_store 	decision_ratio[18] 	0.0085910652920962
scalar tree_4_3_u00_r6_network.node[19].core_layer 	interests[19] 	12760
scalar tree_4_3_u00_r6_network.node[19].core_layer 	data[19] 	8938
scalar tree_4_3_u00_r6_network.node[19].content_store 	p_hit[19] 	0.29960815047022
scalar tree_4_3_u00_r6_network.node[19].content_store 	hits[19] 	3823
scalar tree_4_3_u00_r6_network.node[19].content_store 	misses[19] 	8937
scalar tree_4_3_u00_r6_network.node[19].content_store 	decision_yes[19] 	97
scalar tree_4_3_u00_r6_network.node[19].content_store 	decision_no[19] 	8841
scalar tree_4_3_u00_r6_network.node[19].content_store 	decision_ratio[19] 	0.010852539718058
scalar tree_4_3_u00_r6_network.node[20].core_layer 	interests[20] 	12618
scalar tree_4_3_u00_r6_network.node[20].core_layer 	data[20] 	9039
scalar tree_4_3_u00_r6_network.node[20].content_store 	p_hit[20] 	0.28372166745919
scalar tree_4_3_u00_r6_network.node[20].content_store 	hits[20] 	3580
scalar tree_4_3_u00_r6_network.node[20].content_store 	misses[20] 	9038
scalar tree_4_3_u00_r6_network.node[20].content_store 	decision_yes[20] 	89
scalar tree_4_3_u00_r6_network.node[20].content_store 	decision_no[20] 	8950
scalar tree_4_3_u00_r6_network.node[20].content_store 	decision_ratio[20] 	0.0098462219272043
scalar tree_4_3_u00_r6_network.node[21].core_layer 	interests[21] 	12864
scalar tree_4_3_u00_r6_network.node[21].core_layer 	data[21] 	9184
scalar tree_4_3_u00_r6_network.node[21].content_store 	p_hit[21] 	0.28606965174129
scalar tree_4_3_u00_r6_network.node[21].content_store 	hits[21] 	3680
scalar tree_4_3_u00_r6_network.node[21].content_store 	misses[21] 	9184
scalar tree_4_3_u00_r6_network.node[21].content_store 	decision_yes[21] 	89
scalar tree_4_3_u00_r6_network.node[21].content_store 	decision_no[21] 	9095
scalar tree_4_3_u00_r6_network.node[21].content_store 	decision_ratio[21] 	0.0096907665505226
scalar tree_4_3_u00_r6_network.node[22].core_layer 	interests[22] 	12957
scalar tree_4_3_u00_r6_network.node[22].core_layer 	data[22] 	9294
scalar tree_4_3_u00_r6_network.node[22].content_store 	p_hit[22] 	0.28262715134676
scalar tree_4_3_u00_r6_network.node[22].content_store 	hits[22] 	3662
scalar tree_4_3_u00_r6_network.node[22].content_store 	misses[22] 	9295
scalar tree_4_3_u00_r6_network.node[22].content_store 	decision_yes[22] 	89
scalar tree_4_3_u00_r6_network.node[22].content_store 	decision_no[22] 	9205
scalar tree_4_3_u00_r6_network.node[22].content_store 	decision_ratio[22] 	0.0095760705831719
scalar tree_4_3_u00_r6_network.node[23].core_layer 	interests[23] 	12789
scalar tree_4_3_u00_r6_network.node[23].core_layer 	data[23] 	9175
scalar tree_4_3_u00_r6_network.node[23].content_store 	p_hit[23] 	0.28258659785753
scalar tree_4_3_u00_r6_network.node[23].content_store 	hits[23] 	3614
scalar tree_4_3_u00_r6_network.node[23].content_store 	misses[23] 	9175
scalar tree_4_3_u00_r6_network.node[23].content_store 	decision_yes[23] 	86
scalar tree_4_3_u00_r6_network.node[23].content_store 	decision_no[23] 	9089
scalar tree_4_3_u00_r6_network.node[23].content_store 	decision_ratio[23] 	0.0093732970027248
scalar tree_4_3_u00_r6_network.node[24].core_layer 	interests[24] 	13136
scalar tree_4_3_u00_r6_network.node[24].core_layer 	data[24] 	9238
scalar tree_4_3_u00_r6_network.node[24].content_store 	p_hit[24] 	0.29674177831912
scalar tree_4_3_u00_r6_network.node[24].content_store 	hits[24] 	3898
scalar tree_4_3_u00_r6_network.node[24].content_store 	misses[24] 	9238
scalar tree_4_3_u00_r6_network.node[24].content_store 	decision_yes[24] 	93
scalar tree_4_3_u00_r6_network.node[24].content_store 	decision_no[24] 	9145
scalar tree_4_3_u00_r6_network.node[24].content_store 	decision_ratio[24] 	0.01006711409396
scalar tree_4_3_u00_r6_network.node[25].core_layer 	interests[25] 	12897
scalar tree_4_3_u00_r6_network.node[25].core_layer 	data[25] 	9271
scalar tree_4_3_u00_r6_network.node[25].content_store 	p_hit[25] 	0.28115065519113
scalar tree_4_3_u00_r6_network.node[25].content_store 	hits[25] 	3626
scalar tree_4_3_u00_r6_network.node[25].content_store 	misses[25] 	9271
scalar tree_4_3_u00_r6_network.node[25].content_store 	decision_yes[25] 	90
scalar tree_4_3_u00_r6_network.node[25].content_store 	decision_no[25] 	9181
scalar tree_4_3_u00_r6_network.node[25].content_store 	decision_ratio[25] 	0.009707690648258
scalar tree_4_3_u00_r6_network.node[26].core_layer 	interests[26] 	12939
scalar tree_4_3_u00_r6_network.node[26].core_layer 	data[26] 	9178
scalar tree_4_3_u00_r6_network.node[26].content_store 	p_hit[26] 	0.29067161295309
scalar tree_4_3_u00_r6_network.node[26].content_store 	hits[26] 	3761
scalar tree_4_3_u00_r6_network.node[26].content_store 	misses[26] 	9178
scalar tree_4_3_u00_r6_network.node[26].content_store 	decision_yes[26] 	95
scalar tree_4_3_u00_r6_network.node[26].content_store 	decision_no[26] 	9083
scalar tree_4_3_u00_r6_network.node[26].content_store 	decision_ratio[26] 	0.010350838962737
scalar tree_4_3_u00_r6_network.node[27].core_layer 	interests[27] 	12567
scalar tree_4_3_u00_r6_network.node[27].core_layer 	data[27] 	9065
scalar tree_4_3_u00_r6_network.node[27].content_store 	p_hit[27] 	0.27866634837272
scalar tree_4_3_u00_r6_network.node[27].content_store 	hits[27] 	3502
scalar tree_4_3_u00_r6_network.node[27].content_store 	misses[27] 	9065
scalar tree_4_3_u00_r6_network.node[27].content_store 	decision_yes[27] 	94
scalar tree_4_3_u00_r6_network.node[27].content_store 	decision_no[27] 	8971
scalar tree_4_3_u00_r6_network.node[27].content_store 	decision_ratio[27] 	0.010369553226696
scalar tree_4_3_u00_r6_network.node[28].core_layer 	interests[28] 	12866
scalar tree_4_3_u00_r6_network.node[28].core_layer 	data[28] 	9035
scalar tree_4_3_u00_r6_network.node[28].content_store 	p_hit[28] 	0.29776154204881
scalar tree_4_3_u00_r6_network.node[28].content_store 	hits[28] 	3831
scalar tree_4_3_u00_r6_network.node[28].content_store 	misses[28] 	9035
scalar tree_4_3_u00_r6_network.node[28].content_store 	decision_yes[28] 	78
scalar tree_4_3_u00_r6_network.node[28].content_store 	decision_no[28] 	8957
scalar tree_4_3_u00_r6_network.node[28].content_store 	decision_ratio[28] 	0.0086330935251799
scalar tree_4_3_u00_r6_network.node[29].core_layer 	interests[29] 	12834
scalar tree_4_3_u00_r6_network.node[29].core_layer 	data[29] 	9060
scalar tree_4_3_u00_r6_network.node[29].content_store 	p_hit[29] 	0.29398472806607
scalar tree_4_3_u00_r6_network.node[29].content_store 	hits[29] 	3773
scalar tree_4_3_u00_r6_network.node[29].content_store 	misses[29] 	9061
scalar tree_4_3_u00_r6_network.node[29].content_store 	decision_yes[29] 	83
scalar tree_4_3_u00_r6_network.node[29].content_store 	decision_no[29] 	8977
scalar tree_4_3_u00_r6_network.node[29].content_store 	decision_ratio[29] 	0.0091611479028698
scalar tree_4_3_u00_r6_network.node[30].core_layer 	interests[30] 	12842
scalar tree_4_3_u00_r6_network.node[30].core_layer 	data[30] 	9140
scalar tree_4_3_u00_r6_network.node[30].content_store 	p_hit[30] 	0.28827285469553
scalar tree_4_3_u00_r6_network.node[30].content_store 	hits[30] 	3702
scalar tree_4_3_u00_r6_network.node[30].content_store 	misses[30] 	9140
scalar tree_4_3_u00_r6_network.node[30].content_store 	decision_yes[30] 	100
scalar tree_4_3_u00_r6_network.node[30].content_store 	decision_no[30] 	9040
scalar tree_4_3_u00_r6_network.node[30].content_store 	decision_ratio[30] 	0.010940919037199
scalar tree_4_3_u00_r6_network.node[31].core_layer 	interests[31] 	12980
scalar tree_4_3_u00_r6_network.node[31].core_layer 	data[31] 	9243
scalar tree_4_3_u00_r6_network.node[31].content_store 	p_hit[31] 	0.28782742681048
scalar tree_4_3_u00_r6_network.node[31].content_store 	hits[31] 	3736
scalar tree_4_3_u00_r6_network.node[31].content_store 	misses[31] 	9244
scalar tree_4_3_u00_r6_network.node[31].content_store 	decision_yes[31] 	81
scalar tree_4_3_u00_r6_network.node[31].content_store 	decision_no[31] 	9162
scalar tree_4_3_u00_r6_network.node[31].content_store 	decision_ratio[31] 	0.008763388510224
scalar tree_4_3_u00_r6_network.node[32].core_layer 	interests[32] 	12860
scalar tree_4_3_u00_r6_network.node[32].core_layer 	data[32] 	9239
scalar tree_4_3_u00_r6_network.node[32].content_store 	p_hit[32] 	0.28157076205288
scalar tree_4_3_u00_r6_network.node[32].content_store 	hits[32] 	3621
scalar tree_4_3_u00_r6_network.node[32].content_store 	misses[32] 	9239
scalar tree_4_3_u00_r6_network.node[32].content_store 	decision_yes[32] 	86
scalar tree_4_3_u00_r6_network.node[32].content_store 	decision_no[32] 	9153
scalar tree_4_3_u00_r6_network.node[32].content_store 	decision_ratio[32] 	0.0093083667063535
scalar tree_4_3_u00_r6_network.node[33].core_layer 	interests[33] 	12865
scalar tree_4_3_u00_r6_network.node[33].core_layer 	data[33] 	9219
scalar tree_4_3_u00_r6_network.node[33].content_store 	p_hit[33] 	0.28340458608628
scalar tree_4_3_u00_r6_network.node[33].content_store 	hits[33] 	3646
scalar tree_4_3_u00_r6_network.node[33].content_store 	misses[33] 	9219
scalar tree_4_3_u00_r6_network.node[33].content_store 	decision_yes[33] 	81
scalar tree_4_3_u00_r6_network.node[33].content_store 	decision_no[33] 	9138
scalar tree_4_3_u00_r6_network.node[33].content_store 	decision_ratio[33] 	0.0087862024080703
scalar tree_4_3_u00_r6_network.node[34].core_layer 	interests[34] 	12987
scalar tree_4_3_u00_r6_network.node[34].core_layer 	data[34] 	9049
scalar tree_4_3_u00_r6_network.node[34].content_store 	p_hit[34] 	0.3032263032263
scalar tree_4_3_u00_r6_network.node[34].content_store 	hits[34] 	3938
scalar tree_4_3_u00_r6_network.node[34].content_store 	misses[34] 	9049
scalar tree_4_3_u00_r6_network.node[34].content_store 	decision_yes[34] 	90
scalar tree_4_3_u00_r6_network.node[34].content_store 	decision_no[34] 	8959
scalar tree_4_3_u00_r6_network.node[34].content_store 	decision_ratio[34] 	0.0099458503702067
scalar tree_4_3_u00_r6_network.node[35].core_layer 	interests[35] 	12690
scalar tree_4_3_u00_r6_network.node[35].core_layer 	data[35] 	9125
scalar tree_4_3_u00_r6_network.node[35].content_store 	p_hit[35] 	0.28100866824271
scalar tree_4_3_u00_r6_network.node[35].content_store 	hits[35] 	3566
scalar tree_4_3_u00_r6_network.node[35].content_store 	misses[35] 	9124
scalar tree_4_3_u00_r6_network.node[35].content_store 	decision_yes[35] 	84
scalar tree_4_3_u00_r6_network.node[35].content_store 	decision_no[35] 	9041
scalar tree_4_3_u00_r6_network.node[35].content_store 	decision_ratio[35] 	0.0092054794520548
scalar tree_4_3_u00_r6_network.node[36].core_layer 	interests[36] 	12716
scalar tree_4_3_u00_r6_network.node[36].core_layer 	data[36] 	9238
scalar tree_4_3_u00_r6_network.node[36].content_store 	p_hit[36] 	0.27351368354829
scalar tree_4_3_u00_r6_network.node[36].content_store 	hits[36] 	3478
scalar tree_4_3_u00_r6_network.node[36].content_store 	misses[36] 	9238
scalar tree_4_3_u00_r6_network.node[36].content_store 	decision_yes[36] 	86
scalar tree_4_3_u00_r6_network.node[36].content_store 	decision_no[36] 	9152
scalar tree_4_3_u00_r6_network.node[36].content_store 	decision_ratio[36] 	0.0093093743234466
scalar tree_4_3_u00_r6_network.node[37].core_layer 	interests[37] 	12840
scalar tree_4_3_u00_r6_network.node[37].core_layer 	data[37] 	9087
scalar tree_4_3_u00_r6_network.node[37].content_store 	p_hit[37] 	0.29228971962617
scalar tree_4_3_u00_r6_network.node[37].content_store 	hits[37] 	3753
scalar tree_4_3_u00_r6_network.node[37].content_store 	misses[37] 	9087
scalar tree_4_3_u00_r6_network.node[37].content_store 	decision_yes[37] 	111
scalar tree_4_3_u00_r6_network.node[37].content_store 	decision_no[37] 	8976
scalar tree_4_3_u00_r6_network.node[37].content_store 	decision_ratio[37] 	0.0122152525586
scalar tree_4_3_u00_r6_network.node[38].core_layer 	interests[38] 	12844
scalar tree_4_3_u00_r6_network.node[38].core_layer 	data[38] 	9156
scalar tree_4_3_u00_r6_network.node[38].content_store 	p_hit[38] 	0.28713796325132
scalar tree_4_3_u00_r6_network.node[38].content_store 	hits[38] 	3688
scalar tree_4_3_u00_r6_network.node[38].content_store 	misses[38] 	9156
scalar tree_4_3_u00_r6_network.node[38].content_store 	decision_yes[38] 	95
scalar tree_4_3_u00_r6_network.node[38].content_store 	decision_no[38] 	9061
scalar tree_4_3_u00_r6_network.node[38].content_store 	decision_ratio[38] 	0.010375709916994
scalar tree_4_3_u00_r6_network.node[39].core_layer 	interests[39] 	12939
scalar tree_4_3_u00_r6_network.node[39].core_layer 	data[39] 	9238
scalar tree_4_3_u00_r6_network.node[39].content_store 	p_hit[39] 	0.28611175515882
scalar tree_4_3_u00_r6_network.node[39].content_store 	hits[39] 	3702
scalar tree_4_3_u00_r6_network.node[39].content_store 	misses[39] 	9237
scalar tree_4_3_u00_r6_network.node[39].content_store 	decision_yes[39] 	89
scalar tree_4_3_u00_r6_network.node[39].content_store 	decision_no[39] 	9149
scalar tree_4_3_u00_r6_network.node[39].content_store 	decision_ratio[39] 	0.0096341199393808
scalar tree_4_3_u00_r6_network.client[13] 	hdistance[13] 	2.7757877840669
scalar tree_4_3_u00_r6_network.client[13] 	downloads[13] 	11837
scalar tree_4_3_u00_r6_network.client[13] 	avg_time[13] 	0.004354140795
scalar tree_4_3_u00_r6_network.client[14] 	hdistance[14] 	2.7653792308326
scalar tree_4_3_u00_r6_network.client[14] 	downloads[14] 	12143
scalar tree_4_3_u00_r6_network.client[14] 	avg_time[14] 	0.004337179748
scalar tree_4_3_u00_r6_network.client[15] 	hdistance[15] 	2.7614769636528
scalar tree_4_3_u00_r6_network.client[15] 	downloads[15] 	12133
scalar tree_4_3_u00_r6_network.client[15] 	avg_time[15] 	0.004339063496
scalar tree_4_3_u00_r6_network.client[16] 	hdistance[16] 	2.7606731327199
scalar tree_4_3_u00_r6_network.client[16] 	downloads[16] 	12063
scalar tree_4_3_u00_r6_network.client[16] 	avg_time[16] 	0.004329231406
scalar tree_4_3_u00_r6_network.client[17] 	hdistance[17] 	2.7631268933019
scalar tree_4_3_u00_r6_network.client[17] 	downloads[17] 	11884
scalar tree_4_3_u00_r6_network.client[17] 	avg_time[17] 	0.004323793717
scalar tree_4_3_u00_r6_network.client[18] 	hdistance[18] 	2.773976023976
scalar tree_4_3_u00_r6_network.client[18] 	downloads[18] 	12012
scalar tree_4_3_u00_r6_network.client[18] 	avg_time[18] 	0.004367629392
scalar tree_4_3_u00_r6_network.client[19] 	hdistance[19] 	2.7568045841409
scalar tree_4_3_u00_r6_network.client[19] 	downloads[19] 	11867
scalar tree_4_3_u00_r6_network.client[19] 	avg_time[19] 	0.00431903301
scalar tree_4_3_u00_r6_network.client[20] 	hdistance[20] 	2.7813378781423
scalar tree_4_3_u00_r6_network.client[20] 	downloads[20] 	11735
scalar tree_4_3_u00_r6_network.client[20] 	avg_time[20] 	0.004375795969
scalar tree_4_3_u00_r6_network.client[21] 	hdistance[21] 	2.7742231874373
scalar tree_4_3_u00_r6_network.client[21] 	downloads[21] 	11972
scalar tree_4_3_u00_r6_network.client[21] 	avg_time[21] 	0.004359836634
scalar tree_4_3_u00_r6_network.client[22] 	hdistance[22] 	2.7694474360036
scalar tree_4_3_u00_r6_network.client[22] 	downloads[22] 	12071
scalar tree_4_3_u00_r6_network.client[22] 	avg_time[22] 	0.004345915492
scalar tree_4_3_u00_r6_network.client[23] 	hdistance[23] 	2.7685582177385
scalar tree_4_3_u00_r6_network.client[23] 	downloads[23] 	11895
scalar tree_4_3_u00_r6_network.client[23] 	avg_time[23] 	0.004349723803
scalar tree_4_3_u00_r6_network.client[24] 	hdistance[24] 	2.7953729224087
scalar tree_4_3_u00_r6_network.client[24] 	downloads[24] 	11973
scalar tree_4_3_u00_r6_network.client[24] 	avg_time[24] 	0.004377011942
scalar tree_4_3_u00_r6_network.client[25] 	hdistance[25] 	2.7778420356907
scalar tree_4_3_u00_r6_network.client[25] 	downloads[25] 	12104
scalar tree_4_3_u00_r6_network.client[25] 	avg_time[25] 	0.004359511622
scalar tree_4_3_u00_r6_network.client[26] 	hdistance[26] 	2.7424632505606
scalar tree_4_3_u00_r6_network.client[26] 	downloads[26] 	12041
scalar tree_4_3_u00_r6_network.client[26] 	avg_time[26] 	0.00431043634
scalar tree_4_3_u00_r6_network.client[27] 	hdistance[27] 	2.7773899719077
scalar tree_4_3_u00_r6_network.client[27] 	downloads[27] 	11747
scalar tree_4_3_u00_r6_network.client[27] 	avg_time[27] 	0.004364856165
scalar tree_4_3_u00_r6_network.client[28] 	hdistance[28] 	2.751620233987
scalar tree_4_3_u00_r6_network.client[28] 	downloads[28] 	11881
scalar tree_4_3_u00_r6_network.client[28] 	avg_time[28] 	0.004315458689
scalar tree_4_3_u00_r6_network.client[29] 	hdistance[29] 	2.7471129707113
scalar tree_4_3_u00_r6_network.client[29] 	downloads[29] 	11950
scalar tree_4_3_u00_r6_network.client[29] 	avg_time[29] 	0.00431397192
scalar tree_4_3_u00_r6_network.client[30] 	hdistance[30] 	2.7512300892336
scalar tree_4_3_u00_r6_network.client[30] 	downloads[30] 	11991
scalar tree_4_3_u00_r6_network.client[30] 	avg_time[30] 	0.004321571495
scalar tree_4_3_u00_r6_network.client[31] 	hdistance[31] 	2.7617045829212
scalar tree_4_3_u00_r6_network.client[31] 	downloads[31] 	12132
scalar tree_4_3_u00_r6_network.client[31] 	avg_time[31] 	0.004326635142
scalar tree_4_3_u00_r6_network.client[32] 	hdistance[32] 	2.7722607026621
scalar tree_4_3_u00_r6_network.client[32] 	downloads[32] 	11983
scalar tree_4_3_u00_r6_network.client[32] 	avg_time[32] 	0.004349992849
scalar tree_4_3_u00_r6_network.client[33] 	hdistance[33] 	2.7743148395722
scalar tree_4_3_u00_r6_network.client[33] 	downloads[33] 	11968
scalar tree_4_3_u00_r6_network.client[33] 	avg_time[33] 	0.004353232025
scalar tree_4_3_u00_r6_network.client[34] 	hdistance[34] 	2.7204452936778
scalar tree_4_3_u00_r6_network.client[34] 	downloads[34] 	12037
scalar tree_4_3_u00_r6_network.client[34] 	avg_time[34] 	0.004268156666
scalar tree_4_3_u00_r6_network.client[35] 	hdistance[35] 	2.7909756713528
scalar tree_4_3_u00_r6_network.client[35] 	downloads[35] 	11879
scalar tree_4_3_u00_r6_network.client[35] 	avg_time[35] 	0.004382184062
scalar tree_4_3_u00_r6_network.client[36] 	hdistance[36] 	2.7904451682953
scalar tree_4_3_u00_r6_network.client[36] 	downloads[36] 	11973
scalar tree_4_3_u00_r6_network.client[36] 	avg_time[36] 	0.004370831361
scalar tree_4_3_u00_r6_network.client[37] 	hdistance[37] 	2.7588141696675
scalar tree_4_3_u00_r6_network.client[37] 	downloads[37] 	11941
scalar tree_4_3_u00_r6_network.client[37] 	avg_time[37] 	0.004325262919
scalar tree_4_3_u00_r6_network.client[38] 	hdistance[38] 	2.779280793144
scalar tree_4_3_u00_r6_network.client[38] 	downloads[38] 	11902
scalar tree_4_3_u00_r6_network.client[38] 	avg_time[38] 	0.004363297308
scalar tree_4_3_u00_r6_network.client[39] 	hdistance[39] 	2.7885970000829
scalar tree_4_3_u00_r6_network.client[39] 	downloads[39] 	12067
scalar tree_4_3_u00_r6_network.client[39] 	avg_time[39] 	0.004373743573
