version 2
run General-7-20160820-06:39:24-856
attr a 0.9
attr cd lcd
attr configname General
attr cr lru
attr datetime 20160820-06:39:24
attr experiment General
attr fsize 1
attr inifile hw5115/scenario_A/SPR-LCD.ini
attr iterationvars "$name=tree_4_3, $un=00, $rep=8, $cd=lcd, $cr=lru, $fsize=1, $a=0.9, $sl=spr, $ttl=1000, $variance=0.05"
attr iterationvars2 "$name=tree_4_3, $un=00, $rep=8, $cd=lcd, $cr=lru, $fsize=1, $a=0.9, $sl=spr, $ttl=1000, $variance=0.05, $repetition=0"
attr measurement "$name=tree_4_3, $un=00, $rep=8, $cd=lcd, $cr=lru, $fsize=1, $a=0.9, $sl=spr, $ttl=1000, $variance=0.05"
attr name tree_4_3
attr network networks.${name}_u${un}_r${rep}_network
attr processid 856
attr rep 8
attr repetition 0
attr replication #0
attr resultdir results
attr runnumber 7
attr seedset 8
attr sl spr
attr ttl 1000
attr un 00
attr variance 0.05

scalar . 	a 	0.9
scalar . 	fsize 	1
scalar . 	rep 	8
scalar . 	ttl 	1000
scalar . 	un 	00
scalar . 	variance 	0.05
scalar tree_4_3_u00_r8_network.content_distribution 	repo-0 	0
scalar tree_4_3_u00_r8_network.content_distribution 	client-0 	13
scalar tree_4_3_u00_r8_network.content_distribution 	client-1 	14
scalar tree_4_3_u00_r8_network.content_distribution 	client-2 	15
scalar tree_4_3_u00_r8_network.content_distribution 	client-3 	16
scalar tree_4_3_u00_r8_network.content_distribution 	client-4 	17
scalar tree_4_3_u00_r8_network.content_distribution 	client-5 	18
scalar tree_4_3_u00_r8_network.content_distribution 	client-6 	19
scalar tree_4_3_u00_r8_network.content_distribution 	client-7 	20
scalar tree_4_3_u00_r8_network.content_distribution 	client-8 	21
scalar tree_4_3_u00_r8_network.content_distribution 	client-9 	22
scalar tree_4_3_u00_r8_network.content_distribution 	client-10 	23
scalar tree_4_3_u00_r8_network.content_distribution 	client-11 	24
scalar tree_4_3_u00_r8_network.content_distribution 	client-12 	25
scalar tree_4_3_u00_r8_network.content_distribution 	client-13 	26
scalar tree_4_3_u00_r8_network.content_distribution 	client-14 	27
scalar tree_4_3_u00_r8_network.content_distribution 	client-15 	28
scalar tree_4_3_u00_r8_network.content_distribution 	client-16 	29
scalar tree_4_3_u00_r8_network.content_distribution 	client-17 	30
scalar tree_4_3_u00_r8_network.content_distribution 	client-18 	31
scalar tree_4_3_u00_r8_network.content_distribution 	client-19 	32
scalar tree_4_3_u00_r8_network.content_distribution 	client-20 	33
scalar tree_4_3_u00_r8_network.content_distribution 	client-21 	34
scalar tree_4_3_u00_r8_network.content_distribution 	client-22 	35
scalar tree_4_3_u00_r8_network.content_distribution 	client-23 	36
scalar tree_4_3_u00_r8_network.content_distribution 	client-24 	37
scalar tree_4_3_u00_r8_network.content_distribution 	client-25 	38
scalar tree_4_3_u00_r8_network.content_distribution 	client-26 	39
scalar tree_4_3_u00_r8_network.content_distribution 	repo-0_card 	100000
scalar tree_4_3_u00_r8_network.content_distribution 	repo-0_price 	0
scalar tree_4_3_u00_r8_network.statistics 	stabilization_time 	849.5
scalar tree_4_3_u00_r8_network.statistics 	p_hit 	0.18908350793737
scalar tree_4_3_u00_r8_network.statistics 	interests 	25501.25
scalar tree_4_3_u00_r8_network.statistics 	data 	17379.35
scalar tree_4_3_u00_r8_network.statistics 	hdistance 	2.8302908393538
scalar tree_4_3_u00_r8_network.statistics 	avg_time 	0.004279608821
scalar tree_4_3_u00_r8_network.statistics 	downloads 	324875
scalar tree_4_3_u00_r8_network.statistics 	total_cost 	0
scalar tree_4_3_u00_r8_network.statistics 	total_replicas 	100000
scalar tree_4_3_u00_r8_network.statistics 	inner_hit 	0.3095313582147
scalar tree_4_3_u00_r8_network.node[0].core_layer 	interests[0] 	226596
scalar tree_4_3_u00_r8_network.node[0].core_layer 	repo_load[0] 	224316
scalar tree_4_3_u00_r8_network.node[0].core_layer 	data[0] 	0
scalar tree_4_3_u00_r8_network.node[0].core_layer 	repo_int[0] 	224316
scalar tree_4_3_u00_r8_network.node[0].content_store 	p_hit[0] 	0.010061960493566
scalar tree_4_3_u00_r8_network.node[0].content_store 	hits[0] 	2280
scalar tree_4_3_u00_r8_network.node[0].content_store 	misses[0] 	224316
scalar tree_4_3_u00_r8_network.node[0].content_store 	decision_yes[0] 	224316
scalar tree_4_3_u00_r8_network.node[0].content_store 	decision_no[0] 	0
scalar tree_4_3_u00_r8_network.node[0].content_store 	decision_ratio[0] 	1
scalar tree_4_3_u00_r8_network.node[1].core_layer 	interests[1] 	76987
scalar tree_4_3_u00_r8_network.node[1].core_layer 	data[1] 	75622
scalar tree_4_3_u00_r8_network.node[1].content_store 	p_hit[1] 	0.01771727694286
scalar tree_4_3_u00_r8_network.node[1].content_store 	hits[1] 	1364
scalar tree_4_3_u00_r8_network.node[1].content_store 	misses[1] 	75623
scalar tree_4_3_u00_r8_network.node[1].content_store 	decision_yes[1] 	750
scalar tree_4_3_u00_r8_network.node[1].content_store 	decision_no[1] 	74872
scalar tree_4_3_u00_r8_network.node[1].content_store 	decision_ratio[1] 	0.0099177488032583
scalar tree_4_3_u00_r8_network.node[2].core_layer 	interests[2] 	76984
scalar tree_4_3_u00_r8_network.node[2].core_layer 	data[2] 	75676
scalar tree_4_3_u00_r8_network.node[2].content_store 	p_hit[2] 	0.01696456406526
scalar tree_4_3_u00_r8_network.node[2].content_store 	hits[2] 	1306
scalar tree_4_3_u00_r8_network.node[2].content_store 	misses[2] 	75678
scalar tree_4_3_u00_r8_network.node[2].content_store 	decision_yes[2] 	789
scalar tree_4_3_u00_r8_network.node[2].content_store 	decision_no[2] 	74887
scalar tree_4_3_u00_r8_network.node[2].content_store 	decision_ratio[2] 	0.0104260267456
scalar tree_4_3_u00_r8_network.node[3].core_layer 	interests[3] 	76637
scalar tree_4_3_u00_r8_network.node[3].core_layer 	data[3] 	75299
scalar tree_4_3_u00_r8_network.node[3].content_store 	p_hit[3] 	0.017432832704829
scalar tree_4_3_u00_r8_network.node[3].content_store 	hits[3] 	1336
scalar tree_4_3_u00_r8_network.node[3].content_store 	misses[3] 	75301
scalar tree_4_3_u00_r8_network.node[3].content_store 	decision_yes[3] 	741
scalar tree_4_3_u00_r8_network.node[3].content_store 	decision_no[3] 	74558
scalar tree_4_3_u00_r8_network.node[3].content_store 	decision_ratio[3] 	0.0098407681376911
scalar tree_4_3_u00_r8_network.node[4].core_layer 	interests[4] 	26538
scalar tree_4_3_u00_r8_network.node[4].core_layer 	data[4] 	25702
scalar tree_4_3_u00_r8_network.node[4].content_store 	p_hit[4] 	0.031539678950938
scalar tree_4_3_u00_r8_network.node[4].content_store 	hits[4] 	837
scalar tree_4_3_u00_r8_network.node[4].content_store 	misses[4] 	25701
scalar tree_4_3_u00_r8_network.node[4].content_store 	decision_yes[4] 	463
scalar tree_4_3_u00_r8_network.node[4].content_store 	decision_no[4] 	25239
scalar tree_4_3_u00_r8_network.node[4].content_store 	decision_ratio[4] 	0.018014162321998
scalar tree_4_3_u00_r8_network.node[5].core_layer 	interests[5] 	26548
scalar tree_4_3_u00_r8_network.node[5].core_layer 	data[5] 	25743
scalar tree_4_3_u00_r8_network.node[5].content_store 	p_hit[5] 	0.030322434835016
scalar tree_4_3_u00_r8_network.node[5].content_store 	hits[5] 	805
scalar tree_4_3_u00_r8_network.node[5].content_store 	misses[5] 	25743
scalar tree_4_3_u00_r8_network.node[5].content_store 	decision_yes[5] 	437
scalar tree_4_3_u00_r8_network.node[5].content_store 	decision_no[5] 	25306
scalar tree_4_3_u00_r8_network.node[5].content_store 	decision_ratio[5] 	0.016975488482306
scalar tree_4_3_u00_r8_network.node[6].core_layer 	interests[6] 	26388
scalar tree_4_3_u00_r8_network.node[6].core_layer 	data[6] 	25543
scalar tree_4_3_u00_r8_network.node[6].content_store 	p_hit[6] 	0.03202213127179
scalar tree_4_3_u00_r8_network.node[6].content_store 	hits[6] 	845
scalar tree_4_3_u00_r8_network.node[6].content_store 	misses[6] 	25543
scalar tree_4_3_u00_r8_network.node[6].content_store 	decision_yes[6] 	464
scalar tree_4_3_u00_r8_network.node[6].content_store 	decision_no[6] 	25079
scalar tree_4_3_u00_r8_network.node[6].content_store 	decision_ratio[6] 	0.018165446501977
scalar tree_4_3_u00_r8_network.node[7].core_layer 	interests[7] 	26398
scalar tree_4_3_u00_r8_network.node[7].core_layer 	data[7] 	25596
scalar tree_4_3_u00_r8_network.node[7].content_store 	p_hit[7] 	0.030381089476475
scalar tree_4_3_u00_r8_network.node[7].content_store 	hits[7] 	802
scalar tree_4_3_u00_r8_network.node[7].content_store 	misses[7] 	25596
scalar tree_4_3_u00_r8_network.node[7].content_store 	decision_yes[7] 	420
scalar tree_4_3_u00_r8_network.node[7].content_store 	decision_no[7] 	25176
scalar tree_4_3_u00_r8_network.node[7].content_store 	decision_ratio[7] 	0.016408813877168
scalar tree_4_3_u00_r8_network.node[8].core_layer 	interests[8] 	26374
scalar tree_4_3_u00_r8_network.node[8].core_layer 	data[8] 	25554
scalar tree_4_3_u00_r8_network.node[8].content_store 	p_hit[8] 	0.031053310078107
scalar tree_4_3_u00_r8_network.node[8].content_store 	hits[8] 	819
scalar tree_4_3_u00_r8_network.node[8].content_store 	misses[8] 	25555
scalar tree_4_3_u00_r8_network.node[8].content_store 	decision_yes[8] 	454
scalar tree_4_3_u00_r8_network.node[8].content_store 	decision_no[8] 	25100
scalar tree_4_3_u00_r8_network.node[8].content_store 	decision_ratio[8] 	0.017766298818189
scalar tree_4_3_u00_r8_network.node[9].core_layer 	interests[9] 	26622
scalar tree_4_3_u00_r8_network.node[9].core_layer 	data[9] 	25833
scalar tree_4_3_u00_r8_network.node[9].content_store 	p_hit[9] 	0.02959957929532
scalar tree_4_3_u00_r8_network.node[9].content_store 	hits[9] 	788
scalar tree_4_3_u00_r8_network.node[9].content_store 	misses[9] 	25834
scalar tree_4_3_u00_r8_network.node[9].content_store 	decision_yes[9] 	432
scalar tree_4_3_u00_r8_network.node[9].content_store 	decision_no[9] 	25401
scalar tree_4_3_u00_r8_network.node[9].content_store 	decision_ratio[9] 	0.01672279642318
scalar tree_4_3_u00_r8_network.node[10].core_layer 	interests[10] 	25867
scalar tree_4_3_u00_r8_network.node[10].core_layer 	data[10] 	25053
scalar tree_4_3_u00_r8_network.node[10].content_store 	p_hit[10] 	0.031468666640894
scalar tree_4_3_u00_r8_network.node[10].content_store 	hits[10] 	814
scalar tree_4_3_u00_r8_network.node[10].content_store 	misses[10] 	25053
scalar tree_4_3_u00_r8_network.node[10].content_store 	decision_yes[10] 	428
scalar tree_4_3_u00_r8_network.node[10].content_store 	decision_no[10] 	24625
scalar tree_4_3_u00_r8_network.node[10].content_store 	decision_ratio[10] 	0.017083782381352
scalar tree_4_3_u00_r8_network.node[11].core_layer 	interests[11] 	26477
scalar tree_4_3_u00_r8_network.node[11].core_layer 	data[11] 	25646
scalar tree_4_3_u00_r8_network.node[11].content_store 	p_hit[11] 	0.031423499641198
scalar tree_4_3_u00_r8_network.node[11].content_store 	hits[11] 	832
scalar tree_4_3_u00_r8_network.node[11].content_store 	misses[11] 	25645
scalar tree_4_3_u00_r8_network.node[11].content_store 	decision_yes[11] 	449
scalar tree_4_3_u00_r8_network.node[11].content_store 	decision_no[11] 	25197
scalar tree_4_3_u00_r8_network.node[11].content_store 	decision_ratio[11] 	0.017507603524916
scalar tree_4_3_u00_r8_network.node[12].core_layer 	interests[12] 	26755
scalar tree_4_3_u00_r8_network.node[12].core_layer 	data[12] 	25939
scalar tree_4_3_u00_r8_network.node[12].content_store 	p_hit[12] 	0.030536348346104
scalar tree_4_3_u00_r8_network.node[12].content_store 	hits[12] 	817
scalar tree_4_3_u00_r8_network.node[12].content_store 	misses[12] 	25938
scalar tree_4_3_u00_r8_network.node[12].content_store 	decision_yes[12] 	459
scalar tree_4_3_u00_r8_network.node[12].content_store 	decision_no[12] 	25480
scalar tree_4_3_u00_r8_network.node[12].content_store 	decision_ratio[12] 	0.017695362195921
scalar tree_4_3_u00_r8_network.node[13].core_layer 	interests[13] 	12049
scalar tree_4_3_u00_r8_network.node[13].core_layer 	data[13] 	8902
scalar tree_4_3_u00_r8_network.node[13].content_store 	p_hit[13] 	0.26118350070545
scalar tree_4_3_u00_r8_network.node[13].content_store 	hits[13] 	3147
scalar tree_4_3_u00_r8_network.node[13].content_store 	misses[13] 	8902
scalar tree_4_3_u00_r8_network.node[13].content_store 	decision_yes[13] 	282
scalar tree_4_3_u00_r8_network.node[13].content_store 	decision_no[13] 	8620
scalar tree_4_3_u00_r8_network.node[13].content_store 	decision_ratio[13] 	0.031678274545046
scalar tree_4_3_u00_r8_network.node[14].core_layer 	interests[14] 	12006
scalar tree_4_3_u00_r8_network.node[14].core_layer 	data[14] 	8737
scalar tree_4_3_u00_r8_network.node[14].content_store 	p_hit[14] 	0.27236381809095
scalar tree_4_3_u00_r8_network.node[14].content_store 	hits[14] 	3270
scalar tree_4_3_u00_r8_network.node[14].content_store 	misses[14] 	8736
scalar tree_4_3_u00_r8_network.node[14].content_store 	decision_yes[14] 	281
scalar tree_4_3_u00_r8_network.node[14].content_store 	decision_no[14] 	8456
scalar tree_4_3_u00_r8_network.node[14].content_store 	decision_ratio[14] 	0.032162069360192
scalar tree_4_3_u00_r8_network.node[15].core_layer 	interests[15] 	12149
scalar tree_4_3_u00_r8_network.node[15].core_layer 	data[15] 	8900
scalar tree_4_3_u00_r8_network.node[15].content_store 	p_hit[15] 	0.2674294180591
scalar tree_4_3_u00_r8_network.node[15].content_store 	hits[15] 	3249
scalar tree_4_3_u00_r8_network.node[15].content_store 	misses[15] 	8900
scalar tree_4_3_u00_r8_network.node[15].content_store 	decision_yes[15] 	274
scalar tree_4_3_u00_r8_network.node[15].content_store 	decision_no[15] 	8626
scalar tree_4_3_u00_r8_network.node[15].content_store 	decision_ratio[15] 	0.030786516853933
scalar tree_4_3_u00_r8_network.node[16].core_layer 	interests[16] 	12039
scalar tree_4_3_u00_r8_network.node[16].core_layer 	data[16] 	8760
scalar tree_4_3_u00_r8_network.node[16].content_store 	p_hit[16] 	0.27236481435335
scalar tree_4_3_u00_r8_network.node[16].content_store 	hits[16] 	3279
scalar tree_4_3_u00_r8_network.node[16].content_store 	misses[16] 	8760
scalar tree_4_3_u00_r8_network.node[16].content_store 	decision_yes[16] 	266
scalar tree_4_3_u00_r8_network.node[16].content_store 	decision_no[16] 	8494
scalar tree_4_3_u00_r8_network.node[16].content_store 	decision_ratio[16] 	0.030365296803653
scalar tree_4_3_u00_r8_network.node[17].core_layer 	interests[17] 	12041
scalar tree_4_3_u00_r8_network.node[17].core_layer 	data[17] 	8849
scalar tree_4_3_u00_r8_network.node[17].content_store 	p_hit[17] 	0.26509426127398
scalar tree_4_3_u00_r8_network.node[17].content_store 	hits[17] 	3192
scalar tree_4_3_u00_r8_network.node[17].content_store 	misses[17] 	8849
scalar tree_4_3_u00_r8_network.node[17].content_store 	decision_yes[17] 	261
scalar tree_4_3_u00_r8_network.node[17].content_store 	decision_no[17] 	8588
scalar tree_4_3_u00_r8_network.node[17].content_store 	decision_ratio[17] 	0.029494858176065
scalar tree_4_3_u00_r8_network.node[18].core_layer 	interests[18] 	12163
scalar tree_4_3_u00_r8_network.node[18].core_layer 	data[18] 	8939
scalar tree_4_3_u00_r8_network.node[18].content_store 	p_hit[18] 	0.26506618432952
scalar tree_4_3_u00_r8_network.node[18].content_store 	hits[18] 	3224
scalar tree_4_3_u00_r8_network.node[18].content_store 	misses[18] 	8939
scalar tree_4_3_u00_r8_network.node[18].content_store 	decision_yes[18] 	278
scalar tree_4_3_u00_r8_network.node[18].content_store 	decision_no[18] 	8661
scalar tree_4_3_u00_r8_network.node[18].content_store 	decision_ratio[18] 	0.031099675578924
scalar tree_4_3_u00_r8_network.node[19].core_layer 	interests[19] 	12055
scalar tree_4_3_u00_r8_network.node[19].core_layer 	data[19] 	8860
scalar tree_4_3_u00_r8_network.node[19].content_store 	p_hit[19] 	0.26503525508088
scalar tree_4_3_u00_r8_network.node[19].content_store 	hits[19] 	3195
scalar tree_4_3_u00_r8_network.node[19].content_store 	misses[19] 	8860
scalar tree_4_3_u00_r8_network.node[19].content_store 	decision_yes[19] 	267
scalar tree_4_3_u00_r8_network.node[19].content_store 	decision_no[19] 	8593
scalar tree_4_3_u00_r8_network.node[19].content_store 	decision_ratio[19] 	0.030135440180587
scalar tree_4_3_u00_r8_network.node[20].core_layer 	interests[20] 	11814
scalar tree_4_3_u00_r8_network.node[20].core_layer 	data[20] 	8695
scalar tree_4_3_u00_r8_network.node[20].content_store 	p_hit[20] 	0.26392415777891
scalar tree_4_3_u00_r8_network.node[20].content_store 	hits[20] 	3118
scalar tree_4_3_u00_r8_network.node[20].content_store 	misses[20] 	8696
scalar tree_4_3_u00_r8_network.node[20].content_store 	decision_yes[20] 	299
scalar tree_4_3_u00_r8_network.node[20].content_store 	decision_no[20] 	8396
scalar tree_4_3_u00_r8_network.node[20].content_store 	decision_ratio[20] 	0.03438757906843
scalar tree_4_3_u00_r8_network.node[21].core_layer 	interests[21] 	11978
scalar tree_4_3_u00_r8_network.node[21].core_layer 	data[21] 	8832
scalar tree_4_3_u00_r8_network.node[21].content_store 	p_hit[21] 	0.2626481883453
scalar tree_4_3_u00_r8_network.node[21].content_store 	hits[21] 	3146
scalar tree_4_3_u00_r8_network.node[21].content_store 	misses[21] 	8832
scalar tree_4_3_u00_r8_network.node[21].content_store 	decision_yes[21] 	279
scalar tree_4_3_u00_r8_network.node[21].content_store 	decision_no[21] 	8553
scalar tree_4_3_u00_r8_network.node[21].content_store 	decision_ratio[21] 	0.031589673913043
scalar tree_4_3_u00_r8_network.node[22].core_layer 	interests[22] 	12010
scalar tree_4_3_u00_r8_network.node[22].core_layer 	data[22] 	8888
scalar tree_4_3_u00_r8_network.node[22].content_store 	p_hit[22] 	0.25995004163197
scalar tree_4_3_u00_r8_network.node[22].content_store 	hits[22] 	3122
scalar tree_4_3_u00_r8_network.node[22].content_store 	misses[22] 	8888
scalar tree_4_3_u00_r8_network.node[22].content_store 	decision_yes[22] 	282
scalar tree_4_3_u00_r8_network.node[22].content_store 	decision_no[22] 	8606
scalar tree_4_3_u00_r8_network.node[22].content_store 	decision_ratio[22] 	0.031728172817282
scalar tree_4_3_u00_r8_network.node[23].core_layer 	interests[23] 	11924
scalar tree_4_3_u00_r8_network.node[23].core_layer 	data[23] 	8751
scalar tree_4_3_u00_r8_network.node[23].content_store 	p_hit[23] 	0.26610197920161
scalar tree_4_3_u00_r8_network.node[23].content_store 	hits[23] 	3173
scalar tree_4_3_u00_r8_network.node[23].content_store 	misses[23] 	8751
scalar tree_4_3_u00_r8_network.node[23].content_store 	decision_yes[23] 	251
scalar tree_4_3_u00_r8_network.node[23].content_store 	decision_no[23] 	8500
scalar tree_4_3_u00_r8_network.node[23].content_store 	decision_ratio[23] 	0.028682436292995
scalar tree_4_3_u00_r8_network.node[24].core_layer 	interests[24] 	12036
scalar tree_4_3_u00_r8_network.node[24].core_layer 	data[24] 	8759
scalar tree_4_3_u00_r8_network.node[24].content_store 	p_hit[24] 	0.27226653373214
scalar tree_4_3_u00_r8_network.node[24].content_store 	hits[24] 	3277
scalar tree_4_3_u00_r8_network.node[24].content_store 	misses[24] 	8759
scalar tree_4_3_u00_r8_network.node[24].content_store 	decision_yes[24] 	269
scalar tree_4_3_u00_r8_network.node[24].content_store 	decision_no[24] 	8490
scalar tree_4_3_u00_r8_network.node[24].content_store 	decision_ratio[24] 	0.030711268409636
scalar tree_4_3_u00_r8_network.node[25].core_layer 	interests[25] 	12144
scalar tree_4_3_u00_r8_network.node[25].core_layer 	data[25] 	8838
scalar tree_4_3_u00_r8_network.node[25].content_store 	p_hit[25] 	0.27223320158103
scalar tree_4_3_u00_r8_network.node[25].content_store 	hits[25] 	3306
scalar tree_4_3_u00_r8_network.node[25].content_store 	misses[25] 	8838
scalar tree_4_3_u00_r8_network.node[25].content_store 	decision_yes[25] 	260
scalar tree_4_3_u00_r8_network.node[25].content_store 	decision_no[25] 	8578
scalar tree_4_3_u00_r8_network.node[25].content_store 	decision_ratio[25] 	0.029418420457117
scalar tree_4_3_u00_r8_network.node[26].core_layer 	interests[26] 	12084
scalar tree_4_3_u00_r8_network.node[26].core_layer 	data[26] 	8758
scalar tree_4_3_u00_r8_network.node[26].content_store 	p_hit[26] 	0.2751572327044
scalar tree_4_3_u00_r8_network.node[26].content_store 	hits[26] 	3325
scalar tree_4_3_u00_r8_network.node[26].content_store 	misses[26] 	8759
scalar tree_4_3_u00_r8_network.node[26].content_store 	decision_yes[26] 	275
scalar tree_4_3_u00_r8_network.node[26].content_store 	decision_no[26] 	8483
scalar tree_4_3_u00_r8_network.node[26].content_store 	decision_ratio[26] 	0.031399862982416
scalar tree_4_3_u00_r8_network.node[27].core_layer 	interests[27] 	11970
scalar tree_4_3_u00_r8_network.node[27].core_layer 	data[27] 	8777
scalar tree_4_3_u00_r8_network.node[27].content_store 	p_hit[27] 	0.26675020885547
scalar tree_4_3_u00_r8_network.node[27].content_store 	hits[27] 	3193
scalar tree_4_3_u00_r8_network.node[27].content_store 	misses[27] 	8777
scalar tree_4_3_u00_r8_network.node[27].content_store 	decision_yes[27] 	284
scalar tree_4_3_u00_r8_network.node[27].content_store 	decision_no[27] 	8493
scalar tree_4_3_u00_r8_network.node[27].content_store 	decision_ratio[27] 	0.032357297482055
scalar tree_4_3_u00_r8_network.node[28].core_layer 	interests[28] 	12165
scalar tree_4_3_u00_r8_network.node[28].core_layer 	data[28] 	8900
scalar tree_4_3_u00_r8_network.node[28].content_store 	p_hit[28] 	0.26839293053843
scalar tree_4_3_u00_r8_network.node[28].content_store 	hits[28] 	3265
scalar tree_4_3_u00_r8_network.node[28].content_store 	misses[28] 	8900
scalar tree_4_3_u00_r8_network.node[28].content_store 	decision_yes[28] 	282
scalar tree_4_3_u00_r8_network.node[28].content_store 	decision_no[28] 	8618
scalar tree_4_3_u00_r8_network.node[28].content_store 	decision_ratio[28] 	0.031685393258427
scalar tree_4_3_u00_r8_network.node[29].core_layer 	interests[29] 	12069
scalar tree_4_3_u00_r8_network.node[29].core_layer 	data[29] 	8872
scalar tree_4_3_u00_r8_network.node[29].content_store 	p_hit[29] 	0.26472781506339
scalar tree_4_3_u00_r8_network.node[29].content_store 	hits[29] 	3195
scalar tree_4_3_u00_r8_network.node[29].content_store 	misses[29] 	8874
scalar tree_4_3_u00_r8_network.node[29].content_store 	decision_yes[29] 	268
scalar tree_4_3_u00_r8_network.node[29].content_store 	decision_no[29] 	8604
scalar tree_4_3_u00_r8_network.node[29].content_store 	decision_ratio[29] 	0.030207394048693
scalar tree_4_3_u00_r8_network.node[30].core_layer 	interests[30] 	12038
scalar tree_4_3_u00_r8_network.node[30].core_layer 	data[30] 	8850
scalar tree_4_3_u00_r8_network.node[30].content_store 	p_hit[30] 	0.26482804452567
scalar tree_4_3_u00_r8_network.node[30].content_store 	hits[30] 	3188
scalar tree_4_3_u00_r8_network.node[30].content_store 	misses[30] 	8850
scalar tree_4_3_u00_r8_network.node[30].content_store 	decision_yes[30] 	238
scalar tree_4_3_u00_r8_network.node[30].content_store 	decision_no[30] 	8612
scalar tree_4_3_u00_r8_network.node[30].content_store 	decision_ratio[30] 	0.026892655367232
scalar tree_4_3_u00_r8_network.node[31].core_layer 	interests[31] 	11880
scalar tree_4_3_u00_r8_network.node[31].core_layer 	data[31] 	8600
scalar tree_4_3_u00_r8_network.node[31].content_store 	p_hit[31] 	0.27609427609428
scalar tree_4_3_u00_r8_network.node[31].content_store 	hits[31] 	3280
scalar tree_4_3_u00_r8_network.node[31].content_store 	misses[31] 	8600
scalar tree_4_3_u00_r8_network.node[31].content_store 	decision_yes[31] 	287
scalar tree_4_3_u00_r8_network.node[31].content_store 	decision_no[31] 	8313
scalar tree_4_3_u00_r8_network.node[31].content_store 	decision_ratio[31] 	0.033372093023256
scalar tree_4_3_u00_r8_network.node[32].core_layer 	interests[32] 	11976
scalar tree_4_3_u00_r8_network.node[32].core_layer 	data[32] 	8734
scalar tree_4_3_u00_r8_network.node[32].content_store 	p_hit[32] 	0.27062458249833
scalar tree_4_3_u00_r8_network.node[32].content_store 	hits[32] 	3241
scalar tree_4_3_u00_r8_network.node[32].content_store 	misses[32] 	8735
scalar tree_4_3_u00_r8_network.node[32].content_store 	decision_yes[32] 	255
scalar tree_4_3_u00_r8_network.node[32].content_store 	decision_no[32] 	8479
scalar tree_4_3_u00_r8_network.node[32].content_store 	decision_ratio[32] 	0.029196244561484
scalar tree_4_3_u00_r8_network.node[33].core_layer 	interests[33] 	11761
scalar tree_4_3_u00_r8_network.node[33].core_layer 	data[33] 	8533
scalar tree_4_3_u00_r8_network.node[33].content_store 	p_hit[33] 	0.27446645693393
scalar tree_4_3_u00_r8_network.node[33].content_store 	hits[33] 	3228
scalar tree_4_3_u00_r8_network.node[33].content_store 	misses[33] 	8533
scalar tree_4_3_u00_r8_network.node[33].content_store 	decision_yes[33] 	272
scalar tree_4_3_u00_r8_network.node[33].content_store 	decision_no[33] 	8261
scalar tree_4_3_u00_r8_network.node[33].content_store 	decision_ratio[33] 	0.031876245165827
scalar tree_4_3_u00_r8_network.node[34].core_layer 	interests[34] 	12165
scalar tree_4_3_u00_r8_network.node[34].core_layer 	data[34] 	8900
scalar tree_4_3_u00_r8_network.node[34].content_store 	p_hit[34] 	0.26847513357994
scalar tree_4_3_u00_r8_network.node[34].content_store 	hits[34] 	3266
scalar tree_4_3_u00_r8_network.node[34].content_store 	misses[34] 	8899
scalar tree_4_3_u00_r8_network.node[34].content_store 	decision_yes[34] 	276
scalar tree_4_3_u00_r8_network.node[34].content_store 	decision_no[34] 	8624
scalar tree_4_3_u00_r8_network.node[34].content_store 	decision_ratio[34] 	0.031011235955056
scalar tree_4_3_u00_r8_network.node[35].core_layer 	interests[35] 	12124
scalar tree_4_3_u00_r8_network.node[35].core_layer 	data[35] 	8927
scalar tree_4_3_u00_r8_network.node[35].content_store 	p_hit[35] 	0.2636918508743
scalar tree_4_3_u00_r8_network.node[35].content_store 	hits[35] 	3197
scalar tree_4_3_u00_r8_network.node[35].content_store 	misses[35] 	8927
scalar tree_4_3_u00_r8_network.node[35].content_store 	decision_yes[35] 	282
scalar tree_4_3_u00_r8_network.node[35].content_store 	decision_no[35] 	8645
scalar tree_4_3_u00_r8_network.node[35].content_store 	decision_ratio[35] 	0.031589559762518
scalar tree_4_3_u00_r8_network.node[36].core_layer 	interests[36] 	11869
scalar tree_4_3_u00_r8_network.node[36].core_layer 	data[36] 	8651
scalar tree_4_3_u00_r8_network.node[36].content_store 	p_hit[36] 	0.27104221080125
scalar tree_4_3_u00_r8_network.node[36].content_store 	hits[36] 	3217
scalar tree_4_3_u00_r8_network.node[36].content_store 	misses[36] 	8652
scalar tree_4_3_u00_r8_network.node[36].content_store 	decision_yes[36] 	274
scalar tree_4_3_u00_r8_network.node[36].content_store 	decision_no[36] 	8377
scalar tree_4_3_u00_r8_network.node[36].content_store 	decision_ratio[36] 	0.031672639001272
scalar tree_4_3_u00_r8_network.node[37].core_layer 	interests[37] 	12013
scalar tree_4_3_u00_r8_network.node[37].core_layer 	data[37] 	8935
scalar tree_4_3_u00_r8_network.node[37].content_store 	p_hit[37] 	0.25622242570549
scalar tree_4_3_u00_r8_network.node[37].content_store 	hits[37] 	3078
scalar tree_4_3_u00_r8_network.node[37].content_store 	misses[37] 	8935
scalar tree_4_3_u00_r8_network.node[37].content_store 	decision_yes[37] 	289
scalar tree_4_3_u00_r8_network.node[37].content_store 	decision_no[37] 	8646
scalar tree_4_3_u00_r8_network.node[37].content_store 	decision_ratio[37] 	0.032344711807499
scalar tree_4_3_u00_r8_network.node[38].core_layer 	interests[38] 	12184
scalar tree_4_3_u00_r8_network.node[38].core_layer 	data[38] 	8900
scalar tree_4_3_u00_r8_network.node[38].content_store 	p_hit[38] 	0.26953381483913
scalar tree_4_3_u00_r8_network.node[38].content_store 	hits[38] 	3284
scalar tree_4_3_u00_r8_network.node[38].content_store 	misses[38] 	8900
scalar tree_4_3_u00_r8_network.node[38].content_store 	decision_yes[38] 	261
scalar tree_4_3_u00_r8_network.node[38].content_store 	decision_no[38] 	8639
scalar tree_4_3_u00_r8_network.node[38].content_store 	decision_ratio[38] 	0.029325842696629
scalar tree_4_3_u00_r8_network.node[39].core_layer 	interests[39] 	12173
scalar tree_4_3_u00_r8_network.node[39].core_layer 	data[39] 	8921
scalar tree_4_3_u00_r8_network.node[39].content_store 	p_hit[39] 	0.26714860757414
scalar tree_4_3_u00_r8_network.node[39].content_store 	hits[39] 	3252
scalar tree_4_3_u00_r8_network.node[39].content_store 	misses[39] 	8921
scalar tree_4_3_u00_r8_network.node[39].content_store 	decision_yes[39] 	267
scalar tree_4_3_u00_r8_network.node[39].content_store 	decision_no[39] 	8654
scalar tree_4_3_u00_r8_network.node[39].content_store 	decision_ratio[39] 	0.029929380114337
scalar tree_4_3_u00_r8_network.client[13] 	hdistance[13] 	2.8487841314632
scalar tree_4_3_u00_r8_network.client[13] 	downloads[13] 	12049
scalar tree_4_3_u00_r8_network.client[13] 	avg_time[13] 	0.004309135604
scalar tree_4_3_u00_r8_network.client[14] 	hdistance[14] 	2.8098609144666
scalar tree_4_3_u00_r8_network.client[14] 	downloads[14] 	12007
scalar tree_4_3_u00_r8_network.client[14] 	avg_time[14] 	0.004249684647
scalar tree_4_3_u00_r8_network.client[15] 	hdistance[15] 	2.8319203226603
scalar tree_4_3_u00_r8_network.client[15] 	downloads[15] 	12149
scalar tree_4_3_u00_r8_network.client[15] 	avg_time[15] 	0.004281172358
scalar tree_4_3_u00_r8_network.client[16] 	hdistance[16] 	2.8141872248526
scalar tree_4_3_u00_r8_network.client[16] 	downloads[16] 	12039
scalar tree_4_3_u00_r8_network.client[16] 	avg_time[16] 	0.00425417095
scalar tree_4_3_u00_r8_network.client[17] 	hdistance[17] 	2.8458599784071
scalar tree_4_3_u00_r8_network.client[17] 	downloads[17] 	12041
scalar tree_4_3_u00_r8_network.client[17] 	avg_time[17] 	0.004300802574
scalar tree_4_3_u00_r8_network.client[18] 	hdistance[18] 	2.837293430897
scalar tree_4_3_u00_r8_network.client[18] 	downloads[18] 	12163
scalar tree_4_3_u00_r8_network.client[18] 	avg_time[18] 	0.004291043559
scalar tree_4_3_u00_r8_network.client[19] 	hdistance[19] 	2.840729987557
scalar tree_4_3_u00_r8_network.client[19] 	downloads[19] 	12055
scalar tree_4_3_u00_r8_network.client[19] 	avg_time[19] 	0.004296305558
scalar tree_4_3_u00_r8_network.client[20] 	hdistance[20] 	2.833827139592
scalar tree_4_3_u00_r8_network.client[20] 	downloads[20] 	11813
scalar tree_4_3_u00_r8_network.client[20] 	avg_time[20] 	0.004288132139
scalar tree_4_3_u00_r8_network.client[21] 	hdistance[21] 	2.8478043078978
scalar tree_4_3_u00_r8_network.client[21] 	downloads[21] 	11978
scalar tree_4_3_u00_r8_network.client[21] 	avg_time[21] 	0.00430505627
scalar tree_4_3_u00_r8_network.client[22] 	hdistance[22] 	2.8614487926728
scalar tree_4_3_u00_r8_network.client[22] 	downloads[22] 	12010
scalar tree_4_3_u00_r8_network.client[22] 	avg_time[22] 	0.004323727226
scalar tree_4_3_u00_r8_network.client[23] 	hdistance[23] 	2.8432572962093
scalar tree_4_3_u00_r8_network.client[23] 	downloads[23] 	11924
scalar tree_4_3_u00_r8_network.client[23] 	avg_time[23] 	0.00429704501
scalar tree_4_3_u00_r8_network.client[24] 	hdistance[24] 	2.8105682951147
scalar tree_4_3_u00_r8_network.client[24] 	downloads[24] 	12036
scalar tree_4_3_u00_r8_network.client[24] 	avg_time[24] 	0.004251741716
scalar tree_4_3_u00_r8_network.client[25] 	hdistance[25] 	2.8155467720685
scalar tree_4_3_u00_r8_network.client[25] 	downloads[25] 	12144
scalar tree_4_3_u00_r8_network.client[25] 	avg_time[25] 	0.004256749241
scalar tree_4_3_u00_r8_network.client[26] 	hdistance[26] 	2.7969875031035
scalar tree_4_3_u00_r8_network.client[26] 	downloads[26] 	12083
scalar tree_4_3_u00_r8_network.client[26] 	avg_time[26] 	0.004231396469
scalar tree_4_3_u00_r8_network.client[27] 	hdistance[27] 	2.8285714285714
scalar tree_4_3_u00_r8_network.client[27] 	downloads[27] 	11970
scalar tree_4_3_u00_r8_network.client[27] 	avg_time[27] 	0.004280030427
scalar tree_4_3_u00_r8_network.client[28] 	hdistance[28] 	2.8238388820386
scalar tree_4_3_u00_r8_network.client[28] 	downloads[28] 	12165
scalar tree_4_3_u00_r8_network.client[28] 	avg_time[28] 	0.004270938174
scalar tree_4_3_u00_r8_network.client[29] 	hdistance[29] 	2.8429601392227
scalar tree_4_3_u00_r8_network.client[29] 	downloads[29] 	12067
scalar tree_4_3_u00_r8_network.client[29] 	avg_time[29] 	0.004299081371
scalar tree_4_3_u00_r8_network.client[30] 	hdistance[30] 	2.8527994683502
scalar tree_4_3_u00_r8_network.client[30] 	downloads[30] 	12038
scalar tree_4_3_u00_r8_network.client[30] 	avg_time[30] 	0.004309618431
scalar tree_4_3_u00_r8_network.client[31] 	hdistance[31] 	2.7930976430976
scalar tree_4_3_u00_r8_network.client[31] 	downloads[31] 	11880
scalar tree_4_3_u00_r8_network.client[31] 	avg_time[31] 	0.004222892638
scalar tree_4_3_u00_r8_network.client[32] 	hdistance[32] 	2.8242171189979
scalar tree_4_3_u00_r8_network.client[32] 	downloads[32] 	11975
scalar tree_4_3_u00_r8_network.client[32] 	avg_time[32] 	0.004268359122
scalar tree_4_3_u00_r8_network.client[33] 	hdistance[33] 	2.7987416036051
scalar tree_4_3_u00_r8_network.client[33] 	downloads[33] 	11761
scalar tree_4_3_u00_r8_network.client[33] 	avg_time[33] 	0.004235108105
scalar tree_4_3_u00_r8_network.client[34] 	hdistance[34] 	2.8268124280783
scalar tree_4_3_u00_r8_network.client[34] 	downloads[34] 	12166
scalar tree_4_3_u00_r8_network.client[34] 	avg_time[34] 	0.004274203749
scalar tree_4_3_u00_r8_network.client[35] 	hdistance[35] 	2.8432860442098
scalar tree_4_3_u00_r8_network.client[35] 	downloads[35] 	12124
scalar tree_4_3_u00_r8_network.client[35] 	avg_time[35] 	0.004299238132
scalar tree_4_3_u00_r8_network.client[36] 	hdistance[36] 	2.8161442534547
scalar tree_4_3_u00_r8_network.client[36] 	downloads[36] 	11868
scalar tree_4_3_u00_r8_network.client[36] 	avg_time[36] 	0.004256618245
scalar tree_4_3_u00_r8_network.client[37] 	hdistance[37] 	2.8708898693083
scalar tree_4_3_u00_r8_network.client[37] 	downloads[37] 	12013
scalar tree_4_3_u00_r8_network.client[37] 	avg_time[37] 	0.004341293885
scalar tree_4_3_u00_r8_network.client[38] 	hdistance[38] 	2.8255909389363
scalar tree_4_3_u00_r8_network.client[38] 	downloads[38] 	12184
scalar tree_4_3_u00_r8_network.client[38] 	avg_time[38] 	0.004272152922
scalar tree_4_3_u00_r8_network.client[39] 	hdistance[39] 	2.8328267477204
scalar tree_4_3_u00_r8_network.client[39] 	downloads[39] 	12173
scalar tree_4_3_u00_r8_network.client[39] 	avg_time[39] 	0.004283739669
