version 2
run General-14-20160820-06:46:36-856
attr a 0.9
attr cd lcd
attr configname General
attr cr lru
attr datetime 20160820-06:46:36
attr experiment General
attr fsize 1
attr inifile hw5115/scenario_A/SPR-LCD.ini
attr iterationvars "$name=tree_4_3, $un=00, $rep=15, $cd=lcd, $cr=lru, $fsize=1, $a=0.9, $sl=spr, $ttl=1000, $variance=0.05"
attr iterationvars2 "$name=tree_4_3, $un=00, $rep=15, $cd=lcd, $cr=lru, $fsize=1, $a=0.9, $sl=spr, $ttl=1000, $variance=0.05, $repetition=0"
attr measurement "$name=tree_4_3, $un=00, $rep=15, $cd=lcd, $cr=lru, $fsize=1, $a=0.9, $sl=spr, $ttl=1000, $variance=0.05"
attr name tree_4_3
attr network networks.${name}_u${un}_r${rep}_network
attr processid 856
attr rep 15
attr repetition 0
attr replication #0
attr resultdir results
attr runnumber 14
attr seedset 15
attr sl spr
attr ttl 1000
attr un 00
attr variance 0.05

scalar . 	a 	0.9
scalar . 	fsize 	1
scalar . 	rep 	15
scalar . 	ttl 	1000
scalar . 	un 	00
scalar . 	variance 	0.05
scalar tree_4_3_u00_r15_network.content_distribution 	repo-0 	0
scalar tree_4_3_u00_r15_network.content_distribution 	client-0 	13
scalar tree_4_3_u00_r15_network.content_distribution 	client-1 	14
scalar tree_4_3_u00_r15_network.content_distribution 	client-2 	15
scalar tree_4_3_u00_r15_network.content_distribution 	client-3 	16
scalar tree_4_3_u00_r15_network.content_distribution 	client-4 	17
scalar tree_4_3_u00_r15_network.content_distribution 	client-5 	18
scalar tree_4_3_u00_r15_network.content_distribution 	client-6 	19
scalar tree_4_3_u00_r15_network.content_distribution 	client-7 	20
scalar tree_4_3_u00_r15_network.content_distribution 	client-8 	21
scalar tree_4_3_u00_r15_network.content_distribution 	client-9 	22
scalar tree_4_3_u00_r15_network.content_distribution 	client-10 	23
scalar tree_4_3_u00_r15_network.content_distribution 	client-11 	24
scalar tree_4_3_u00_r15_network.content_distribution 	client-12 	25
scalar tree_4_3_u00_r15_network.content_distribution 	client-13 	26
scalar tree_4_3_u00_r15_network.content_distribution 	client-14 	27
scalar tree_4_3_u00_r15_network.content_distribution 	client-15 	28
scalar tree_4_3_u00_r15_network.content_distribution 	client-16 	29
scalar tree_4_3_u00_r15_network.content_distribution 	client-17 	30
scalar tree_4_3_u00_r15_network.content_distribution 	client-18 	31
scalar tree_4_3_u00_r15_network.content_distribution 	client-19 	32
scalar tree_4_3_u00_r15_network.content_distribution 	client-20 	33
scalar tree_4_3_u00_r15_network.content_distribution 	client-21 	34
scalar tree_4_3_u00_r15_network.content_distribution 	client-22 	35
scalar tree_4_3_u00_r15_network.content_distribution 	client-23 	36
scalar tree_4_3_u00_r15_network.content_distribution 	client-24 	37
scalar tree_4_3_u00_r15_network.content_distribution 	client-25 	38
scalar tree_4_3_u00_r15_network.content_distribution 	client-26 	39
scalar tree_4_3_u00_r15_network.content_distribution 	repo-0_card 	100000
scalar tree_4_3_u00_r15_network.content_distribution 	repo-0_price 	0
scalar tree_4_3_u00_r15_network.statistics 	stabilization_time 	865.9
scalar tree_4_3_u00_r15_network.statistics 	p_hit 	0.18859386276461
scalar tree_4_3_u00_r15_network.statistics 	interests 	25505.075
scalar tree_4_3_u00_r15_network.statistics 	data 	17387.1
scalar tree_4_3_u00_r15_network.statistics 	hdistance 	2.8330213159049
scalar tree_4_3_u00_r15_network.statistics 	avg_time 	0.004283659902
scalar tree_4_3_u00_r15_network.statistics 	downloads 	324714
scalar tree_4_3_u00_r15_network.statistics 	total_cost 	0
scalar tree_4_3_u00_r15_network.statistics 	total_replicas 	100000
scalar tree_4_3_u00_r15_network.statistics 	inner_hit 	0.30885024975825
scalar tree_4_3_u00_r15_network.node[0].core_layer 	interests[0] 	226695
scalar tree_4_3_u00_r15_network.node[0].core_layer 	repo_load[0] 	224426
scalar tree_4_3_u00_r15_network.node[0].core_layer 	data[0] 	0
scalar tree_4_3_u00_r15_network.node[0].core_layer 	repo_int[0] 	224426
scalar tree_4_3_u00_r15_network.node[0].content_store 	p_hit[0] 	0.010009042987274
scalar tree_4_3_u00_r15_network.node[0].content_store 	hits[0] 	2269
scalar tree_4_3_u00_r15_network.node[0].content_store 	misses[0] 	224426
scalar tree_4_3_u00_r15_network.node[0].content_store 	decision_yes[0] 	224426
scalar tree_4_3_u00_r15_network.node[0].content_store 	decision_no[0] 	0
scalar tree_4_3_u00_r15_network.node[0].content_store 	decision_ratio[0] 	1
scalar tree_4_3_u00_r15_network.node[1].core_layer 	interests[1] 	77174
scalar tree_4_3_u00_r15_network.node[1].core_layer 	data[1] 	75798
scalar tree_4_3_u00_r15_network.node[1].content_store 	p_hit[1] 	0.017803923601213
scalar tree_4_3_u00_r15_network.node[1].content_store 	hits[1] 	1374
scalar tree_4_3_u00_r15_network.node[1].content_store 	misses[1] 	75800
scalar tree_4_3_u00_r15_network.node[1].content_store 	decision_yes[1] 	768
scalar tree_4_3_u00_r15_network.node[1].content_store 	decision_no[1] 	75030
scalar tree_4_3_u00_r15_network.node[1].content_store 	decision_ratio[1] 	0.010132193461569
scalar tree_4_3_u00_r15_network.node[2].core_layer 	interests[2] 	76695
scalar tree_4_3_u00_r15_network.node[2].core_layer 	data[2] 	75387
scalar tree_4_3_u00_r15_network.node[2].content_store 	p_hit[2] 	0.01706760545016
scalar tree_4_3_u00_r15_network.node[2].content_store 	hits[2] 	1309
scalar tree_4_3_u00_r15_network.node[2].content_store 	misses[2] 	75386
scalar tree_4_3_u00_r15_network.node[2].content_store 	decision_yes[2] 	738
scalar tree_4_3_u00_r15_network.node[2].content_store 	decision_no[2] 	74649
scalar tree_4_3_u00_r15_network.node[2].content_store 	decision_ratio[2] 	0.0097894862509451
scalar tree_4_3_u00_r15_network.node[3].core_layer 	interests[3] 	76819
scalar tree_4_3_u00_r15_network.node[3].core_layer 	data[3] 	75509
scalar tree_4_3_u00_r15_network.node[3].content_store 	p_hit[3] 	0.017040055194678
scalar tree_4_3_u00_r15_network.node[3].content_store 	hits[3] 	1309
scalar tree_4_3_u00_r15_network.node[3].content_store 	misses[3] 	75510
scalar tree_4_3_u00_r15_network.node[3].content_store 	decision_yes[3] 	763
scalar tree_4_3_u00_r15_network.node[3].content_store 	decision_no[3] 	74746
scalar tree_4_3_u00_r15_network.node[3].content_store 	decision_ratio[3] 	0.010104755724483
scalar tree_4_3_u00_r15_network.node[4].core_layer 	interests[4] 	26543
scalar tree_4_3_u00_r15_network.node[4].core_layer 	data[4] 	25747
scalar tree_4_3_u00_r15_network.node[4].content_store 	p_hit[4] 	0.029989074332216
scalar tree_4_3_u00_r15_network.node[4].content_store 	hits[4] 	796
scalar tree_4_3_u00_r15_network.node[4].content_store 	misses[4] 	25747
scalar tree_4_3_u00_r15_network.node[4].content_store 	decision_yes[4] 	468
scalar tree_4_3_u00_r15_network.node[4].content_store 	decision_no[4] 	25279
scalar tree_4_3_u00_r15_network.node[4].content_store 	decision_ratio[4] 	0.018176874975725
scalar tree_4_3_u00_r15_network.node[5].core_layer 	interests[5] 	26519
scalar tree_4_3_u00_r15_network.node[5].core_layer 	data[5] 	25690
scalar tree_4_3_u00_r15_network.node[5].content_store 	p_hit[5] 	0.03122289679098
scalar tree_4_3_u00_r15_network.node[5].content_store 	hits[5] 	828
scalar tree_4_3_u00_r15_network.node[5].content_store 	misses[5] 	25691
scalar tree_4_3_u00_r15_network.node[5].content_store 	decision_yes[5] 	440
scalar tree_4_3_u00_r15_network.node[5].content_store 	decision_no[5] 	25250
scalar tree_4_3_u00_r15_network.node[5].content_store 	decision_ratio[5] 	0.017127286882055
scalar tree_4_3_u00_r15_network.node[6].core_layer 	interests[6] 	26560
scalar tree_4_3_u00_r15_network.node[6].core_layer 	data[6] 	25737
scalar tree_4_3_u00_r15_network.node[6].content_store 	p_hit[6] 	0.030986445783133
scalar tree_4_3_u00_r15_network.node[6].content_store 	hits[6] 	823
scalar tree_4_3_u00_r15_network.node[6].content_store 	misses[6] 	25737
scalar tree_4_3_u00_r15_network.node[6].content_store 	decision_yes[6] 	466
scalar tree_4_3_u00_r15_network.node[6].content_store 	decision_no[6] 	25271
scalar tree_4_3_u00_r15_network.node[6].content_store 	decision_ratio[6] 	0.018106228387147
scalar tree_4_3_u00_r15_network.node[7].core_layer 	interests[7] 	26514
scalar tree_4_3_u00_r15_network.node[7].core_layer 	data[7] 	25692
scalar tree_4_3_u00_r15_network.node[7].content_store 	p_hit[7] 	0.030964773327299
scalar tree_4_3_u00_r15_network.node[7].content_store 	hits[7] 	821
scalar tree_4_3_u00_r15_network.node[7].content_store 	misses[7] 	25693
scalar tree_4_3_u00_r15_network.node[7].content_store 	decision_yes[7] 	431
scalar tree_4_3_u00_r15_network.node[7].content_store 	decision_no[7] 	25261
scalar tree_4_3_u00_r15_network.node[7].content_store 	decision_ratio[7] 	0.016775650007785
scalar tree_4_3_u00_r15_network.node[8].core_layer 	interests[8] 	26315
scalar tree_4_3_u00_r15_network.node[8].core_layer 	data[8] 	25490
scalar tree_4_3_u00_r15_network.node[8].content_store 	p_hit[8] 	0.03138894166825
scalar tree_4_3_u00_r15_network.node[8].content_store 	hits[8] 	826
scalar tree_4_3_u00_r15_network.node[8].content_store 	misses[8] 	25489
scalar tree_4_3_u00_r15_network.node[8].content_store 	decision_yes[8] 	447
scalar tree_4_3_u00_r15_network.node[8].content_store 	decision_no[8] 	25043
scalar tree_4_3_u00_r15_network.node[8].content_store 	decision_ratio[8] 	0.017536288740683
scalar tree_4_3_u00_r15_network.node[9].core_layer 	interests[9] 	26373
scalar tree_4_3_u00_r15_network.node[9].core_layer 	data[9] 	25515
scalar tree_4_3_u00_r15_network.node[9].content_store 	p_hit[9] 	0.032533272665226
scalar tree_4_3_u00_r15_network.node[9].content_store 	hits[9] 	858
scalar tree_4_3_u00_r15_network.node[9].content_store 	misses[9] 	25515
scalar tree_4_3_u00_r15_network.node[9].content_store 	decision_yes[9] 	431
scalar tree_4_3_u00_r15_network.node[9].content_store 	decision_no[9] 	25084
scalar tree_4_3_u00_r15_network.node[9].content_store 	decision_ratio[9] 	0.016892024299432
scalar tree_4_3_u00_r15_network.node[10].core_layer 	interests[10] 	26377
scalar tree_4_3_u00_r15_network.node[10].core_layer 	data[10] 	25571
scalar tree_4_3_u00_r15_network.node[10].content_store 	p_hit[10] 	0.030519012776282
scalar tree_4_3_u00_r15_network.node[10].content_store 	hits[10] 	805
scalar tree_4_3_u00_r15_network.node[10].content_store 	misses[10] 	25572
scalar tree_4_3_u00_r15_network.node[10].content_store 	decision_yes[10] 	444
scalar tree_4_3_u00_r15_network.node[10].content_store 	decision_no[10] 	25127
scalar tree_4_3_u00_r15_network.node[10].content_store 	decision_ratio[10] 	0.017363419498651
scalar tree_4_3_u00_r15_network.node[11].core_layer 	interests[11] 	26306
scalar tree_4_3_u00_r15_network.node[11].core_layer 	data[11] 	25447
scalar tree_4_3_u00_r15_network.node[11].content_store 	p_hit[11] 	0.032654147342812
scalar tree_4_3_u00_r15_network.node[11].content_store 	hits[11] 	859
scalar tree_4_3_u00_r15_network.node[11].content_store 	misses[11] 	25447
scalar tree_4_3_u00_r15_network.node[11].content_store 	decision_yes[11] 	419
scalar tree_4_3_u00_r15_network.node[11].content_store 	decision_no[11] 	25028
scalar tree_4_3_u00_r15_network.node[11].content_store 	decision_ratio[11] 	0.016465595158565
scalar tree_4_3_u00_r15_network.node[12].core_layer 	interests[12] 	26594
scalar tree_4_3_u00_r15_network.node[12].core_layer 	data[12] 	25800
scalar tree_4_3_u00_r15_network.node[12].content_store 	p_hit[12] 	0.029781153643679
scalar tree_4_3_u00_r15_network.node[12].content_store 	hits[12] 	792
scalar tree_4_3_u00_r15_network.node[12].content_store 	misses[12] 	25802
scalar tree_4_3_u00_r15_network.node[12].content_store 	decision_yes[12] 	446
scalar tree_4_3_u00_r15_network.node[12].content_store 	decision_no[12] 	25354
scalar tree_4_3_u00_r15_network.node[12].content_store 	decision_ratio[12] 	0.017286821705426
scalar tree_4_3_u00_r15_network.node[13].core_layer 	interests[13] 	11849
scalar tree_4_3_u00_r15_network.node[13].core_layer 	data[13] 	8661
scalar tree_4_3_u00_r15_network.node[13].content_store 	p_hit[13] 	0.26905224069542
scalar tree_4_3_u00_r15_network.node[13].content_store 	hits[13] 	3188
scalar tree_4_3_u00_r15_network.node[13].content_store 	misses[13] 	8661
scalar tree_4_3_u00_r15_network.node[13].content_store 	decision_yes[13] 	268
scalar tree_4_3_u00_r15_network.node[13].content_store 	decision_no[13] 	8393
scalar tree_4_3_u00_r15_network.node[13].content_store 	decision_ratio[13] 	0.030943309086711
scalar tree_4_3_u00_r15_network.node[14].core_layer 	interests[14] 	12272
scalar tree_4_3_u00_r15_network.node[14].core_layer 	data[14] 	9010
scalar tree_4_3_u00_r15_network.node[14].content_store 	p_hit[14] 	0.26572685788787
scalar tree_4_3_u00_r15_network.node[14].content_store 	hits[14] 	3261
scalar tree_4_3_u00_r15_network.node[14].content_store 	misses[14] 	9011
scalar tree_4_3_u00_r15_network.node[14].content_store 	decision_yes[14] 	257
scalar tree_4_3_u00_r15_network.node[14].content_store 	decision_no[14] 	8753
scalar tree_4_3_u00_r15_network.node[14].content_store 	decision_ratio[14] 	0.028523862375139
scalar tree_4_3_u00_r15_network.node[15].core_layer 	interests[15] 	12009
scalar tree_4_3_u00_r15_network.node[15].core_layer 	data[15] 	8872
scalar tree_4_3_u00_r15_network.node[15].content_store 	p_hit[15] 	0.26113748022317
scalar tree_4_3_u00_r15_network.node[15].content_store 	hits[15] 	3136
scalar tree_4_3_u00_r15_network.node[15].content_store 	misses[15] 	8873
scalar tree_4_3_u00_r15_network.node[15].content_store 	decision_yes[15] 	271
scalar tree_4_3_u00_r15_network.node[15].content_store 	decision_no[15] 	8601
scalar tree_4_3_u00_r15_network.node[15].content_store 	decision_ratio[15] 	0.030545536519387
scalar tree_4_3_u00_r15_network.node[16].core_layer 	interests[16] 	12082
scalar tree_4_3_u00_r15_network.node[16].core_layer 	data[16] 	8919
scalar tree_4_3_u00_r15_network.node[16].content_store 	p_hit[16] 	0.26171163714617
scalar tree_4_3_u00_r15_network.node[16].content_store 	hits[16] 	3162
scalar tree_4_3_u00_r15_network.node[16].content_store 	misses[16] 	8920
scalar tree_4_3_u00_r15_network.node[16].content_store 	decision_yes[16] 	256
scalar tree_4_3_u00_r15_network.node[16].content_store 	decision_no[16] 	8663
scalar tree_4_3_u00_r15_network.node[16].content_store 	decision_ratio[16] 	0.028702769368763
scalar tree_4_3_u00_r15_network.node[17].core_layer 	interests[17] 	11968
scalar tree_4_3_u00_r15_network.node[17].core_layer 	data[17] 	8723
scalar tree_4_3_u00_r15_network.node[17].content_store 	p_hit[17] 	0.27113970588235
scalar tree_4_3_u00_r15_network.node[17].content_store 	hits[17] 	3245
scalar tree_4_3_u00_r15_network.node[17].content_store 	misses[17] 	8723
scalar tree_4_3_u00_r15_network.node[17].content_store 	decision_yes[17] 	267
scalar tree_4_3_u00_r15_network.node[17].content_store 	decision_no[17] 	8456
scalar tree_4_3_u00_r15_network.node[17].content_store 	decision_ratio[17] 	0.030608735526768
scalar tree_4_3_u00_r15_network.node[18].core_layer 	interests[18] 	12043
scalar tree_4_3_u00_r15_network.node[18].core_layer 	data[18] 	8877
scalar tree_4_3_u00_r15_network.node[18].content_store 	p_hit[18] 	0.26297434194138
scalar tree_4_3_u00_r15_network.node[18].content_store 	hits[18] 	3167
scalar tree_4_3_u00_r15_network.node[18].content_store 	misses[18] 	8876
scalar tree_4_3_u00_r15_network.node[18].content_store 	decision_yes[18] 	305
scalar tree_4_3_u00_r15_network.node[18].content_store 	decision_no[18] 	8572
scalar tree_4_3_u00_r15_network.node[18].content_store 	decision_ratio[18] 	0.034358454432804
scalar tree_4_3_u00_r15_network.node[19].core_layer 	interests[19] 	12051
scalar tree_4_3_u00_r15_network.node[19].core_layer 	data[19] 	8914
scalar tree_4_3_u00_r15_network.node[19].content_store 	p_hit[19] 	0.26031034768899
scalar tree_4_3_u00_r15_network.node[19].content_store 	hits[19] 	3137
scalar tree_4_3_u00_r15_network.node[19].content_store 	misses[19] 	8914
scalar tree_4_3_u00_r15_network.node[19].content_store 	decision_yes[19] 	258
scalar tree_4_3_u00_r15_network.node[19].content_store 	decision_no[19] 	8656
scalar tree_4_3_u00_r15_network.node[19].content_store 	decision_ratio[19] 	0.028943235360108
scalar tree_4_3_u00_r15_network.node[20].core_layer 	interests[20] 	12071
scalar tree_4_3_u00_r15_network.node[20].core_layer 	data[20] 	8839
scalar tree_4_3_u00_r15_network.node[20].content_store 	p_hit[20] 	0.26774915085743
scalar tree_4_3_u00_r15_network.node[20].content_store 	hits[20] 	3232
scalar tree_4_3_u00_r15_network.node[20].content_store 	misses[20] 	8839
scalar tree_4_3_u00_r15_network.node[20].content_store 	decision_yes[20] 	287
scalar tree_4_3_u00_r15_network.node[20].content_store 	decision_no[20] 	8552
scalar tree_4_3_u00_r15_network.node[20].content_store 	decision_ratio[20] 	0.03246973639552
scalar tree_4_3_u00_r15_network.node[21].core_layer 	interests[21] 	11897
scalar tree_4_3_u00_r15_network.node[21].core_layer 	data[21] 	8807
scalar tree_4_3_u00_r15_network.node[21].content_store 	p_hit[21] 	0.25972934353198
scalar tree_4_3_u00_r15_network.node[21].content_store 	hits[21] 	3090
scalar tree_4_3_u00_r15_network.node[21].content_store 	misses[21] 	8807
scalar tree_4_3_u00_r15_network.node[21].content_store 	decision_yes[21] 	278
scalar tree_4_3_u00_r15_network.node[21].content_store 	decision_no[21] 	8529
scalar tree_4_3_u00_r15_network.node[21].content_store 	decision_ratio[21] 	0.031565799931872
scalar tree_4_3_u00_r15_network.node[22].core_layer 	interests[22] 	12093
scalar tree_4_3_u00_r15_network.node[22].core_layer 	data[22] 	8850
scalar tree_4_3_u00_r15_network.node[22].content_store 	p_hit[22] 	0.26825436202762
scalar tree_4_3_u00_r15_network.node[22].content_store 	hits[22] 	3244
scalar tree_4_3_u00_r15_network.node[22].content_store 	misses[22] 	8849
scalar tree_4_3_u00_r15_network.node[22].content_store 	decision_yes[22] 	276
scalar tree_4_3_u00_r15_network.node[22].content_store 	decision_no[22] 	8574
scalar tree_4_3_u00_r15_network.node[22].content_store 	decision_ratio[22] 	0.031186440677966
scalar tree_4_3_u00_r15_network.node[23].core_layer 	interests[23] 	12145
scalar tree_4_3_u00_r15_network.node[23].core_layer 	data[23] 	8820
scalar tree_4_3_u00_r15_network.node[23].content_store 	p_hit[23] 	0.27377521613833
scalar tree_4_3_u00_r15_network.node[23].content_store 	hits[23] 	3325
scalar tree_4_3_u00_r15_network.node[23].content_store 	misses[23] 	8820
scalar tree_4_3_u00_r15_network.node[23].content_store 	decision_yes[23] 	271
scalar tree_4_3_u00_r15_network.node[23].content_store 	decision_no[23] 	8549
scalar tree_4_3_u00_r15_network.node[23].content_store 	decision_ratio[23] 	0.030725623582766
scalar tree_4_3_u00_r15_network.node[24].core_layer 	interests[24] 	12080
scalar tree_4_3_u00_r15_network.node[24].core_layer 	data[24] 	8845
scalar tree_4_3_u00_r15_network.node[24].content_store 	p_hit[24] 	0.26779801324503
scalar tree_4_3_u00_r15_network.node[24].content_store 	hits[24] 	3235
scalar tree_4_3_u00_r15_network.node[24].content_store 	misses[24] 	8845
scalar tree_4_3_u00_r15_network.node[24].content_store 	decision_yes[24] 	274
scalar tree_4_3_u00_r15_network.node[24].content_store 	decision_no[24] 	8571
scalar tree_4_3_u00_r15_network.node[24].content_store 	decision_ratio[24] 	0.030977953646128
scalar tree_4_3_u00_r15_network.node[25].core_layer 	interests[25] 	12020
scalar tree_4_3_u00_r15_network.node[25].core_layer 	data[25] 	8805
scalar tree_4_3_u00_r15_network.node[25].content_store 	p_hit[25] 	0.26747088186356
scalar tree_4_3_u00_r15_network.node[25].content_store 	hits[25] 	3215
scalar tree_4_3_u00_r15_network.node[25].content_store 	misses[25] 	8805
scalar tree_4_3_u00_r15_network.node[25].content_store 	decision_yes[25] 	288
scalar tree_4_3_u00_r15_network.node[25].content_store 	decision_no[25] 	8517
scalar tree_4_3_u00_r15_network.node[25].content_store 	decision_ratio[25] 	0.032708688245315
scalar tree_4_3_u00_r15_network.node[26].core_layer 	interests[26] 	12087
scalar tree_4_3_u00_r15_network.node[26].core_layer 	data[26] 	8761
scalar tree_4_3_u00_r15_network.node[26].content_store 	p_hit[26] 	0.275088938529
scalar tree_4_3_u00_r15_network.node[26].content_store 	hits[26] 	3325
scalar tree_4_3_u00_r15_network.node[26].content_store 	misses[26] 	8762
scalar tree_4_3_u00_r15_network.node[26].content_store 	decision_yes[26] 	263
scalar tree_4_3_u00_r15_network.node[26].content_store 	decision_no[26] 	8498
scalar tree_4_3_u00_r15_network.node[26].content_store 	decision_ratio[26] 	0.030019404177605
scalar tree_4_3_u00_r15_network.node[27].core_layer 	interests[27] 	11971
scalar tree_4_3_u00_r15_network.node[27].core_layer 	data[27] 	8750
scalar tree_4_3_u00_r15_network.node[27].content_store 	p_hit[27] 	0.26915044691337
scalar tree_4_3_u00_r15_network.node[27].content_store 	hits[27] 	3222
scalar tree_4_3_u00_r15_network.node[27].content_store 	misses[27] 	8749
scalar tree_4_3_u00_r15_network.node[27].content_store 	decision_yes[27] 	275
scalar tree_4_3_u00_r15_network.node[27].content_store 	decision_no[27] 	8475
scalar tree_4_3_u00_r15_network.node[27].content_store 	decision_ratio[27] 	0.031428571428571
scalar tree_4_3_u00_r15_network.node[28].core_layer 	interests[28] 	11926
scalar tree_4_3_u00_r15_network.node[28].core_layer 	data[28] 	8686
scalar tree_4_3_u00_r15_network.node[28].content_store 	p_hit[28] 	0.27167533120912
scalar tree_4_3_u00_r15_network.node[28].content_store 	hits[28] 	3240
scalar tree_4_3_u00_r15_network.node[28].content_store 	misses[28] 	8686
scalar tree_4_3_u00_r15_network.node[28].content_store 	decision_yes[28] 	283
scalar tree_4_3_u00_r15_network.node[28].content_store 	decision_no[28] 	8403
scalar tree_4_3_u00_r15_network.node[28].content_store 	decision_ratio[28] 	0.032581165093254
scalar tree_4_3_u00_r15_network.node[29].core_layer 	interests[29] 	11968
scalar tree_4_3_u00_r15_network.node[29].core_layer 	data[29] 	8903
scalar tree_4_3_u00_r15_network.node[29].content_store 	p_hit[29] 	0.25609959893048
scalar tree_4_3_u00_r15_network.node[29].content_store 	hits[29] 	3065
scalar tree_4_3_u00_r15_network.node[29].content_store 	misses[29] 	8903
scalar tree_4_3_u00_r15_network.node[29].content_store 	decision_yes[29] 	299
scalar tree_4_3_u00_r15_network.node[29].content_store 	decision_no[29] 	8604
scalar tree_4_3_u00_r15_network.node[29].content_store 	decision_ratio[29] 	0.033584185106144
scalar tree_4_3_u00_r15_network.node[30].core_layer 	interests[30] 	11987
scalar tree_4_3_u00_r15_network.node[30].core_layer 	data[30] 	8783
scalar tree_4_3_u00_r15_network.node[30].content_store 	p_hit[30] 	0.26712271627597
scalar tree_4_3_u00_r15_network.node[30].content_store 	hits[30] 	3202
scalar tree_4_3_u00_r15_network.node[30].content_store 	misses[30] 	8785
scalar tree_4_3_u00_r15_network.node[30].content_store 	decision_yes[30] 	276
scalar tree_4_3_u00_r15_network.node[30].content_store 	decision_no[30] 	8507
scalar tree_4_3_u00_r15_network.node[30].content_store 	decision_ratio[30] 	0.031424342479791
scalar tree_4_3_u00_r15_network.node[31].core_layer 	interests[31] 	11992
scalar tree_4_3_u00_r15_network.node[31].core_layer 	data[31] 	8732
scalar tree_4_3_u00_r15_network.node[31].content_store 	p_hit[31] 	0.27176450967312
scalar tree_4_3_u00_r15_network.node[31].content_store 	hits[31] 	3259
scalar tree_4_3_u00_r15_network.node[31].content_store 	misses[31] 	8733
scalar tree_4_3_u00_r15_network.node[31].content_store 	decision_yes[31] 	269
scalar tree_4_3_u00_r15_network.node[31].content_store 	decision_no[31] 	8463
scalar tree_4_3_u00_r15_network.node[31].content_store 	decision_ratio[31] 	0.030806229958772
scalar tree_4_3_u00_r15_network.node[32].core_layer 	interests[32] 	12118
scalar tree_4_3_u00_r15_network.node[32].core_layer 	data[32] 	8896
scalar tree_4_3_u00_r15_network.node[32].content_store 	p_hit[32] 	0.26588545964681
scalar tree_4_3_u00_r15_network.node[32].content_store 	hits[32] 	3222
scalar tree_4_3_u00_r15_network.node[32].content_store 	misses[32] 	8896
scalar tree_4_3_u00_r15_network.node[32].content_store 	decision_yes[32] 	267
scalar tree_4_3_u00_r15_network.node[32].content_store 	decision_no[32] 	8629
scalar tree_4_3_u00_r15_network.node[32].content_store 	decision_ratio[32] 	0.030013489208633
scalar tree_4_3_u00_r15_network.node[33].core_layer 	interests[33] 	11933
scalar tree_4_3_u00_r15_network.node[33].core_layer 	data[33] 	8748
scalar tree_4_3_u00_r15_network.node[33].content_store 	p_hit[33] 	0.26690689684069
scalar tree_4_3_u00_r15_network.node[33].content_store 	hits[33] 	3185
scalar tree_4_3_u00_r15_network.node[33].content_store 	misses[33] 	8748
scalar tree_4_3_u00_r15_network.node[33].content_store 	decision_yes[33] 	269
scalar tree_4_3_u00_r15_network.node[33].content_store 	decision_no[33] 	8479
scalar tree_4_3_u00_r15_network.node[33].content_store 	decision_ratio[33] 	0.030749885688157
scalar tree_4_3_u00_r15_network.node[34].core_layer 	interests[34] 	11921
scalar tree_4_3_u00_r15_network.node[34].core_layer 	data[34] 	8774
scalar tree_4_3_u00_r15_network.node[34].content_store 	p_hit[34] 	0.2639040348964
scalar tree_4_3_u00_r15_network.node[34].content_store 	hits[34] 	3146
scalar tree_4_3_u00_r15_network.node[34].content_store 	misses[34] 	8775
scalar tree_4_3_u00_r15_network.node[34].content_store 	decision_yes[34] 	275
scalar tree_4_3_u00_r15_network.node[34].content_store 	decision_no[34] 	8499
scalar tree_4_3_u00_r15_network.node[34].content_store 	decision_ratio[34] 	0.031342603145658
scalar tree_4_3_u00_r15_network.node[35].core_layer 	interests[35] 	11977
scalar tree_4_3_u00_r15_network.node[35].core_layer 	data[35] 	8782
scalar tree_4_3_u00_r15_network.node[35].content_store 	p_hit[35] 	0.26676129247725
scalar tree_4_3_u00_r15_network.node[35].content_store 	hits[35] 	3195
scalar tree_4_3_u00_r15_network.node[35].content_store 	misses[35] 	8782
scalar tree_4_3_u00_r15_network.node[35].content_store 	decision_yes[35] 	299
scalar tree_4_3_u00_r15_network.node[35].content_store 	decision_no[35] 	8483
scalar tree_4_3_u00_r15_network.node[35].content_store 	decision_ratio[35] 	0.034046914142564
scalar tree_4_3_u00_r15_network.node[36].core_layer 	interests[36] 	12013
scalar tree_4_3_u00_r15_network.node[36].core_layer 	data[36] 	8750
scalar tree_4_3_u00_r15_network.node[36].content_store 	p_hit[36] 	0.27162240905686
scalar tree_4_3_u00_r15_network.node[36].content_store 	hits[36] 	3263
scalar tree_4_3_u00_r15_network.node[36].content_store 	misses[36] 	8750
scalar tree_4_3_u00_r15_network.node[36].content_store 	decision_yes[36] 	285
scalar tree_4_3_u00_r15_network.node[36].content_store 	decision_no[36] 	8465
scalar tree_4_3_u00_r15_network.node[36].content_store 	decision_ratio[36] 	0.032571428571429
scalar tree_4_3_u00_r15_network.node[37].core_layer 	interests[37] 	11948
scalar tree_4_3_u00_r15_network.node[37].core_layer 	data[37] 	8695
scalar tree_4_3_u00_r15_network.node[37].content_store 	p_hit[37] 	0.27226314027452
scalar tree_4_3_u00_r15_network.node[37].content_store 	hits[37] 	3253
scalar tree_4_3_u00_r15_network.node[37].content_store 	misses[37] 	8695
scalar tree_4_3_u00_r15_network.node[37].content_store 	decision_yes[37] 	282
scalar tree_4_3_u00_r15_network.node[37].content_store 	decision_no[37] 	8413
scalar tree_4_3_u00_r15_network.node[37].content_store 	decision_ratio[37] 	0.032432432432432
scalar tree_4_3_u00_r15_network.node[38].core_layer 	interests[38] 	12003
scalar tree_4_3_u00_r15_network.node[38].core_layer 	data[38] 	8837
scalar tree_4_3_u00_r15_network.node[38].content_store 	p_hit[38] 	0.26376739148546
scalar tree_4_3_u00_r15_network.node[38].content_store 	hits[38] 	3166
scalar tree_4_3_u00_r15_network.node[38].content_store 	misses[38] 	8837
scalar tree_4_3_u00_r15_network.node[38].content_store 	decision_yes[38] 	249
scalar tree_4_3_u00_r15_network.node[38].content_store 	decision_no[38] 	8588
scalar tree_4_3_u00_r15_network.node[38].content_store 	decision_ratio[38] 	0.028176983139074
scalar tree_4_3_u00_r15_network.node[39].core_layer 	interests[39] 	12295
scalar tree_4_3_u00_r15_network.node[39].core_layer 	data[39] 	9062
scalar tree_4_3_u00_r15_network.node[39].content_store 	p_hit[39] 	0.2629524196828
scalar tree_4_3_u00_r15_network.node[39].content_store 	hits[39] 	3233
scalar tree_4_3_u00_r15_network.node[39].content_store 	misses[39] 	9062
scalar tree_4_3_u00_r15_network.node[39].content_store 	decision_yes[39] 	261
scalar tree_4_3_u00_r15_network.node[39].content_store 	decision_no[39] 	8801
scalar tree_4_3_u00_r15_network.node[39].content_store 	decision_ratio[39] 	0.028801589053189
scalar tree_4_3_u00_r15_network.client[13] 	hdistance[13] 	2.8260612709933
scalar tree_4_3_u00_r15_network.client[13] 	downloads[13] 	11849
scalar tree_4_3_u00_r15_network.client[13] 	avg_time[13] 	0.004271749941
scalar tree_4_3_u00_r15_network.client[14] 	hdistance[14] 	2.8439409991036
scalar tree_4_3_u00_r15_network.client[14] 	downloads[14] 	12271
scalar tree_4_3_u00_r15_network.client[14] 	avg_time[14] 	0.004297091038
scalar tree_4_3_u00_r15_network.client[15] 	hdistance[15] 	2.8507661558961
scalar tree_4_3_u00_r15_network.client[15] 	downloads[15] 	12008
scalar tree_4_3_u00_r15_network.client[15] 	avg_time[15] 	0.004312597502
scalar tree_4_3_u00_r15_network.client[16] 	hdistance[16] 	2.8566343845708
scalar tree_4_3_u00_r15_network.client[16] 	downloads[16] 	12081
scalar tree_4_3_u00_r15_network.client[16] 	avg_time[16] 	0.004319500532
scalar tree_4_3_u00_r15_network.client[17] 	hdistance[17] 	2.817179144385
scalar tree_4_3_u00_r15_network.client[17] 	downloads[17] 	11968
scalar tree_4_3_u00_r15_network.client[17] 	avg_time[17] 	0.004259513544
scalar tree_4_3_u00_r15_network.client[18] 	hdistance[18] 	2.8400863500498
scalar tree_4_3_u00_r15_network.client[18] 	downloads[18] 	12044
scalar tree_4_3_u00_r15_network.client[18] 	avg_time[18] 	0.004297406495
scalar tree_4_3_u00_r15_network.client[19] 	hdistance[19] 	2.8587669073106
scalar tree_4_3_u00_r15_network.client[19] 	downloads[19] 	12051
scalar tree_4_3_u00_r15_network.client[19] 	avg_time[19] 	0.004324285424
scalar tree_4_3_u00_r15_network.client[20] 	hdistance[20] 	2.8261121696628
scalar tree_4_3_u00_r15_network.client[20] 	downloads[20] 	12071
scalar tree_4_3_u00_r15_network.client[20] 	avg_time[20] 	0.004273876507
scalar tree_4_3_u00_r15_network.client[21] 	hdistance[21] 	2.8592922585526
scalar tree_4_3_u00_r15_network.client[21] 	downloads[21] 	11897
scalar tree_4_3_u00_r15_network.client[21] 	avg_time[21] 	0.004323271785
scalar tree_4_3_u00_r15_network.client[22] 	hdistance[22] 	2.8323962295353
scalar tree_4_3_u00_r15_network.client[22] 	downloads[22] 	12094
scalar tree_4_3_u00_r15_network.client[22] 	avg_time[22] 	0.004280038184
scalar tree_4_3_u00_r15_network.client[23] 	hdistance[23] 	2.8048579662413
scalar tree_4_3_u00_r15_network.client[23] 	downloads[23] 	12145
scalar tree_4_3_u00_r15_network.client[23] 	avg_time[23] 	0.004242318798
scalar tree_4_3_u00_r15_network.client[24] 	hdistance[24] 	2.8275662251656
scalar tree_4_3_u00_r15_network.client[24] 	downloads[24] 	12080
scalar tree_4_3_u00_r15_network.client[24] 	avg_time[24] 	0.004276120603
scalar tree_4_3_u00_r15_network.client[25] 	hdistance[25] 	2.8263727121464
scalar tree_4_3_u00_r15_network.client[25] 	downloads[25] 	12020
scalar tree_4_3_u00_r15_network.client[25] 	avg_time[25] 	0.004274373032
scalar tree_4_3_u00_r15_network.client[26] 	hdistance[26] 	2.8037398643058
scalar tree_4_3_u00_r15_network.client[26] 	downloads[26] 	12086
scalar tree_4_3_u00_r15_network.client[26] 	avg_time[26] 	0.004238089604
scalar tree_4_3_u00_r15_network.client[27] 	hdistance[27] 	2.8222519211493
scalar tree_4_3_u00_r15_network.client[27] 	downloads[27] 	11972
scalar tree_4_3_u00_r15_network.client[27] 	avg_time[27] 	0.004268122616
scalar tree_4_3_u00_r15_network.client[28] 	hdistance[28] 	2.8123427804796
scalar tree_4_3_u00_r15_network.client[28] 	downloads[28] 	11926
scalar tree_4_3_u00_r15_network.client[28] 	avg_time[28] 	0.004252554458
scalar tree_4_3_u00_r15_network.client[29] 	hdistance[29] 	2.8708221925134
scalar tree_4_3_u00_r15_network.client[29] 	downloads[29] 	11968
scalar tree_4_3_u00_r15_network.client[29] 	avg_time[29] 	0.00434040476
scalar tree_4_3_u00_r15_network.client[30] 	hdistance[30] 	2.8301209845641
scalar tree_4_3_u00_r15_network.client[30] 	downloads[30] 	11985
scalar tree_4_3_u00_r15_network.client[30] 	avg_time[30] 	0.004278344974
scalar tree_4_3_u00_r15_network.client[31] 	hdistance[31] 	2.8139437911767
scalar tree_4_3_u00_r15_network.client[31] 	downloads[31] 	11991
scalar tree_4_3_u00_r15_network.client[31] 	avg_time[31] 	0.004254854789
scalar tree_4_3_u00_r15_network.client[32] 	hdistance[32] 	2.8412279254002
scalar tree_4_3_u00_r15_network.client[32] 	downloads[32] 	12118
scalar tree_4_3_u00_r15_network.client[32] 	avg_time[32] 	0.004294269986
scalar tree_4_3_u00_r15_network.client[33] 	hdistance[33] 	2.8300511187463
scalar tree_4_3_u00_r15_network.client[33] 	downloads[33] 	11933
scalar tree_4_3_u00_r15_network.client[33] 	avg_time[33] 	0.004281401513
scalar tree_4_3_u00_r15_network.client[34] 	hdistance[34] 	2.8446308724832
scalar tree_4_3_u00_r15_network.client[34] 	downloads[34] 	11920
scalar tree_4_3_u00_r15_network.client[34] 	avg_time[34] 	0.004299381595
scalar tree_4_3_u00_r15_network.client[35] 	hdistance[35] 	2.8299240210403
scalar tree_4_3_u00_r15_network.client[35] 	downloads[35] 	11977
scalar tree_4_3_u00_r15_network.client[35] 	avg_time[35] 	0.0042780299
scalar tree_4_3_u00_r15_network.client[36] 	hdistance[36] 	2.810372096895
scalar tree_4_3_u00_r15_network.client[36] 	downloads[36] 	12013
scalar tree_4_3_u00_r15_network.client[36] 	avg_time[36] 	0.004251391295
scalar tree_4_3_u00_r15_network.client[37] 	hdistance[37] 	2.8091730833612
scalar tree_4_3_u00_r15_network.client[37] 	downloads[37] 	11948
scalar tree_4_3_u00_r15_network.client[37] 	avg_time[37] 	0.004248239406
scalar tree_4_3_u00_r15_network.client[38] 	hdistance[38] 	2.8516204282263
scalar tree_4_3_u00_r15_network.client[38] 	downloads[38] 	12003
scalar tree_4_3_u00_r15_network.client[38] 	avg_time[38] 	0.00431025277
scalar tree_4_3_u00_r15_network.client[39] 	hdistance[39] 	2.8513216754778
scalar tree_4_3_u00_r15_network.client[39] 	downloads[39] 	12295
scalar tree_4_3_u00_r15_network.client[39] 	avg_time[39] 	0.004311336317
