version 2
run General-16-20160820-06:48:40-856
attr a 0.9
attr cd lcd
attr configname General
attr cr lru
attr datetime 20160820-06:48:40
attr experiment General
attr fsize 1
attr inifile hw5115/scenario_A/SPR-LCD.ini
attr iterationvars "$name=tree_4_3, $un=00, $rep=17, $cd=lcd, $cr=lru, $fsize=1, $a=0.9, $sl=spr, $ttl=1000, $variance=0.05"
attr iterationvars2 "$name=tree_4_3, $un=00, $rep=17, $cd=lcd, $cr=lru, $fsize=1, $a=0.9, $sl=spr, $ttl=1000, $variance=0.05, $repetition=0"
attr measurement "$name=tree_4_3, $un=00, $rep=17, $cd=lcd, $cr=lru, $fsize=1, $a=0.9, $sl=spr, $ttl=1000, $variance=0.05"
attr name tree_4_3
attr network networks.${name}_u${un}_r${rep}_network
attr processid 856
attr rep 17
attr repetition 0
attr replication #0
attr resultdir results
attr runnumber 16
attr seedset 17
attr sl spr
attr ttl 1000
attr un 00
attr variance 0.05

scalar . 	a 	0.9
scalar . 	fsize 	1
scalar . 	rep 	17
scalar . 	ttl 	1000
scalar . 	un 	00
scalar . 	variance 	0.05
scalar tree_4_3_u00_r17_network.content_distribution 	repo-0 	0
scalar tree_4_3_u00_r17_network.content_distribution 	client-0 	13
scalar tree_4_3_u00_r17_network.content_distribution 	client-1 	14
scalar tree_4_3_u00_r17_network.content_distribution 	client-2 	15
scalar tree_4_3_u00_r17_network.content_distribution 	client-3 	16
scalar tree_4_3_u00_r17_network.content_distribution 	client-4 	17
scalar tree_4_3_u00_r17_network.content_distribution 	client-5 	18
scalar tree_4_3_u00_r17_network.content_distribution 	client-6 	19
scalar tree_4_3_u00_r17_network.content_distribution 	client-7 	20
scalar tree_4_3_u00_r17_network.content_distribution 	client-8 	21
scalar tree_4_3_u00_r17_network.content_distribution 	client-9 	22
scalar tree_4_3_u00_r17_network.content_distribution 	client-10 	23
scalar tree_4_3_u00_r17_network.content_distribution 	client-11 	24
scalar tree_4_3_u00_r17_network.content_distribution 	client-12 	25
scalar tree_4_3_u00_r17_network.content_distribution 	client-13 	26
scalar tree_4_3_u00_r17_network.content_distribution 	client-14 	27
scalar tree_4_3_u00_r17_network.content_distribution 	client-15 	28
scalar tree_4_3_u00_r17_network.content_distribution 	client-16 	29
scalar tree_4_3_u00_r17_network.content_distribution 	client-17 	30
scalar tree_4_3_u00_r17_network.content_distribution 	client-18 	31
scalar tree_4_3_u00_r17_network.content_distribution 	client-19 	32
scalar tree_4_3_u00_r17_network.content_distribution 	client-20 	33
scalar tree_4_3_u00_r17_network.content_distribution 	client-21 	34
scalar tree_4_3_u00_r17_network.content_distribution 	client-22 	35
scalar tree_4_3_u00_r17_network.content_distribution 	client-23 	36
scalar tree_4_3_u00_r17_network.content_distribution 	client-24 	37
scalar tree_4_3_u00_r17_network.content_distribution 	client-25 	38
scalar tree_4_3_u00_r17_network.content_distribution 	client-26 	39
scalar tree_4_3_u00_r17_network.content_distribution 	repo-0_card 	100000
scalar tree_4_3_u00_r17_network.content_distribution 	repo-0_price 	0
scalar tree_4_3_u00_r17_network.statistics 	stabilization_time 	854.4
scalar tree_4_3_u00_r17_network.statistics 	p_hit 	0.18816742828516
scalar tree_4_3_u00_r17_network.statistics 	interests 	25509.15
scalar tree_4_3_u00_r17_network.statistics 	data 	17395.7
scalar tree_4_3_u00_r17_network.statistics 	hdistance 	2.8367691668746
scalar tree_4_3_u00_r17_network.statistics 	avg_time 	0.004288269365
scalar tree_4_3_u00_r17_network.statistics 	downloads 	324534
scalar tree_4_3_u00_r17_network.statistics 	total_cost 	0
scalar tree_4_3_u00_r17_network.statistics 	total_replicas 	100000
scalar tree_4_3_u00_r17_network.statistics 	inner_hit 	0.30742849747638
scalar tree_4_3_u00_r17_network.node[0].core_layer 	interests[0] 	226950
scalar tree_4_3_u00_r17_network.node[0].core_layer 	repo_load[0] 	224763
scalar tree_4_3_u00_r17_network.node[0].core_layer 	data[0] 	0
scalar tree_4_3_u00_r17_network.node[0].core_layer 	repo_int[0] 	224763
scalar tree_4_3_u00_r17_network.node[0].content_store 	p_hit[0] 	0.0096364838070059
scalar tree_4_3_u00_r17_network.node[0].content_store 	hits[0] 	2187
scalar tree_4_3_u00_r17_network.node[0].content_store 	misses[0] 	224763
scalar tree_4_3_u00_r17_network.node[0].content_store 	decision_yes[0] 	224763
scalar tree_4_3_u00_r17_network.node[0].content_store 	decision_no[0] 	0
scalar tree_4_3_u00_r17_network.node[0].content_store 	decision_ratio[0] 	1
scalar tree_4_3_u00_r17_network.node[1].core_layer 	interests[1] 	77300
scalar tree_4_3_u00_r17_network.node[1].core_layer 	data[1] 	76011
scalar tree_4_3_u00_r17_network.node[1].content_store 	p_hit[1] 	0.016636481241915
scalar tree_4_3_u00_r17_network.node[1].content_store 	hits[1] 	1286
scalar tree_4_3_u00_r17_network.node[1].content_store 	misses[1] 	76014
scalar tree_4_3_u00_r17_network.node[1].content_store 	decision_yes[1] 	720
scalar tree_4_3_u00_r17_network.node[1].content_store 	decision_no[1] 	75291
scalar tree_4_3_u00_r17_network.node[1].content_store 	decision_ratio[1] 	0.0094723132178237
scalar tree_4_3_u00_r17_network.node[2].core_layer 	interests[2] 	76840
scalar tree_4_3_u00_r17_network.node[2].core_layer 	data[2] 	75585
scalar tree_4_3_u00_r17_network.node[2].content_store 	p_hit[2] 	0.016319625195211
scalar tree_4_3_u00_r17_network.node[2].content_store 	hits[2] 	1254
scalar tree_4_3_u00_r17_network.node[2].content_store 	misses[2] 	75586
scalar tree_4_3_u00_r17_network.node[2].content_store 	decision_yes[2] 	736
scalar tree_4_3_u00_r17_network.node[2].content_store 	decision_no[2] 	74849
scalar tree_4_3_u00_r17_network.node[2].content_store 	decision_ratio[2] 	0.0097373817556393
scalar tree_4_3_u00_r17_network.node[3].core_layer 	interests[3] 	76650
scalar tree_4_3_u00_r17_network.node[3].core_layer 	data[3] 	75354
scalar tree_4_3_u00_r17_network.node[3].content_store 	p_hit[3] 	0.01689497716895
scalar tree_4_3_u00_r17_network.node[3].content_store 	hits[3] 	1295
scalar tree_4_3_u00_r17_network.node[3].content_store 	misses[3] 	75355
scalar tree_4_3_u00_r17_network.node[3].content_store 	decision_yes[3] 	731
scalar tree_4_3_u00_r17_network.node[3].content_store 	decision_no[3] 	74623
scalar tree_4_3_u00_r17_network.node[3].content_store 	decision_ratio[3] 	0.009700878520052
scalar tree_4_3_u00_r17_network.node[4].core_layer 	interests[4] 	26583
scalar tree_4_3_u00_r17_network.node[4].core_layer 	data[4] 	25797
scalar tree_4_3_u00_r17_network.node[4].content_store 	p_hit[4] 	0.029567768874845
scalar tree_4_3_u00_r17_network.node[4].content_store 	hits[4] 	786
scalar tree_4_3_u00_r17_network.node[4].content_store 	misses[4] 	25797
scalar tree_4_3_u00_r17_network.node[4].content_store 	decision_yes[4] 	425
scalar tree_4_3_u00_r17_network.node[4].content_store 	decision_no[4] 	25372
scalar tree_4_3_u00_r17_network.node[4].content_store 	decision_ratio[4] 	0.0164747838896
scalar tree_4_3_u00_r17_network.node[5].core_layer 	interests[5] 	26511
scalar tree_4_3_u00_r17_network.node[5].core_layer 	data[5] 	25720
scalar tree_4_3_u00_r17_network.node[5].content_store 	p_hit[5] 	0.029836671570292
scalar tree_4_3_u00_r17_network.node[5].content_store 	hits[5] 	791
scalar tree_4_3_u00_r17_network.node[5].content_store 	misses[5] 	25720
scalar tree_4_3_u00_r17_network.node[5].content_store 	decision_yes[5] 	421
scalar tree_4_3_u00_r17_network.node[5].content_store 	decision_no[5] 	25299
scalar tree_4_3_u00_r17_network.node[5].content_store 	decision_ratio[5] 	0.016368584758942
scalar tree_4_3_u00_r17_network.node[6].core_layer 	interests[6] 	26611
scalar tree_4_3_u00_r17_network.node[6].core_layer 	data[6] 	25783
scalar tree_4_3_u00_r17_network.node[6].content_store 	p_hit[6] 	0.031114952463267
scalar tree_4_3_u00_r17_network.node[6].content_store 	hits[6] 	828
scalar tree_4_3_u00_r17_network.node[6].content_store 	misses[6] 	25783
scalar tree_4_3_u00_r17_network.node[6].content_store 	decision_yes[6] 	440
scalar tree_4_3_u00_r17_network.node[6].content_store 	decision_no[6] 	25343
scalar tree_4_3_u00_r17_network.node[6].content_store 	decision_ratio[6] 	0.01706550828065
scalar tree_4_3_u00_r17_network.node[7].core_layer 	interests[7] 	26532
scalar tree_4_3_u00_r17_network.node[7].core_layer 	data[7] 	25730
scalar tree_4_3_u00_r17_network.node[7].content_store 	p_hit[7] 	0.030227649630635
scalar tree_4_3_u00_r17_network.node[7].content_store 	hits[7] 	802
scalar tree_4_3_u00_r17_network.node[7].content_store 	misses[7] 	25730
scalar tree_4_3_u00_r17_network.node[7].content_store 	decision_yes[7] 	412
scalar tree_4_3_u00_r17_network.node[7].content_store 	decision_no[7] 	25318
scalar tree_4_3_u00_r17_network.node[7].content_store 	decision_ratio[7] 	0.016012436844151
scalar tree_4_3_u00_r17_network.node[8].core_layer 	interests[8] 	26253
scalar tree_4_3_u00_r17_network.node[8].core_layer 	data[8] 	25415
scalar tree_4_3_u00_r17_network.node[8].content_store 	p_hit[8] 	0.031920161505352
scalar tree_4_3_u00_r17_network.node[8].content_store 	hits[8] 	838
scalar tree_4_3_u00_r17_network.node[8].content_store 	misses[8] 	25415
scalar tree_4_3_u00_r17_network.node[8].content_store 	decision_yes[8] 	423
scalar tree_4_3_u00_r17_network.node[8].content_store 	decision_no[8] 	24992
scalar tree_4_3_u00_r17_network.node[8].content_store 	decision_ratio[8] 	0.016643714341924
scalar tree_4_3_u00_r17_network.node[9].core_layer 	interests[9] 	26432
scalar tree_4_3_u00_r17_network.node[9].core_layer 	data[9] 	25695
scalar tree_4_3_u00_r17_network.node[9].content_store 	p_hit[9] 	0.027882869249395
scalar tree_4_3_u00_r17_network.node[9].content_store 	hits[9] 	737
scalar tree_4_3_u00_r17_network.node[9].content_store 	misses[9] 	25695
scalar tree_4_3_u00_r17_network.node[9].content_store 	decision_yes[9] 	419
scalar tree_4_3_u00_r17_network.node[9].content_store 	decision_no[9] 	25276
scalar tree_4_3_u00_r17_network.node[9].content_store 	decision_ratio[9] 	0.016306674450282
scalar tree_4_3_u00_r17_network.node[10].core_layer 	interests[10] 	26398
scalar tree_4_3_u00_r17_network.node[10].core_layer 	data[10] 	25587
scalar tree_4_3_u00_r17_network.node[10].content_store 	p_hit[10] 	0.030722024395788
scalar tree_4_3_u00_r17_network.node[10].content_store 	hits[10] 	811
scalar tree_4_3_u00_r17_network.node[10].content_store 	misses[10] 	25587
scalar tree_4_3_u00_r17_network.node[10].content_store 	decision_yes[10] 	431
scalar tree_4_3_u00_r17_network.node[10].content_store 	decision_no[10] 	25156
scalar tree_4_3_u00_r17_network.node[10].content_store 	decision_ratio[10] 	0.01684449134326
scalar tree_4_3_u00_r17_network.node[11].core_layer 	interests[11] 	26478
scalar tree_4_3_u00_r17_network.node[11].core_layer 	data[11] 	25627
scalar tree_4_3_u00_r17_network.node[11].content_store 	p_hit[11] 	0.032102122516806
scalar tree_4_3_u00_r17_network.node[11].content_store 	hits[11] 	850
scalar tree_4_3_u00_r17_network.node[11].content_store 	misses[11] 	25628
scalar tree_4_3_u00_r17_network.node[11].content_store 	decision_yes[11] 	433
scalar tree_4_3_u00_r17_network.node[11].content_store 	decision_no[11] 	25194
scalar tree_4_3_u00_r17_network.node[11].content_store 	decision_ratio[11] 	0.016896242244508
scalar tree_4_3_u00_r17_network.node[12].core_layer 	interests[12] 	26290
scalar tree_4_3_u00_r17_network.node[12].core_layer 	data[12] 	25436
scalar tree_4_3_u00_r17_network.node[12].content_store 	p_hit[12] 	0.032483834157474
scalar tree_4_3_u00_r17_network.node[12].content_store 	hits[12] 	854
scalar tree_4_3_u00_r17_network.node[12].content_store 	misses[12] 	25436
scalar tree_4_3_u00_r17_network.node[12].content_store 	decision_yes[12] 	431
scalar tree_4_3_u00_r17_network.node[12].content_store 	decision_no[12] 	25005
scalar tree_4_3_u00_r17_network.node[12].content_store 	decision_ratio[12] 	0.016944488127064
scalar tree_4_3_u00_r17_network.node[13].core_layer 	interests[13] 	12281
scalar tree_4_3_u00_r17_network.node[13].core_layer 	data[13] 	8927
scalar tree_4_3_u00_r17_network.node[13].content_store 	p_hit[13] 	0.27302336943246
scalar tree_4_3_u00_r17_network.node[13].content_store 	hits[13] 	3353
scalar tree_4_3_u00_r17_network.node[13].content_store 	misses[13] 	8928
scalar tree_4_3_u00_r17_network.node[13].content_store 	decision_yes[13] 	251
scalar tree_4_3_u00_r17_network.node[13].content_store 	decision_no[13] 	8676
scalar tree_4_3_u00_r17_network.node[13].content_store 	decision_ratio[13] 	0.028116948582951
scalar tree_4_3_u00_r17_network.node[14].core_layer 	interests[14] 	11882
scalar tree_4_3_u00_r17_network.node[14].core_layer 	data[14] 	8808
scalar tree_4_3_u00_r17_network.node[14].content_store 	p_hit[14] 	0.25871065477192
scalar tree_4_3_u00_r17_network.node[14].content_store 	hits[14] 	3074
scalar tree_4_3_u00_r17_network.node[14].content_store 	misses[14] 	8808
scalar tree_4_3_u00_r17_network.node[14].content_store 	decision_yes[14] 	246
scalar tree_4_3_u00_r17_network.node[14].content_store 	decision_no[14] 	8562
scalar tree_4_3_u00_r17_network.node[14].content_store 	decision_ratio[14] 	0.027929155313351
scalar tree_4_3_u00_r17_network.node[15].core_layer 	interests[15] 	12035
scalar tree_4_3_u00_r17_network.node[15].core_layer 	data[15] 	8848
scalar tree_4_3_u00_r17_network.node[15].content_store 	p_hit[15] 	0.26481096800997
scalar tree_4_3_u00_r17_network.node[15].content_store 	hits[15] 	3187
scalar tree_4_3_u00_r17_network.node[15].content_store 	misses[15] 	8848
scalar tree_4_3_u00_r17_network.node[15].content_store 	decision_yes[15] 	289
scalar tree_4_3_u00_r17_network.node[15].content_store 	decision_no[15] 	8559
scalar tree_4_3_u00_r17_network.node[15].content_store 	decision_ratio[15] 	0.032662748643761
scalar tree_4_3_u00_r17_network.node[16].core_layer 	interests[16] 	11977
scalar tree_4_3_u00_r17_network.node[16].core_layer 	data[16] 	8699
scalar tree_4_3_u00_r17_network.node[16].content_store 	p_hit[16] 	0.2736912415463
scalar tree_4_3_u00_r17_network.node[16].content_store 	hits[16] 	3278
scalar tree_4_3_u00_r17_network.node[16].content_store 	misses[16] 	8699
scalar tree_4_3_u00_r17_network.node[16].content_store 	decision_yes[16] 	267
scalar tree_4_3_u00_r17_network.node[16].content_store 	decision_no[16] 	8432
scalar tree_4_3_u00_r17_network.node[16].content_store 	decision_ratio[16] 	0.030693183124497
scalar tree_4_3_u00_r17_network.node[17].core_layer 	interests[17] 	12182
scalar tree_4_3_u00_r17_network.node[17].core_layer 	data[17] 	9016
scalar tree_4_3_u00_r17_network.node[17].content_store 	p_hit[17] 	0.25989164340831
scalar tree_4_3_u00_r17_network.node[17].content_store 	hits[17] 	3166
scalar tree_4_3_u00_r17_network.node[17].content_store 	misses[17] 	9016
scalar tree_4_3_u00_r17_network.node[17].content_store 	decision_yes[17] 	262
scalar tree_4_3_u00_r17_network.node[17].content_store 	decision_no[17] 	8754
scalar tree_4_3_u00_r17_network.node[17].content_store 	decision_ratio[17] 	0.029059449866903
scalar tree_4_3_u00_r17_network.node[18].core_layer 	interests[18] 	12203
scalar tree_4_3_u00_r17_network.node[18].core_layer 	data[18] 	8796
scalar tree_4_3_u00_r17_network.node[18].content_store 	p_hit[18] 	0.27919364090797
scalar tree_4_3_u00_r17_network.node[18].content_store 	hits[18] 	3407
scalar tree_4_3_u00_r17_network.node[18].content_store 	misses[18] 	8796
scalar tree_4_3_u00_r17_network.node[18].content_store 	decision_yes[18] 	262
scalar tree_4_3_u00_r17_network.node[18].content_store 	decision_no[18] 	8534
scalar tree_4_3_u00_r17_network.node[18].content_store 	decision_ratio[18] 	0.029786266484766
scalar tree_4_3_u00_r17_network.node[19].core_layer 	interests[19] 	12178
scalar tree_4_3_u00_r17_network.node[19].core_layer 	data[19] 	8873
scalar tree_4_3_u00_r17_network.node[19].content_store 	p_hit[19] 	0.27139103301035
scalar tree_4_3_u00_r17_network.node[19].content_store 	hits[19] 	3305
scalar tree_4_3_u00_r17_network.node[19].content_store 	misses[19] 	8873
scalar tree_4_3_u00_r17_network.node[19].content_store 	decision_yes[19] 	276
scalar tree_4_3_u00_r17_network.node[19].content_store 	decision_no[19] 	8597
scalar tree_4_3_u00_r17_network.node[19].content_store 	decision_ratio[19] 	0.031105601262256
scalar tree_4_3_u00_r17_network.node[20].core_layer 	interests[20] 	12088
scalar tree_4_3_u00_r17_network.node[20].core_layer 	data[20] 	8980
scalar tree_4_3_u00_r17_network.node[20].content_store 	p_hit[20] 	0.25711449371277
scalar tree_4_3_u00_r17_network.node[20].content_store 	hits[20] 	3108
scalar tree_4_3_u00_r17_network.node[20].content_store 	misses[20] 	8980
scalar tree_4_3_u00_r17_network.node[20].content_store 	decision_yes[20] 	287
scalar tree_4_3_u00_r17_network.node[20].content_store 	decision_no[20] 	8693
scalar tree_4_3_u00_r17_network.node[20].content_store 	decision_ratio[20] 	0.03195991091314
scalar tree_4_3_u00_r17_network.node[21].core_layer 	interests[21] 	11852
scalar tree_4_3_u00_r17_network.node[21].core_layer 	data[21] 	8758
scalar tree_4_3_u00_r17_network.node[21].content_store 	p_hit[21] 	0.26096861289234
scalar tree_4_3_u00_r17_network.node[21].content_store 	hits[21] 	3093
scalar tree_4_3_u00_r17_network.node[21].content_store 	misses[21] 	8759
scalar tree_4_3_u00_r17_network.node[21].content_store 	decision_yes[21] 	265
scalar tree_4_3_u00_r17_network.node[21].content_store 	decision_no[21] 	8493
scalar tree_4_3_u00_r17_network.node[21].content_store 	decision_ratio[21] 	0.030258049783055
scalar tree_4_3_u00_r17_network.node[22].core_layer 	interests[22] 	11932
scalar tree_4_3_u00_r17_network.node[22].core_layer 	data[22] 	8864
scalar tree_4_3_u00_r17_network.node[22].content_store 	p_hit[22] 	0.25712370097218
scalar tree_4_3_u00_r17_network.node[22].content_store 	hits[22] 	3068
scalar tree_4_3_u00_r17_network.node[22].content_store 	misses[22] 	8864
scalar tree_4_3_u00_r17_network.node[22].content_store 	decision_yes[22] 	271
scalar tree_4_3_u00_r17_network.node[22].content_store 	decision_no[22] 	8593
scalar tree_4_3_u00_r17_network.node[22].content_store 	decision_ratio[22] 	0.030573104693141
scalar tree_4_3_u00_r17_network.node[23].core_layer 	interests[23] 	11992
scalar tree_4_3_u00_r17_network.node[23].core_layer 	data[23] 	8860
scalar tree_4_3_u00_r17_network.node[23].content_store 	p_hit[23] 	0.26117411607738
scalar tree_4_3_u00_r17_network.node[23].content_store 	hits[23] 	3132
scalar tree_4_3_u00_r17_network.node[23].content_store 	misses[23] 	8860
scalar tree_4_3_u00_r17_network.node[23].content_store 	decision_yes[23] 	270
scalar tree_4_3_u00_r17_network.node[23].content_store 	decision_no[23] 	8590
scalar tree_4_3_u00_r17_network.node[23].content_store 	decision_ratio[23] 	0.030474040632054
scalar tree_4_3_u00_r17_network.node[24].core_layer 	interests[24] 	11891
scalar tree_4_3_u00_r17_network.node[24].core_layer 	data[24] 	8808
scalar tree_4_3_u00_r17_network.node[24].content_store 	p_hit[24] 	0.25927171810613
scalar tree_4_3_u00_r17_network.node[24].content_store 	hits[24] 	3083
scalar tree_4_3_u00_r17_network.node[24].content_store 	misses[24] 	8808
scalar tree_4_3_u00_r17_network.node[24].content_store 	decision_yes[24] 	261
scalar tree_4_3_u00_r17_network.node[24].content_store 	decision_no[24] 	8547
scalar tree_4_3_u00_r17_network.node[24].content_store 	decision_ratio[24] 	0.029632152588556
scalar tree_4_3_u00_r17_network.node[25].core_layer 	interests[25] 	12055
scalar tree_4_3_u00_r17_network.node[25].core_layer 	data[25] 	8721
scalar tree_4_3_u00_r17_network.node[25].content_store 	p_hit[25] 	0.2765657403567
scalar tree_4_3_u00_r17_network.node[25].content_store 	hits[25] 	3334
scalar tree_4_3_u00_r17_network.node[25].content_store 	misses[25] 	8721
scalar tree_4_3_u00_r17_network.node[25].content_store 	decision_yes[25] 	280
scalar tree_4_3_u00_r17_network.node[25].content_store 	decision_no[25] 	8441
scalar tree_4_3_u00_r17_network.node[25].content_store 	decision_ratio[25] 	0.032106409815388
scalar tree_4_3_u00_r17_network.node[26].core_layer 	interests[26] 	11836
scalar tree_4_3_u00_r17_network.node[26].core_layer 	data[26] 	8641
scalar tree_4_3_u00_r17_network.node[26].content_store 	p_hit[26] 	0.26993916863805
scalar tree_4_3_u00_r17_network.node[26].content_store 	hits[26] 	3195
scalar tree_4_3_u00_r17_network.node[26].content_store 	misses[26] 	8641
scalar tree_4_3_u00_r17_network.node[26].content_store 	decision_yes[26] 	281
scalar tree_4_3_u00_r17_network.node[26].content_store 	decision_no[26] 	8360
scalar tree_4_3_u00_r17_network.node[26].content_store 	decision_ratio[26] 	0.032519384330517
scalar tree_4_3_u00_r17_network.node[27].core_layer 	interests[27] 	11961
scalar tree_4_3_u00_r17_network.node[27].core_layer 	data[27] 	8891
scalar tree_4_3_u00_r17_network.node[27].content_store 	p_hit[27] 	0.25666750271716
scalar tree_4_3_u00_r17_network.node[27].content_store 	hits[27] 	3070
scalar tree_4_3_u00_r17_network.node[27].content_store 	misses[27] 	8891
scalar tree_4_3_u00_r17_network.node[27].content_store 	decision_yes[27] 	277
scalar tree_4_3_u00_r17_network.node[27].content_store 	decision_no[27] 	8614
scalar tree_4_3_u00_r17_network.node[27].content_store 	decision_ratio[27] 	0.031155100663592
scalar tree_4_3_u00_r17_network.node[28].core_layer 	interests[28] 	12001
scalar tree_4_3_u00_r17_network.node[28].core_layer 	data[28] 	8817
scalar tree_4_3_u00_r17_network.node[28].content_store 	p_hit[28] 	0.26531122406466
scalar tree_4_3_u00_r17_network.node[28].content_store 	hits[28] 	3184
scalar tree_4_3_u00_r17_network.node[28].content_store 	misses[28] 	8817
scalar tree_4_3_u00_r17_network.node[28].content_store 	decision_yes[28] 	247
scalar tree_4_3_u00_r17_network.node[28].content_store 	decision_no[28] 	8570
scalar tree_4_3_u00_r17_network.node[28].content_store 	decision_ratio[28] 	0.028014063740501
scalar tree_4_3_u00_r17_network.node[29].core_layer 	interests[29] 	11964
scalar tree_4_3_u00_r17_network.node[29].core_layer 	data[29] 	8811
scalar tree_4_3_u00_r17_network.node[29].content_store 	p_hit[29] 	0.26345703778001
scalar tree_4_3_u00_r17_network.node[29].content_store 	hits[29] 	3152
scalar tree_4_3_u00_r17_network.node[29].content_store 	misses[29] 	8812
scalar tree_4_3_u00_r17_network.node[29].content_store 	decision_yes[29] 	261
scalar tree_4_3_u00_r17_network.node[29].content_store 	decision_no[29] 	8550
scalar tree_4_3_u00_r17_network.node[29].content_store 	decision_ratio[29] 	0.029622063329928
scalar tree_4_3_u00_r17_network.node[30].core_layer 	interests[30] 	12058
scalar tree_4_3_u00_r17_network.node[30].core_layer 	data[30] 	8804
scalar tree_4_3_u00_r17_network.node[30].content_store 	p_hit[30] 	0.2698623320617
scalar tree_4_3_u00_r17_network.node[30].content_store 	hits[30] 	3254
scalar tree_4_3_u00_r17_network.node[30].content_store 	misses[30] 	8804
scalar tree_4_3_u00_r17_network.node[30].content_store 	decision_yes[30] 	229
scalar tree_4_3_u00_r17_network.node[30].content_store 	decision_no[30] 	8575
scalar tree_4_3_u00_r17_network.node[30].content_store 	decision_ratio[30] 	0.026010904134484
scalar tree_4_3_u00_r17_network.node[31].core_layer 	interests[31] 	12059
scalar tree_4_3_u00_r17_network.node[31].core_layer 	data[31] 	8796
scalar tree_4_3_u00_r17_network.node[31].content_store 	p_hit[31] 	0.27058628410316
scalar tree_4_3_u00_r17_network.node[31].content_store 	hits[31] 	3263
scalar tree_4_3_u00_r17_network.node[31].content_store 	misses[31] 	8796
scalar tree_4_3_u00_r17_network.node[31].content_store 	decision_yes[31] 	287
scalar tree_4_3_u00_r17_network.node[31].content_store 	decision_no[31] 	8509
scalar tree_4_3_u00_r17_network.node[31].content_store 	decision_ratio[31] 	0.032628467485221
scalar tree_4_3_u00_r17_network.node[32].core_layer 	interests[32] 	12066
scalar tree_4_3_u00_r17_network.node[32].core_layer 	data[32] 	8804
scalar tree_4_3_u00_r17_network.node[32].content_store 	p_hit[32] 	0.27034642797945
scalar tree_4_3_u00_r17_network.node[32].content_store 	hits[32] 	3262
scalar tree_4_3_u00_r17_network.node[32].content_store 	misses[32] 	8804
scalar tree_4_3_u00_r17_network.node[32].content_store 	decision_yes[32] 	265
scalar tree_4_3_u00_r17_network.node[32].content_store 	decision_no[32] 	8539
scalar tree_4_3_u00_r17_network.node[32].content_store 	decision_ratio[32] 	0.030099954566106
scalar tree_4_3_u00_r17_network.node[33].core_layer 	interests[33] 	11968
scalar tree_4_3_u00_r17_network.node[33].core_layer 	data[33] 	8798
scalar tree_4_3_u00_r17_network.node[33].content_store 	p_hit[33] 	0.26487299465241
scalar tree_4_3_u00_r17_network.node[33].content_store 	hits[33] 	3170
scalar tree_4_3_u00_r17_network.node[33].content_store 	misses[33] 	8798
scalar tree_4_3_u00_r17_network.node[33].content_store 	decision_yes[33] 	259
scalar tree_4_3_u00_r17_network.node[33].content_store 	decision_no[33] 	8539
scalar tree_4_3_u00_r17_network.node[33].content_store 	decision_ratio[33] 	0.029438508751989
scalar tree_4_3_u00_r17_network.node[34].core_layer 	interests[34] 	11887
scalar tree_4_3_u00_r17_network.node[34].core_layer 	data[34] 	8667
scalar tree_4_3_u00_r17_network.node[34].content_store 	p_hit[34] 	0.27088415916547
scalar tree_4_3_u00_r17_network.node[34].content_store 	hits[34] 	3220
scalar tree_4_3_u00_r17_network.node[34].content_store 	misses[34] 	8667
scalar tree_4_3_u00_r17_network.node[34].content_store 	decision_yes[34] 	274
scalar tree_4_3_u00_r17_network.node[34].content_store 	decision_no[34] 	8393
scalar tree_4_3_u00_r17_network.node[34].content_store 	decision_ratio[34] 	0.03161416868582
scalar tree_4_3_u00_r17_network.node[35].core_layer 	interests[35] 	12181
scalar tree_4_3_u00_r17_network.node[35].core_layer 	data[35] 	8954
scalar tree_4_3_u00_r17_network.node[35].content_store 	p_hit[35] 	0.26483868319514
scalar tree_4_3_u00_r17_network.node[35].content_store 	hits[35] 	3226
scalar tree_4_3_u00_r17_network.node[35].content_store 	misses[35] 	8955
scalar tree_4_3_u00_r17_network.node[35].content_store 	decision_yes[35] 	277
scalar tree_4_3_u00_r17_network.node[35].content_store 	decision_no[35] 	8677
scalar tree_4_3_u00_r17_network.node[35].content_store 	decision_ratio[35] 	0.030935894572258
scalar tree_4_3_u00_r17_network.node[36].core_layer 	interests[36] 	12060
scalar tree_4_3_u00_r17_network.node[36].core_layer 	data[36] 	8857
scalar tree_4_3_u00_r17_network.node[36].content_store 	p_hit[36] 	0.26558872305141
scalar tree_4_3_u00_r17_network.node[36].content_store 	hits[36] 	3203
scalar tree_4_3_u00_r17_network.node[36].content_store 	misses[36] 	8857
scalar tree_4_3_u00_r17_network.node[36].content_store 	decision_yes[36] 	299
scalar tree_4_3_u00_r17_network.node[36].content_store 	decision_no[36] 	8558
scalar tree_4_3_u00_r17_network.node[36].content_store 	decision_ratio[36] 	0.033758609009823
scalar tree_4_3_u00_r17_network.node[37].core_layer 	interests[37] 	11893
scalar tree_4_3_u00_r17_network.node[37].core_layer 	data[37] 	8684
scalar tree_4_3_u00_r17_network.node[37].content_store 	p_hit[37] 	0.2698225847137
scalar tree_4_3_u00_r17_network.node[37].content_store 	hits[37] 	3209
scalar tree_4_3_u00_r17_network.node[37].content_store 	misses[37] 	8684
scalar tree_4_3_u00_r17_network.node[37].content_store 	decision_yes[37] 	267
scalar tree_4_3_u00_r17_network.node[37].content_store 	decision_no[37] 	8417
scalar tree_4_3_u00_r17_network.node[37].content_store 	decision_ratio[37] 	0.030746199907877
scalar tree_4_3_u00_r17_network.node[38].core_layer 	interests[38] 	12037
scalar tree_4_3_u00_r17_network.node[38].core_layer 	data[38] 	8767
scalar tree_4_3_u00_r17_network.node[38].content_store 	p_hit[38] 	0.27166237434577
scalar tree_4_3_u00_r17_network.node[38].content_store 	hits[38] 	3270
scalar tree_4_3_u00_r17_network.node[38].content_store 	misses[38] 	8767
scalar tree_4_3_u00_r17_network.node[38].content_store 	decision_yes[38] 	294
scalar tree_4_3_u00_r17_network.node[38].content_store 	decision_no[38] 	8473
scalar tree_4_3_u00_r17_network.node[38].content_store 	decision_ratio[38] 	0.03353484658378
scalar tree_4_3_u00_r17_network.node[39].core_layer 	interests[39] 	12019
scalar tree_4_3_u00_r17_network.node[39].core_layer 	data[39] 	8839
scalar tree_4_3_u00_r17_network.node[39].content_store 	p_hit[39] 	0.26458107995674
scalar tree_4_3_u00_r17_network.node[39].content_store 	hits[39] 	3180
scalar tree_4_3_u00_r17_network.node[39].content_store 	misses[39] 	8839
scalar tree_4_3_u00_r17_network.node[39].content_store 	decision_yes[39] 	293
scalar tree_4_3_u00_r17_network.node[39].content_store 	decision_no[39] 	8546
scalar tree_4_3_u00_r17_network.node[39].content_store 	decision_ratio[39] 	0.033148546215635
scalar tree_4_3_u00_r17_network.client[13] 	hdistance[13] 	2.8160423452769
scalar tree_4_3_u00_r17_network.client[13] 	downloads[13] 	12280
scalar tree_4_3_u00_r17_network.client[13] 	avg_time[13] 	0.004256239549
scalar tree_4_3_u00_r17_network.client[14] 	hdistance[14] 	2.8745160747349
scalar tree_4_3_u00_r17_network.client[14] 	downloads[14] 	11882
scalar tree_4_3_u00_r17_network.client[14] 	avg_time[14] 	0.004343205227
scalar tree_4_3_u00_r17_network.client[15] 	hdistance[15] 	2.8369754881596
scalar tree_4_3_u00_r17_network.client[15] 	downloads[15] 	12035
scalar tree_4_3_u00_r17_network.client[15] 	avg_time[15] 	0.004289818336
scalar tree_4_3_u00_r17_network.client[16] 	hdistance[16] 	2.8089671871086
scalar tree_4_3_u00_r17_network.client[16] 	downloads[16] 	11977
scalar tree_4_3_u00_r17_network.client[16] 	avg_time[16] 	0.004245968401
scalar tree_4_3_u00_r17_network.client[17] 	hdistance[17] 	2.8670169101954
scalar tree_4_3_u00_r17_network.client[17] 	downloads[17] 	12182
scalar tree_4_3_u00_r17_network.client[17] 	avg_time[17] 	0.00433086999
scalar tree_4_3_u00_r17_network.client[18] 	hdistance[18] 	2.7889863148406
scalar tree_4_3_u00_r17_network.client[18] 	downloads[18] 	12203
scalar tree_4_3_u00_r17_network.client[18] 	avg_time[18] 	0.004215845511
scalar tree_4_3_u00_r17_network.client[19] 	hdistance[19] 	2.817868287075
scalar tree_4_3_u00_r17_network.client[19] 	downloads[19] 	12178
scalar tree_4_3_u00_r17_network.client[19] 	avg_time[19] 	0.004258359952
scalar tree_4_3_u00_r17_network.client[20] 	hdistance[20] 	2.8673891462608
scalar tree_4_3_u00_r17_network.client[20] 	downloads[20] 	12088
scalar tree_4_3_u00_r17_network.client[20] 	avg_time[20] 	0.004336363646
scalar tree_4_3_u00_r17_network.client[21] 	hdistance[21] 	2.8566365707535
scalar tree_4_3_u00_r17_network.client[21] 	downloads[21] 	11851
scalar tree_4_3_u00_r17_network.client[21] 	avg_time[21] 	0.004319754037
scalar tree_4_3_u00_r17_network.client[22] 	hdistance[22] 	2.8700134093195
scalar tree_4_3_u00_r17_network.client[22] 	downloads[22] 	11932
scalar tree_4_3_u00_r17_network.client[22] 	avg_time[22] 	0.004340761365
scalar tree_4_3_u00_r17_network.client[23] 	hdistance[23] 	2.8557371581054
scalar tree_4_3_u00_r17_network.client[23] 	downloads[23] 	11992
scalar tree_4_3_u00_r17_network.client[23] 	avg_time[23] 	0.004318375938
scalar tree_4_3_u00_r17_network.client[24] 	hdistance[24] 	2.8709107728534
scalar tree_4_3_u00_r17_network.client[24] 	downloads[24] 	11891
scalar tree_4_3_u00_r17_network.client[24] 	avg_time[24] 	0.004337731443
scalar tree_4_3_u00_r17_network.client[25] 	hdistance[25] 	2.7931978432186
scalar tree_4_3_u00_r17_network.client[25] 	downloads[25] 	12055
scalar tree_4_3_u00_r17_network.client[25] 	avg_time[25] 	0.004224136333
scalar tree_4_3_u00_r17_network.client[26] 	hdistance[26] 	2.8161541061169
scalar tree_4_3_u00_r17_network.client[26] 	downloads[26] 	11836
scalar tree_4_3_u00_r17_network.client[26] 	avg_time[26] 	0.004259713196
scalar tree_4_3_u00_r17_network.client[27] 	hdistance[27] 	2.8756792910292
scalar tree_4_3_u00_r17_network.client[27] 	downloads[27] 	11961
scalar tree_4_3_u00_r17_network.client[27] 	avg_time[27] 	0.004345787472
scalar tree_4_3_u00_r17_network.client[28] 	hdistance[28] 	2.8485959503375
scalar tree_4_3_u00_r17_network.client[28] 	downloads[28] 	12001
scalar tree_4_3_u00_r17_network.client[28] 	avg_time[28] 	0.004303471713
scalar tree_4_3_u00_r17_network.client[29] 	hdistance[29] 	2.848867340968
scalar tree_4_3_u00_r17_network.client[29] 	downloads[29] 	11963
scalar tree_4_3_u00_r17_network.client[29] 	avg_time[29] 	0.004305993198
scalar tree_4_3_u00_r17_network.client[30] 	hdistance[30] 	2.8360424614364
scalar tree_4_3_u00_r17_network.client[30] 	downloads[30] 	12058
scalar tree_4_3_u00_r17_network.client[30] 	avg_time[30] 	0.004283128514
scalar tree_4_3_u00_r17_network.client[31] 	hdistance[31] 	2.8151588025541
scalar tree_4_3_u00_r17_network.client[31] 	downloads[31] 	12059
scalar tree_4_3_u00_r17_network.client[31] 	avg_time[31] 	0.004258227368
scalar tree_4_3_u00_r17_network.client[32] 	hdistance[32] 	2.8239681750373
scalar tree_4_3_u00_r17_network.client[32] 	downloads[32] 	12066
scalar tree_4_3_u00_r17_network.client[32] 	avg_time[32] 	0.004267525572
scalar tree_4_3_u00_r17_network.client[33] 	hdistance[33] 	2.8434993315508
scalar tree_4_3_u00_r17_network.client[33] 	downloads[33] 	11968
scalar tree_4_3_u00_r17_network.client[33] 	avg_time[33] 	0.004298125379
scalar tree_4_3_u00_r17_network.client[34] 	hdistance[34] 	2.8199713973248
scalar tree_4_3_u00_r17_network.client[34] 	downloads[34] 	11887
scalar tree_4_3_u00_r17_network.client[34] 	avg_time[34] 	0.004260366519
scalar tree_4_3_u00_r17_network.client[35] 	hdistance[35] 	2.8416256157635
scalar tree_4_3_u00_r17_network.client[35] 	downloads[35] 	12180
scalar tree_4_3_u00_r17_network.client[35] 	avg_time[35] 	0.004296267744
scalar tree_4_3_u00_r17_network.client[36] 	hdistance[36] 	2.8293532338309
scalar tree_4_3_u00_r17_network.client[36] 	downloads[36] 	12060
scalar tree_4_3_u00_r17_network.client[36] 	avg_time[36] 	0.004280595278
scalar tree_4_3_u00_r17_network.client[37] 	hdistance[37] 	2.8226687967712
scalar tree_4_3_u00_r17_network.client[37] 	downloads[37] 	11893
scalar tree_4_3_u00_r17_network.client[37] 	avg_time[37] 	0.00426687669
scalar tree_4_3_u00_r17_network.client[38] 	hdistance[38] 	2.8112486499959
scalar tree_4_3_u00_r17_network.client[38] 	downloads[38] 	12037
scalar tree_4_3_u00_r17_network.client[38] 	avg_time[38] 	0.004249893121
scalar tree_4_3_u00_r17_network.client[39] 	hdistance[39] 	2.8356768449954
scalar tree_4_3_u00_r17_network.client[39] 	downloads[39] 	12019
scalar tree_4_3_u00_r17_network.client[39] 	avg_time[39] 	0.004289871368
