version 2
run General-1-20160820-06:33:08-856
attr a 0.9
attr cd lcd
attr configname General
attr cr lru
attr datetime 20160820-06:33:08
attr experiment General
attr fsize 1
attr inifile hw5115/scenario_A/SPR-LCD.ini
attr iterationvars "$name=tree_4_3, $un=00, $rep=2, $cd=lcd, $cr=lru, $fsize=1, $a=0.9, $sl=spr, $ttl=1000, $variance=0.05"
attr iterationvars2 "$name=tree_4_3, $un=00, $rep=2, $cd=lcd, $cr=lru, $fsize=1, $a=0.9, $sl=spr, $ttl=1000, $variance=0.05, $repetition=0"
attr measurement "$name=tree_4_3, $un=00, $rep=2, $cd=lcd, $cr=lru, $fsize=1, $a=0.9, $sl=spr, $ttl=1000, $variance=0.05"
attr name tree_4_3
attr network networks.${name}_u${un}_r${rep}_network
attr processid 856
attr rep 2
attr repetition 0
attr replication #0
attr resultdir results
attr runnumber 1
attr seedset 2
attr sl spr
attr ttl 1000
attr un 00
attr variance 0.05

scalar . 	a 	0.9
scalar . 	fsize 	1
scalar . 	rep 	2
scalar . 	ttl 	1000
scalar . 	un 	00
scalar . 	variance 	0.05
scalar tree_4_3_u00_r2_network.content_distribution 	repo-0 	0
scalar tree_4_3_u00_r2_network.content_distribution 	client-0 	13
scalar tree_4_3_u00_r2_network.content_distribution 	client-1 	14
scalar tree_4_3_u00_r2_network.content_distribution 	client-2 	15
scalar tree_4_3_u00_r2_network.content_distribution 	client-3 	16
scalar tree_4_3_u00_r2_network.content_distribution 	client-4 	17
scalar tree_4_3_u00_r2_network.content_distribution 	client-5 	18
scalar tree_4_3_u00_r2_network.content_distribution 	client-6 	19
scalar tree_4_3_u00_r2_network.content_distribution 	client-7 	20
scalar tree_4_3_u00_r2_network.content_distribution 	client-8 	21
scalar tree_4_3_u00_r2_network.content_distribution 	client-9 	22
scalar tree_4_3_u00_r2_network.content_distribution 	client-10 	23
scalar tree_4_3_u00_r2_network.content_distribution 	client-11 	24
scalar tree_4_3_u00_r2_network.content_distribution 	client-12 	25
scalar tree_4_3_u00_r2_network.content_distribution 	client-13 	26
scalar tree_4_3_u00_r2_network.content_distribution 	client-14 	27
scalar tree_4_3_u00_r2_network.content_distribution 	client-15 	28
scalar tree_4_3_u00_r2_network.content_distribution 	client-16 	29
scalar tree_4_3_u00_r2_network.content_distribution 	client-17 	30
scalar tree_4_3_u00_r2_network.content_distribution 	client-18 	31
scalar tree_4_3_u00_r2_network.content_distribution 	client-19 	32
scalar tree_4_3_u00_r2_network.content_distribution 	client-20 	33
scalar tree_4_3_u00_r2_network.content_distribution 	client-21 	34
scalar tree_4_3_u00_r2_network.content_distribution 	client-22 	35
scalar tree_4_3_u00_r2_network.content_distribution 	client-23 	36
scalar tree_4_3_u00_r2_network.content_distribution 	client-24 	37
scalar tree_4_3_u00_r2_network.content_distribution 	client-25 	38
scalar tree_4_3_u00_r2_network.content_distribution 	client-26 	39
scalar tree_4_3_u00_r2_network.content_distribution 	repo-0_card 	100000
scalar tree_4_3_u00_r2_network.content_distribution 	repo-0_price 	0
scalar tree_4_3_u00_r2_network.statistics 	stabilization_time 	868.5
scalar tree_4_3_u00_r2_network.statistics 	p_hit 	0.18790561671811
scalar tree_4_3_u00_r2_network.statistics 	interests 	25454.275
scalar tree_4_3_u00_r2_network.statistics 	data 	17360.975
scalar tree_4_3_u00_r2_network.statistics 	hdistance 	2.8376240048282
scalar tree_4_3_u00_r2_network.statistics 	avg_time 	0.004290094433
scalar tree_4_3_u00_r2_network.statistics 	downloads 	323740
scalar tree_4_3_u00_r2_network.statistics 	total_cost 	0
scalar tree_4_3_u00_r2_network.statistics 	total_replicas 	100000
scalar tree_4_3_u00_r2_network.statistics 	inner_hit 	0.30748131216408
scalar tree_4_3_u00_r2_network.node[0].core_layer 	interests[0] 	226411
scalar tree_4_3_u00_r2_network.node[0].core_layer 	repo_load[0] 	224196
scalar tree_4_3_u00_r2_network.node[0].core_layer 	data[0] 	0
scalar tree_4_3_u00_r2_network.node[0].core_layer 	repo_int[0] 	224196
scalar tree_4_3_u00_r2_network.node[0].content_store 	p_hit[0] 	0.0097830935776089
scalar tree_4_3_u00_r2_network.node[0].content_store 	hits[0] 	2215
scalar tree_4_3_u00_r2_network.node[0].content_store 	misses[0] 	224196
scalar tree_4_3_u00_r2_network.node[0].content_store 	decision_yes[0] 	224196
scalar tree_4_3_u00_r2_network.node[0].content_store 	decision_no[0] 	0
scalar tree_4_3_u00_r2_network.node[0].content_store 	decision_ratio[0] 	1
scalar tree_4_3_u00_r2_network.node[1].core_layer 	interests[1] 	76878
scalar tree_4_3_u00_r2_network.node[1].core_layer 	data[1] 	75561
scalar tree_4_3_u00_r2_network.node[1].content_store 	p_hit[1] 	0.01713103878873
scalar tree_4_3_u00_r2_network.node[1].content_store 	hits[1] 	1317
scalar tree_4_3_u00_r2_network.node[1].content_store 	misses[1] 	75561
scalar tree_4_3_u00_r2_network.node[1].content_store 	decision_yes[1] 	756
scalar tree_4_3_u00_r2_network.node[1].content_store 	decision_no[1] 	74805
scalar tree_4_3_u00_r2_network.node[1].content_store 	decision_ratio[1] 	0.010005161392782
scalar tree_4_3_u00_r2_network.node[2].core_layer 	interests[2] 	76867
scalar tree_4_3_u00_r2_network.node[2].core_layer 	data[2] 	75538
scalar tree_4_3_u00_r2_network.node[2].content_store 	p_hit[2] 	0.017289604121405
scalar tree_4_3_u00_r2_network.node[2].content_store 	hits[2] 	1329
scalar tree_4_3_u00_r2_network.node[2].content_store 	misses[2] 	75538
scalar tree_4_3_u00_r2_network.node[2].content_store 	decision_yes[2] 	736
scalar tree_4_3_u00_r2_network.node[2].content_store 	decision_no[2] 	74802
scalar tree_4_3_u00_r2_network.node[2].content_store 	decision_ratio[2] 	0.0097434403876195
scalar tree_4_3_u00_r2_network.node[3].core_layer 	interests[3] 	76609
scalar tree_4_3_u00_r2_network.node[3].core_layer 	data[3] 	75314
scalar tree_4_3_u00_r2_network.node[3].content_store 	p_hit[3] 	0.016890965813416
scalar tree_4_3_u00_r2_network.node[3].content_store 	hits[3] 	1294
scalar tree_4_3_u00_r2_network.node[3].content_store 	misses[3] 	75315
scalar tree_4_3_u00_r2_network.node[3].content_store 	decision_yes[3] 	723
scalar tree_4_3_u00_r2_network.node[3].content_store 	decision_no[3] 	74591
scalar tree_4_3_u00_r2_network.node[3].content_store 	decision_ratio[3] 	0.0095998088004886
scalar tree_4_3_u00_r2_network.node[4].core_layer 	interests[4] 	26344
scalar tree_4_3_u00_r2_network.node[4].core_layer 	data[4] 	25547
scalar tree_4_3_u00_r2_network.node[4].content_store 	p_hit[4] 	0.030215608867294
scalar tree_4_3_u00_r2_network.node[4].content_store 	hits[4] 	796
scalar tree_4_3_u00_r2_network.node[4].content_store 	misses[4] 	25548
scalar tree_4_3_u00_r2_network.node[4].content_store 	decision_yes[4] 	448
scalar tree_4_3_u00_r2_network.node[4].content_store 	decision_no[4] 	25099
scalar tree_4_3_u00_r2_network.node[4].content_store 	decision_ratio[4] 	0.017536305632755
scalar tree_4_3_u00_r2_network.node[5].core_layer 	interests[5] 	26220
scalar tree_4_3_u00_r2_network.node[5].core_layer 	data[5] 	25370
scalar tree_4_3_u00_r2_network.node[5].content_store 	p_hit[5] 	0.032418001525553
scalar tree_4_3_u00_r2_network.node[5].content_store 	hits[5] 	850
scalar tree_4_3_u00_r2_network.node[5].content_store 	misses[5] 	25370
scalar tree_4_3_u00_r2_network.node[5].content_store 	decision_yes[5] 	452
scalar tree_4_3_u00_r2_network.node[5].content_store 	decision_no[5] 	24918
scalar tree_4_3_u00_r2_network.node[5].content_store 	decision_ratio[5] 	0.017816318486401
scalar tree_4_3_u00_r2_network.node[6].core_layer 	interests[6] 	26774
scalar tree_4_3_u00_r2_network.node[6].core_layer 	data[6] 	25961
scalar tree_4_3_u00_r2_network.node[6].content_store 	p_hit[6] 	0.03036527974901
scalar tree_4_3_u00_r2_network.node[6].content_store 	hits[6] 	813
scalar tree_4_3_u00_r2_network.node[6].content_store 	misses[6] 	25961
scalar tree_4_3_u00_r2_network.node[6].content_store 	decision_yes[6] 	417
scalar tree_4_3_u00_r2_network.node[6].content_store 	decision_no[6] 	25544
scalar tree_4_3_u00_r2_network.node[6].content_store 	decision_ratio[6] 	0.016062555371519
scalar tree_4_3_u00_r2_network.node[7].core_layer 	interests[7] 	26425
scalar tree_4_3_u00_r2_network.node[7].core_layer 	data[7] 	25640
scalar tree_4_3_u00_r2_network.node[7].content_store 	p_hit[7] 	0.029744560075686
scalar tree_4_3_u00_r2_network.node[7].content_store 	hits[7] 	786
scalar tree_4_3_u00_r2_network.node[7].content_store 	misses[7] 	25639
scalar tree_4_3_u00_r2_network.node[7].content_store 	decision_yes[7] 	452
scalar tree_4_3_u00_r2_network.node[7].content_store 	decision_no[7] 	25188
scalar tree_4_3_u00_r2_network.node[7].content_store 	decision_ratio[7] 	0.017628705148206
scalar tree_4_3_u00_r2_network.node[8].core_layer 	interests[8] 	26531
scalar tree_4_3_u00_r2_network.node[8].core_layer 	data[8] 	25699
scalar tree_4_3_u00_r2_network.node[8].content_store 	p_hit[8] 	0.03139723342505
scalar tree_4_3_u00_r2_network.node[8].content_store 	hits[8] 	833
scalar tree_4_3_u00_r2_network.node[8].content_store 	misses[8] 	25698
scalar tree_4_3_u00_r2_network.node[8].content_store 	decision_yes[8] 	439
scalar tree_4_3_u00_r2_network.node[8].content_store 	decision_no[8] 	25260
scalar tree_4_3_u00_r2_network.node[8].content_store 	decision_ratio[8] 	0.017082376746177
scalar tree_4_3_u00_r2_network.node[9].core_layer 	interests[9] 	26358
scalar tree_4_3_u00_r2_network.node[9].core_layer 	data[9] 	25530
scalar tree_4_3_u00_r2_network.node[9].content_store 	p_hit[9] 	0.031337734274224
scalar tree_4_3_u00_r2_network.node[9].content_store 	hits[9] 	826
scalar tree_4_3_u00_r2_network.node[9].content_store 	misses[9] 	25532
scalar tree_4_3_u00_r2_network.node[9].content_store 	decision_yes[9] 	438
scalar tree_4_3_u00_r2_network.node[9].content_store 	decision_no[9] 	25092
scalar tree_4_3_u00_r2_network.node[9].content_store 	decision_ratio[9] 	0.017156286721504
scalar tree_4_3_u00_r2_network.node[10].core_layer 	interests[10] 	26486
scalar tree_4_3_u00_r2_network.node[10].core_layer 	data[10] 	25677
scalar tree_4_3_u00_r2_network.node[10].content_store 	p_hit[10] 	0.030544438571321
scalar tree_4_3_u00_r2_network.node[10].content_store 	hits[10] 	809
scalar tree_4_3_u00_r2_network.node[10].content_store 	misses[10] 	25677
scalar tree_4_3_u00_r2_network.node[10].content_store 	decision_yes[10] 	435
scalar tree_4_3_u00_r2_network.node[10].content_store 	decision_no[10] 	25242
scalar tree_4_3_u00_r2_network.node[10].content_store 	decision_ratio[10] 	0.016941231452272
scalar tree_4_3_u00_r2_network.node[11].core_layer 	interests[11] 	26300
scalar tree_4_3_u00_r2_network.node[11].core_layer 	data[11] 	25518
scalar tree_4_3_u00_r2_network.node[11].content_store 	p_hit[11] 	0.029733840304183
scalar tree_4_3_u00_r2_network.node[11].content_store 	hits[11] 	782
scalar tree_4_3_u00_r2_network.node[11].content_store 	misses[11] 	25518
scalar tree_4_3_u00_r2_network.node[11].content_store 	decision_yes[11] 	433
scalar tree_4_3_u00_r2_network.node[11].content_store 	decision_no[11] 	25085
scalar tree_4_3_u00_r2_network.node[11].content_store 	decision_ratio[11] 	0.016968414452543
scalar tree_4_3_u00_r2_network.node[12].core_layer 	interests[12] 	26228
scalar tree_4_3_u00_r2_network.node[12].core_layer 	data[12] 	25414
scalar tree_4_3_u00_r2_network.node[12].content_store 	p_hit[12] 	0.031035534543236
scalar tree_4_3_u00_r2_network.node[12].content_store 	hits[12] 	814
scalar tree_4_3_u00_r2_network.node[12].content_store 	misses[12] 	25414
scalar tree_4_3_u00_r2_network.node[12].content_store 	decision_yes[12] 	426
scalar tree_4_3_u00_r2_network.node[12].content_store 	decision_no[12] 	24988
scalar tree_4_3_u00_r2_network.node[12].content_store 	decision_ratio[12] 	0.01676241441725
scalar tree_4_3_u00_r2_network.node[13].core_layer 	interests[13] 	11979
scalar tree_4_3_u00_r2_network.node[13].core_layer 	data[13] 	8771
scalar tree_4_3_u00_r2_network.node[13].content_store 	p_hit[13] 	0.26788546623257
scalar tree_4_3_u00_r2_network.node[13].content_store 	hits[13] 	3209
scalar tree_4_3_u00_r2_network.node[13].content_store 	misses[13] 	8770
scalar tree_4_3_u00_r2_network.node[13].content_store 	decision_yes[13] 	258
scalar tree_4_3_u00_r2_network.node[13].content_store 	decision_no[13] 	8513
scalar tree_4_3_u00_r2_network.node[13].content_store 	decision_ratio[13] 	0.029415118002508
scalar tree_4_3_u00_r2_network.node[14].core_layer 	interests[14] 	11979
scalar tree_4_3_u00_r2_network.node[14].core_layer 	data[14] 	8765
scalar tree_4_3_u00_r2_network.node[14].content_store 	p_hit[14] 	0.26830286334419
scalar tree_4_3_u00_r2_network.node[14].content_store 	hits[14] 	3214
scalar tree_4_3_u00_r2_network.node[14].content_store 	misses[14] 	8765
scalar tree_4_3_u00_r2_network.node[14].content_store 	decision_yes[14] 	262
scalar tree_4_3_u00_r2_network.node[14].content_store 	decision_no[14] 	8503
scalar tree_4_3_u00_r2_network.node[14].content_store 	decision_ratio[14] 	0.029891614375357
scalar tree_4_3_u00_r2_network.node[15].core_layer 	interests[15] 	12038
scalar tree_4_3_u00_r2_network.node[15].core_layer 	data[15] 	8809
scalar tree_4_3_u00_r2_network.node[15].content_store 	p_hit[15] 	0.26815085562386
scalar tree_4_3_u00_r2_network.node[15].content_store 	hits[15] 	3228
scalar tree_4_3_u00_r2_network.node[15].content_store 	misses[15] 	8810
scalar tree_4_3_u00_r2_network.node[15].content_store 	decision_yes[15] 	276
scalar tree_4_3_u00_r2_network.node[15].content_store 	decision_no[15] 	8533
scalar tree_4_3_u00_r2_network.node[15].content_store 	decision_ratio[15] 	0.031331592689295
scalar tree_4_3_u00_r2_network.node[16].core_layer 	interests[16] 	11777
scalar tree_4_3_u00_r2_network.node[16].core_layer 	data[16] 	8652
scalar tree_4_3_u00_r2_network.node[16].content_store 	p_hit[16] 	0.26534771164133
scalar tree_4_3_u00_r2_network.node[16].content_store 	hits[16] 	3125
scalar tree_4_3_u00_r2_network.node[16].content_store 	misses[16] 	8652
scalar tree_4_3_u00_r2_network.node[16].content_store 	decision_yes[16] 	291
scalar tree_4_3_u00_r2_network.node[16].content_store 	decision_no[16] 	8361
scalar tree_4_3_u00_r2_network.node[16].content_store 	decision_ratio[16] 	0.033633841886269
scalar tree_4_3_u00_r2_network.node[17].core_layer 	interests[17] 	11953
scalar tree_4_3_u00_r2_network.node[17].core_layer 	data[17] 	8683
scalar tree_4_3_u00_r2_network.node[17].content_store 	p_hit[17] 	0.27357148832929
scalar tree_4_3_u00_r2_network.node[17].content_store 	hits[17] 	3270
scalar tree_4_3_u00_r2_network.node[17].content_store 	misses[17] 	8683
scalar tree_4_3_u00_r2_network.node[17].content_store 	decision_yes[17] 	273
scalar tree_4_3_u00_r2_network.node[17].content_store 	decision_no[17] 	8410
scalar tree_4_3_u00_r2_network.node[17].content_store 	decision_ratio[17] 	0.031440746285846
scalar tree_4_3_u00_r2_network.node[18].core_layer 	interests[18] 	12079
scalar tree_4_3_u00_r2_network.node[18].core_layer 	data[18] 	8885
scalar tree_4_3_u00_r2_network.node[18].content_store 	p_hit[18] 	0.26442586306813
scalar tree_4_3_u00_r2_network.node[18].content_store 	hits[18] 	3194
scalar tree_4_3_u00_r2_network.node[18].content_store 	misses[18] 	8885
scalar tree_4_3_u00_r2_network.node[18].content_store 	decision_yes[18] 	286
scalar tree_4_3_u00_r2_network.node[18].content_store 	decision_no[18] 	8599
scalar tree_4_3_u00_r2_network.node[18].content_store 	decision_ratio[18] 	0.032189082723692
scalar tree_4_3_u00_r2_network.node[19].core_layer 	interests[19] 	12218
scalar tree_4_3_u00_r2_network.node[19].core_layer 	data[19] 	9076
scalar tree_4_3_u00_r2_network.node[19].content_store 	p_hit[19] 	0.25707971844819
scalar tree_4_3_u00_r2_network.node[19].content_store 	hits[19] 	3141
scalar tree_4_3_u00_r2_network.node[19].content_store 	misses[19] 	9077
scalar tree_4_3_u00_r2_network.node[19].content_store 	decision_yes[19] 	269
scalar tree_4_3_u00_r2_network.node[19].content_store 	decision_no[19] 	8807
scalar tree_4_3_u00_r2_network.node[19].content_store 	decision_ratio[19] 	0.029638607315998
scalar tree_4_3_u00_r2_network.node[20].core_layer 	interests[20] 	12031
scalar tree_4_3_u00_r2_network.node[20].core_layer 	data[20] 	8813
scalar tree_4_3_u00_r2_network.node[20].content_store 	p_hit[20] 	0.2674756878065
scalar tree_4_3_u00_r2_network.node[20].content_store 	hits[20] 	3218
scalar tree_4_3_u00_r2_network.node[20].content_store 	misses[20] 	8813
scalar tree_4_3_u00_r2_network.node[20].content_store 	decision_yes[20] 	262
scalar tree_4_3_u00_r2_network.node[20].content_store 	decision_no[20] 	8551
scalar tree_4_3_u00_r2_network.node[20].content_store 	decision_ratio[20] 	0.029728809712924
scalar tree_4_3_u00_r2_network.node[21].core_layer 	interests[21] 	12027
scalar tree_4_3_u00_r2_network.node[21].core_layer 	data[21] 	8885
scalar tree_4_3_u00_r2_network.node[21].content_store 	p_hit[21] 	0.26124553088883
scalar tree_4_3_u00_r2_network.node[21].content_store 	hits[21] 	3142
scalar tree_4_3_u00_r2_network.node[21].content_store 	misses[21] 	8885
scalar tree_4_3_u00_r2_network.node[21].content_store 	decision_yes[21] 	282
scalar tree_4_3_u00_r2_network.node[21].content_store 	decision_no[21] 	8603
scalar tree_4_3_u00_r2_network.node[21].content_store 	decision_ratio[21] 	0.031738885762521
scalar tree_4_3_u00_r2_network.node[22].core_layer 	interests[22] 	11872
scalar tree_4_3_u00_r2_network.node[22].core_layer 	data[22] 	8726
scalar tree_4_3_u00_r2_network.node[22].content_store 	p_hit[22] 	0.2649090296496
scalar tree_4_3_u00_r2_network.node[22].content_store 	hits[22] 	3145
scalar tree_4_3_u00_r2_network.node[22].content_store 	misses[22] 	8727
scalar tree_4_3_u00_r2_network.node[22].content_store 	decision_yes[22] 	258
scalar tree_4_3_u00_r2_network.node[22].content_store 	decision_no[22] 	8468
scalar tree_4_3_u00_r2_network.node[22].content_store 	decision_ratio[22] 	0.029566811826725
scalar tree_4_3_u00_r2_network.node[23].core_layer 	interests[23] 	11839
scalar tree_4_3_u00_r2_network.node[23].core_layer 	data[23] 	8667
scalar tree_4_3_u00_r2_network.node[23].content_store 	p_hit[23] 	0.26792803446237
scalar tree_4_3_u00_r2_network.node[23].content_store 	hits[23] 	3172
scalar tree_4_3_u00_r2_network.node[23].content_store 	misses[23] 	8667
scalar tree_4_3_u00_r2_network.node[23].content_store 	decision_yes[23] 	260
scalar tree_4_3_u00_r2_network.node[23].content_store 	decision_no[23] 	8407
scalar tree_4_3_u00_r2_network.node[23].content_store 	decision_ratio[23] 	0.029998846198223
scalar tree_4_3_u00_r2_network.node[24].core_layer 	interests[24] 	12254
scalar tree_4_3_u00_r2_network.node[24].core_layer 	data[24] 	9032
scalar tree_4_3_u00_r2_network.node[24].content_store 	p_hit[24] 	0.26293455198303
scalar tree_4_3_u00_r2_network.node[24].content_store 	hits[24] 	3222
scalar tree_4_3_u00_r2_network.node[24].content_store 	misses[24] 	9032
scalar tree_4_3_u00_r2_network.node[24].content_store 	decision_yes[24] 	268
scalar tree_4_3_u00_r2_network.node[24].content_store 	decision_no[24] 	8764
scalar tree_4_3_u00_r2_network.node[24].content_store 	decision_ratio[24] 	0.029672276350753
scalar tree_4_3_u00_r2_network.node[25].core_layer 	interests[25] 	12016
scalar tree_4_3_u00_r2_network.node[25].core_layer 	data[25] 	8814
scalar tree_4_3_u00_r2_network.node[25].content_store 	p_hit[25] 	0.26647802929427
scalar tree_4_3_u00_r2_network.node[25].content_store 	hits[25] 	3202
scalar tree_4_3_u00_r2_network.node[25].content_store 	misses[25] 	8814
scalar tree_4_3_u00_r2_network.node[25].content_store 	decision_yes[25] 	287
scalar tree_4_3_u00_r2_network.node[25].content_store 	decision_no[25] 	8527
scalar tree_4_3_u00_r2_network.node[25].content_store 	decision_ratio[25] 	0.032561833446789
scalar tree_4_3_u00_r2_network.node[26].core_layer 	interests[26] 	11975
scalar tree_4_3_u00_r2_network.node[26].core_layer 	data[26] 	8687
scalar tree_4_3_u00_r2_network.node[26].content_store 	p_hit[26] 	0.27457202505219
scalar tree_4_3_u00_r2_network.node[26].content_store 	hits[26] 	3288
scalar tree_4_3_u00_r2_network.node[26].content_store 	misses[26] 	8687
scalar tree_4_3_u00_r2_network.node[26].content_store 	decision_yes[26] 	263
scalar tree_4_3_u00_r2_network.node[26].content_store 	decision_no[26] 	8424
scalar tree_4_3_u00_r2_network.node[26].content_store 	decision_ratio[26] 	0.030275123748129
scalar tree_4_3_u00_r2_network.node[27].core_layer 	interests[27] 	12030
scalar tree_4_3_u00_r2_network.node[27].core_layer 	data[27] 	9031
scalar tree_4_3_u00_r2_network.node[27].content_store 	p_hit[27] 	0.24937655860349
scalar tree_4_3_u00_r2_network.node[27].content_store 	hits[27] 	3000
scalar tree_4_3_u00_r2_network.node[27].content_store 	misses[27] 	9030
scalar tree_4_3_u00_r2_network.node[27].content_store 	decision_yes[27] 	283
scalar tree_4_3_u00_r2_network.node[27].content_store 	decision_no[27] 	8748
scalar tree_4_3_u00_r2_network.node[27].content_store 	decision_ratio[27] 	0.031336507584985
scalar tree_4_3_u00_r2_network.node[28].core_layer 	interests[28] 	12091
scalar tree_4_3_u00_r2_network.node[28].core_layer 	data[28] 	8904
scalar tree_4_3_u00_r2_network.node[28].content_store 	p_hit[28] 	0.26358448432719
scalar tree_4_3_u00_r2_network.node[28].content_store 	hits[28] 	3187
scalar tree_4_3_u00_r2_network.node[28].content_store 	misses[28] 	8904
scalar tree_4_3_u00_r2_network.node[28].content_store 	decision_yes[28] 	270
scalar tree_4_3_u00_r2_network.node[28].content_store 	decision_no[28] 	8634
scalar tree_4_3_u00_r2_network.node[28].content_store 	decision_ratio[28] 	0.030323450134771
scalar tree_4_3_u00_r2_network.node[29].core_layer 	interests[29] 	11812
scalar tree_4_3_u00_r2_network.node[29].core_layer 	data[29] 	8704
scalar tree_4_3_u00_r2_network.node[29].content_store 	p_hit[29] 	0.26312224856079
scalar tree_4_3_u00_r2_network.node[29].content_store 	hits[29] 	3108
scalar tree_4_3_u00_r2_network.node[29].content_store 	misses[29] 	8704
scalar tree_4_3_u00_r2_network.node[29].content_store 	decision_yes[29] 	273
scalar tree_4_3_u00_r2_network.node[29].content_store 	decision_no[29] 	8431
scalar tree_4_3_u00_r2_network.node[29].content_store 	decision_ratio[29] 	0.031364889705882
scalar tree_4_3_u00_r2_network.node[30].core_layer 	interests[30] 	11910
scalar tree_4_3_u00_r2_network.node[30].core_layer 	data[30] 	8750
scalar tree_4_3_u00_r2_network.node[30].content_store 	p_hit[30] 	0.26532325776658
scalar tree_4_3_u00_r2_network.node[30].content_store 	hits[30] 	3160
scalar tree_4_3_u00_r2_network.node[30].content_store 	misses[30] 	8750
scalar tree_4_3_u00_r2_network.node[30].content_store 	decision_yes[30] 	283
scalar tree_4_3_u00_r2_network.node[30].content_store 	decision_no[30] 	8467
scalar tree_4_3_u00_r2_network.node[30].content_store 	decision_ratio[30] 	0.032342857142857
scalar tree_4_3_u00_r2_network.node[31].core_layer 	interests[31] 	11898
scalar tree_4_3_u00_r2_network.node[31].core_layer 	data[31] 	8804
scalar tree_4_3_u00_r2_network.node[31].content_store 	p_hit[31] 	0.26004370482434
scalar tree_4_3_u00_r2_network.node[31].content_store 	hits[31] 	3094
scalar tree_4_3_u00_r2_network.node[31].content_store 	misses[31] 	8804
scalar tree_4_3_u00_r2_network.node[31].content_store 	decision_yes[31] 	277
scalar tree_4_3_u00_r2_network.node[31].content_store 	decision_no[31] 	8527
scalar tree_4_3_u00_r2_network.node[31].content_store 	decision_ratio[31] 	0.031462971376647
scalar tree_4_3_u00_r2_network.node[32].core_layer 	interests[32] 	12190
scalar tree_4_3_u00_r2_network.node[32].core_layer 	data[32] 	8856
scalar tree_4_3_u00_r2_network.node[32].content_store 	p_hit[32] 	0.27350287120591
scalar tree_4_3_u00_r2_network.node[32].content_store 	hits[32] 	3334
scalar tree_4_3_u00_r2_network.node[32].content_store 	misses[32] 	8856
scalar tree_4_3_u00_r2_network.node[32].content_store 	decision_yes[32] 	266
scalar tree_4_3_u00_r2_network.node[32].content_store 	decision_no[32] 	8590
scalar tree_4_3_u00_r2_network.node[32].content_store 	decision_ratio[32] 	0.03003613369467
scalar tree_4_3_u00_r2_network.node[33].core_layer 	interests[33] 	11941
scalar tree_4_3_u00_r2_network.node[33].core_layer 	data[33] 	8826
scalar tree_4_3_u00_r2_network.node[33].content_store 	p_hit[33] 	0.26086592412696
scalar tree_4_3_u00_r2_network.node[33].content_store 	hits[33] 	3115
scalar tree_4_3_u00_r2_network.node[33].content_store 	misses[33] 	8826
scalar tree_4_3_u00_r2_network.node[33].content_store 	decision_yes[33] 	266
scalar tree_4_3_u00_r2_network.node[33].content_store 	decision_no[33] 	8560
scalar tree_4_3_u00_r2_network.node[33].content_store 	decision_ratio[33] 	0.030138227962837
scalar tree_4_3_u00_r2_network.node[34].core_layer 	interests[34] 	12103
scalar tree_4_3_u00_r2_network.node[34].core_layer 	data[34] 	8847
scalar tree_4_3_u00_r2_network.node[34].content_store 	p_hit[34] 	0.26902420887383
scalar tree_4_3_u00_r2_network.node[34].content_store 	hits[34] 	3256
scalar tree_4_3_u00_r2_network.node[34].content_store 	misses[34] 	8847
scalar tree_4_3_u00_r2_network.node[34].content_store 	decision_yes[34] 	268
scalar tree_4_3_u00_r2_network.node[34].content_store 	decision_no[34] 	8579
scalar tree_4_3_u00_r2_network.node[34].content_store 	decision_ratio[34] 	0.030292754606081
scalar tree_4_3_u00_r2_network.node[35].core_layer 	interests[35] 	11983
scalar tree_4_3_u00_r2_network.node[35].core_layer 	data[35] 	8692
scalar tree_4_3_u00_r2_network.node[35].content_store 	p_hit[35] 	0.27463907201869
scalar tree_4_3_u00_r2_network.node[35].content_store 	hits[35] 	3291
scalar tree_4_3_u00_r2_network.node[35].content_store 	misses[35] 	8692
scalar tree_4_3_u00_r2_network.node[35].content_store 	decision_yes[35] 	251
scalar tree_4_3_u00_r2_network.node[35].content_store 	decision_no[35] 	8441
scalar tree_4_3_u00_r2_network.node[35].content_store 	decision_ratio[35] 	0.028877128393925
scalar tree_4_3_u00_r2_network.node[36].core_layer 	interests[36] 	11986
scalar tree_4_3_u00_r2_network.node[36].core_layer 	data[36] 	8761
scalar tree_4_3_u00_r2_network.node[36].content_store 	p_hit[36] 	0.26906390789254
scalar tree_4_3_u00_r2_network.node[36].content_store 	hits[36] 	3225
scalar tree_4_3_u00_r2_network.node[36].content_store 	misses[36] 	8761
scalar tree_4_3_u00_r2_network.node[36].content_store 	decision_yes[36] 	263
scalar tree_4_3_u00_r2_network.node[36].content_store 	decision_no[36] 	8498
scalar tree_4_3_u00_r2_network.node[36].content_store 	decision_ratio[36] 	0.030019404177605
scalar tree_4_3_u00_r2_network.node[37].core_layer 	interests[37] 	11941
scalar tree_4_3_u00_r2_network.node[37].core_layer 	data[37] 	8644
scalar tree_4_3_u00_r2_network.node[37].content_store 	p_hit[37] 	0.27619127376267
scalar tree_4_3_u00_r2_network.node[37].content_store 	hits[37] 	3298
scalar tree_4_3_u00_r2_network.node[37].content_store 	misses[37] 	8643
scalar tree_4_3_u00_r2_network.node[37].content_store 	decision_yes[37] 	265
scalar tree_4_3_u00_r2_network.node[37].content_store 	decision_no[37] 	8379
scalar tree_4_3_u00_r2_network.node[37].content_store 	decision_ratio[37] 	0.030657103192966
scalar tree_4_3_u00_r2_network.node[38].core_layer 	interests[38] 	11952
scalar tree_4_3_u00_r2_network.node[38].core_layer 	data[38] 	8811
scalar tree_4_3_u00_r2_network.node[38].content_store 	p_hit[38] 	0.26280120481928
scalar tree_4_3_u00_r2_network.node[38].content_store 	hits[38] 	3141
scalar tree_4_3_u00_r2_network.node[38].content_store 	misses[38] 	8811
scalar tree_4_3_u00_r2_network.node[38].content_store 	decision_yes[38] 	284
scalar tree_4_3_u00_r2_network.node[38].content_store 	decision_no[38] 	8527
scalar tree_4_3_u00_r2_network.node[38].content_store 	decision_ratio[38] 	0.032232436726819
scalar tree_4_3_u00_r2_network.node[39].core_layer 	interests[39] 	11866
scalar tree_4_3_u00_r2_network.node[39].core_layer 	data[39] 	8775
scalar tree_4_3_u00_r2_network.node[39].content_store 	p_hit[39] 	0.26049216248104
scalar tree_4_3_u00_r2_network.node[39].content_store 	hits[39] 	3091
scalar tree_4_3_u00_r2_network.node[39].content_store 	misses[39] 	8775
scalar tree_4_3_u00_r2_network.node[39].content_store 	decision_yes[39] 	265
scalar tree_4_3_u00_r2_network.node[39].content_store 	decision_no[39] 	8510
scalar tree_4_3_u00_r2_network.node[39].content_store 	decision_ratio[39] 	0.03019943019943
scalar tree_4_3_u00_r2_network.client[13] 	hdistance[13] 	2.8325542570952
scalar tree_4_3_u00_r2_network.client[13] 	downloads[13] 	11980
scalar tree_4_3_u00_r2_network.client[13] 	avg_time[13] 	0.004281299164
scalar tree_4_3_u00_r2_network.client[14] 	hdistance[14] 	2.8282828282828
scalar tree_4_3_u00_r2_network.client[14] 	downloads[14] 	11979
scalar tree_4_3_u00_r2_network.client[14] 	avg_time[14] 	0.004276814775
scalar tree_4_3_u00_r2_network.client[15] 	hdistance[15] 	2.8278640857357
scalar tree_4_3_u00_r2_network.client[15] 	downloads[15] 	12037
scalar tree_4_3_u00_r2_network.client[15] 	avg_time[15] 	0.004275426336
scalar tree_4_3_u00_r2_network.client[16] 	hdistance[16] 	2.8336588265263
scalar tree_4_3_u00_r2_network.client[16] 	downloads[16] 	11777
scalar tree_4_3_u00_r2_network.client[16] 	avg_time[16] 	0.004285129075
scalar tree_4_3_u00_r2_network.client[17] 	hdistance[17] 	2.8060737890069
scalar tree_4_3_u00_r2_network.client[17] 	downloads[17] 	11953
scalar tree_4_3_u00_r2_network.client[17] 	avg_time[17] 	0.004242948554
scalar tree_4_3_u00_r2_network.client[18] 	hdistance[18] 	2.8362447222452
scalar tree_4_3_u00_r2_network.client[18] 	downloads[18] 	12079
scalar tree_4_3_u00_r2_network.client[18] 	avg_time[18] 	0.004291246252
scalar tree_4_3_u00_r2_network.client[19] 	hdistance[19] 	2.8743554064009
scalar tree_4_3_u00_r2_network.client[19] 	downloads[19] 	12217
scalar tree_4_3_u00_r2_network.client[19] 	avg_time[19] 	0.004345601148
scalar tree_4_3_u00_r2_network.client[20] 	hdistance[20] 	2.8335134236556
scalar tree_4_3_u00_r2_network.client[20] 	downloads[20] 	12031
scalar tree_4_3_u00_r2_network.client[20] 	avg_time[20] 	0.00428509381
scalar tree_4_3_u00_r2_network.client[21] 	hdistance[21] 	2.8567390039079
scalar tree_4_3_u00_r2_network.client[21] 	downloads[21] 	12027
scalar tree_4_3_u00_r2_network.client[21] 	avg_time[21] 	0.00431628532
scalar tree_4_3_u00_r2_network.client[22] 	hdistance[22] 	2.8425574930503
scalar tree_4_3_u00_r2_network.client[22] 	downloads[22] 	11871
scalar tree_4_3_u00_r2_network.client[22] 	avg_time[22] 	0.004297660845
scalar tree_4_3_u00_r2_network.client[23] 	hdistance[23] 	2.8318270124166
scalar tree_4_3_u00_r2_network.client[23] 	downloads[23] 	11839
scalar tree_4_3_u00_r2_network.client[23] 	avg_time[23] 	0.004280257181
scalar tree_4_3_u00_r2_network.client[24] 	hdistance[24] 	2.8500897666068
scalar tree_4_3_u00_r2_network.client[24] 	downloads[24] 	12254
scalar tree_4_3_u00_r2_network.client[24] 	avg_time[24] 	0.004309397956
scalar tree_4_3_u00_r2_network.client[25] 	hdistance[25] 	2.8310585885486
scalar tree_4_3_u00_r2_network.client[25] 	downloads[25] 	12016
scalar tree_4_3_u00_r2_network.client[25] 	avg_time[25] 	0.004280456378
scalar tree_4_3_u00_r2_network.client[26] 	hdistance[26] 	2.8043423799582
scalar tree_4_3_u00_r2_network.client[26] 	downloads[26] 	11975
scalar tree_4_3_u00_r2_network.client[26] 	avg_time[26] 	0.004239996995
scalar tree_4_3_u00_r2_network.client[27] 	hdistance[27] 	2.9016706840662
scalar tree_4_3_u00_r2_network.client[27] 	downloads[27] 	12031
scalar tree_4_3_u00_r2_network.client[27] 	avg_time[27] 	0.004386390966
scalar tree_4_3_u00_r2_network.client[28] 	hdistance[28] 	2.8475725746423
scalar tree_4_3_u00_r2_network.client[28] 	downloads[28] 	12091
scalar tree_4_3_u00_r2_network.client[28] 	avg_time[28] 	0.004305182659
scalar tree_4_3_u00_r2_network.client[29] 	hdistance[29] 	2.8490518117169
scalar tree_4_3_u00_r2_network.client[29] 	downloads[29] 	11812
scalar tree_4_3_u00_r2_network.client[29] 	avg_time[29] 	0.004306927928
scalar tree_4_3_u00_r2_network.client[30] 	hdistance[30] 	2.8331654072208
scalar tree_4_3_u00_r2_network.client[30] 	downloads[30] 	11910
scalar tree_4_3_u00_r2_network.client[30] 	avg_time[30] 	0.004285259426
scalar tree_4_3_u00_r2_network.client[31] 	hdistance[31] 	2.859220036981
scalar tree_4_3_u00_r2_network.client[31] 	downloads[31] 	11898
scalar tree_4_3_u00_r2_network.client[31] 	avg_time[31] 	0.004323694483
scalar tree_4_3_u00_r2_network.client[32] 	hdistance[32] 	2.8109105824446
scalar tree_4_3_u00_r2_network.client[32] 	downloads[32] 	12190
scalar tree_4_3_u00_r2_network.client[32] 	avg_time[32] 	0.00424774099
scalar tree_4_3_u00_r2_network.client[33] 	hdistance[33] 	2.85721463864
scalar tree_4_3_u00_r2_network.client[33] 	downloads[33] 	11941
scalar tree_4_3_u00_r2_network.client[33] 	avg_time[33] 	0.004320070721
scalar tree_4_3_u00_r2_network.client[34] 	hdistance[34] 	2.8260761794596
scalar tree_4_3_u00_r2_network.client[34] 	downloads[34] 	12103
scalar tree_4_3_u00_r2_network.client[34] 	avg_time[34] 	0.004272656653
scalar tree_4_3_u00_r2_network.client[35] 	hdistance[35] 	2.8097304514729
scalar tree_4_3_u00_r2_network.client[35] 	downloads[35] 	11983
scalar tree_4_3_u00_r2_network.client[35] 	avg_time[35] 	0.004245845328
scalar tree_4_3_u00_r2_network.client[36] 	hdistance[36] 	2.8259636242283
scalar tree_4_3_u00_r2_network.client[36] 	downloads[36] 	11986
scalar tree_4_3_u00_r2_network.client[36] 	avg_time[36] 	0.004272982161
scalar tree_4_3_u00_r2_network.client[37] 	hdistance[37] 	2.7948417350528
scalar tree_4_3_u00_r2_network.client[37] 	downloads[37] 	11942
scalar tree_4_3_u00_r2_network.client[37] 	avg_time[37] 	0.004228111557
scalar tree_4_3_u00_r2_network.client[38] 	hdistance[38] 	2.8498159303882
scalar tree_4_3_u00_r2_network.client[38] 	downloads[38] 	11952
scalar tree_4_3_u00_r2_network.client[38] 	avg_time[38] 	0.004306967955
scalar tree_4_3_u00_r2_network.client[39] 	hdistance[39] 	2.8614528906118
scalar tree_4_3_u00_r2_network.client[39] 	downloads[39] 	11866
scalar tree_4_3_u00_r2_network.client[39] 	avg_time[39] 	0.004323105079
