version 2
run General-188-20160820-05:57:24-14346
attr a 0.9
attr cd fix0.1
attr configname General
attr cr lru
attr datetime 20160820-05:57:24
attr experiment General
attr fsize 1
attr inifile hw5115/scenario_A/SPR-FIX0.1.ini
attr iterationvars "$name=tree_4_3, $un=09, $rep=9, $cd=fix0.1, $cr=lru, $fsize=1, $a=0.9, $sl=spr, $ttl=1000, $variance=0.05"
attr iterationvars2 "$name=tree_4_3, $un=09, $rep=9, $cd=fix0.1, $cr=lru, $fsize=1, $a=0.9, $sl=spr, $ttl=1000, $variance=0.05, $repetition=0"
attr measurement "$name=tree_4_3, $un=09, $rep=9, $cd=fix0.1, $cr=lru, $fsize=1, $a=0.9, $sl=spr, $ttl=1000, $variance=0.05"
attr name tree_4_3
attr network networks.${name}_u${un}_r${rep}_network
attr processid 14346
attr rep 9
attr repetition 0
attr replication #0
attr resultdir results
attr runnumber 188
attr seedset 9
attr sl spr
attr ttl 1000
attr un 09
attr variance 0.05

scalar . 	a 	0.9
scalar . 	fsize 	1
scalar . 	rep 	9
scalar . 	ttl 	1000
scalar . 	un 	09
scalar . 	variance 	0.05
scalar tree_4_3_u09_r9_network.content_distribution 	repo-0 	0
scalar tree_4_3_u09_r9_network.content_distribution 	client-0 	13
scalar tree_4_3_u09_r9_network.content_distribution 	client-1 	14
scalar tree_4_3_u09_r9_network.content_distribution 	client-2 	15
scalar tree_4_3_u09_r9_network.content_distribution 	client-3 	16
scalar tree_4_3_u09_r9_network.content_distribution 	client-4 	17
scalar tree_4_3_u09_r9_network.content_distribution 	client-5 	18
scalar tree_4_3_u09_r9_network.content_distribution 	client-6 	19
scalar tree_4_3_u09_r9_network.content_distribution 	client-7 	20
scalar tree_4_3_u09_r9_network.content_distribution 	client-8 	21
scalar tree_4_3_u09_r9_network.content_distribution 	client-9 	22
scalar tree_4_3_u09_r9_network.content_distribution 	client-10 	23
scalar tree_4_3_u09_r9_network.content_distribution 	client-11 	24
scalar tree_4_3_u09_r9_network.content_distribution 	client-12 	25
scalar tree_4_3_u09_r9_network.content_distribution 	client-13 	26
scalar tree_4_3_u09_r9_network.content_distribution 	client-14 	27
scalar tree_4_3_u09_r9_network.content_distribution 	client-15 	28
scalar tree_4_3_u09_r9_network.content_distribution 	client-16 	29
scalar tree_4_3_u09_r9_network.content_distribution 	client-17 	30
scalar tree_4_3_u09_r9_network.content_distribution 	client-18 	31
scalar tree_4_3_u09_r9_network.content_distribution 	client-19 	32
scalar tree_4_3_u09_r9_network.content_distribution 	client-20 	33
scalar tree_4_3_u09_r9_network.content_distribution 	client-21 	34
scalar tree_4_3_u09_r9_network.content_distribution 	client-22 	35
scalar tree_4_3_u09_r9_network.content_distribution 	client-23 	36
scalar tree_4_3_u09_r9_network.content_distribution 	client-24 	37
scalar tree_4_3_u09_r9_network.content_distribution 	client-25 	38
scalar tree_4_3_u09_r9_network.content_distribution 	client-26 	39
scalar tree_4_3_u09_r9_network.content_distribution 	repo-0_card 	100000
scalar tree_4_3_u09_r9_network.content_distribution 	repo-0_price 	0
scalar tree_4_3_u09_r9_network.statistics 	stabilization_time 	898.2
scalar tree_4_3_u09_r9_network.statistics 	p_hit 	0.14945935365743
scalar tree_4_3_u09_r9_network.statistics 	interests 	26754.45
scalar tree_4_3_u09_r9_network.statistics 	data 	18666.825
scalar tree_4_3_u09_r9_network.statistics 	hdistance 	3.0424343237833
scalar tree_4_3_u09_r9_network.statistics 	avg_time 	0.004616395829
scalar tree_4_3_u09_r9_network.statistics 	downloads 	323492
scalar tree_4_3_u09_r9_network.statistics 	total_cost 	0
scalar tree_4_3_u09_r9_network.statistics 	total_replicas 	100000
scalar tree_4_3_u09_r9_network.statistics 	inner_hit 	0.2659014751524
scalar tree_4_3_u09_r9_network.node[0].core_layer 	interests[0] 	242080
scalar tree_4_3_u09_r9_network.node[0].core_layer 	repo_load[0] 	237475
scalar tree_4_3_u09_r9_network.node[0].core_layer 	data[0] 	0
scalar tree_4_3_u09_r9_network.node[0].core_layer 	repo_int[0] 	237475
scalar tree_4_3_u09_r9_network.node[0].content_store 	p_hit[0] 	0.019022637144746
scalar tree_4_3_u09_r9_network.node[0].content_store 	hits[0] 	4605
scalar tree_4_3_u09_r9_network.node[0].content_store 	misses[0] 	237475
scalar tree_4_3_u09_r9_network.node[0].content_store 	decision_yes[0] 	23569
scalar tree_4_3_u09_r9_network.node[0].content_store 	decision_no[0] 	213906
scalar tree_4_3_u09_r9_network.node[0].content_store 	decision_ratio[0] 	0.09924834193073
scalar tree_4_3_u09_r9_network.node[1].core_layer 	interests[1] 	128703
scalar tree_4_3_u09_r9_network.node[1].core_layer 	data[1] 	125663
scalar tree_4_3_u09_r9_network.node[1].content_store 	p_hit[1] 	0.023596963551743
scalar tree_4_3_u09_r9_network.node[1].content_store 	hits[1] 	3037
scalar tree_4_3_u09_r9_network.node[1].content_store 	misses[1] 	125666
scalar tree_4_3_u09_r9_network.node[1].content_store 	decision_yes[1] 	12655
scalar tree_4_3_u09_r9_network.node[1].content_store 	decision_no[1] 	113008
scalar tree_4_3_u09_r9_network.node[1].content_store 	decision_ratio[1] 	0.10070585613904
scalar tree_4_3_u09_r9_network.node[2].core_layer 	interests[2] 	82548
scalar tree_4_3_u09_r9_network.node[2].core_layer 	data[2] 	80650
scalar tree_4_3_u09_r9_network.node[2].content_store 	p_hit[2] 	0.022968454717255
scalar tree_4_3_u09_r9_network.node[2].content_store 	hits[2] 	1896
scalar tree_4_3_u09_r9_network.node[2].content_store 	misses[2] 	80652
scalar tree_4_3_u09_r9_network.node[2].content_store 	decision_yes[2] 	8066
scalar tree_4_3_u09_r9_network.node[2].content_store 	decision_no[2] 	72584
scalar tree_4_3_u09_r9_network.node[2].content_store 	decision_ratio[2] 	0.10001239925604
scalar tree_4_3_u09_r9_network.node[3].core_layer 	interests[3] 	36673
scalar tree_4_3_u09_r9_network.node[3].core_layer 	data[3] 	35767
scalar tree_4_3_u09_r9_network.node[3].content_store 	p_hit[3] 	0.024677555694925
scalar tree_4_3_u09_r9_network.node[3].content_store 	hits[3] 	905
scalar tree_4_3_u09_r9_network.node[3].content_store 	misses[3] 	35768
scalar tree_4_3_u09_r9_network.node[3].content_store 	decision_yes[3] 	3532
scalar tree_4_3_u09_r9_network.node[3].content_store 	decision_no[3] 	32235
scalar tree_4_3_u09_r9_network.node[3].content_store 	decision_ratio[3] 	0.098750244638913
scalar tree_4_3_u09_r9_network.node[4].core_layer 	interests[4] 	47472
scalar tree_4_3_u09_r9_network.node[4].core_layer 	data[4] 	45924
scalar tree_4_3_u09_r9_network.node[4].content_store 	p_hit[4] 	0.032503370407819
scalar tree_4_3_u09_r9_network.node[4].content_store 	hits[4] 	1543
scalar tree_4_3_u09_r9_network.node[4].content_store 	misses[4] 	45929
scalar tree_4_3_u09_r9_network.node[4].content_store 	decision_yes[4] 	4626
scalar tree_4_3_u09_r9_network.node[4].content_store 	decision_no[4] 	41298
scalar tree_4_3_u09_r9_network.node[4].content_store 	decision_ratio[4] 	0.10073164358505
scalar tree_4_3_u09_r9_network.node[5].core_layer 	interests[5] 	28807
scalar tree_4_3_u09_r9_network.node[5].core_layer 	data[5] 	27875
scalar tree_4_3_u09_r9_network.node[5].content_store 	p_hit[5] 	0.032353247474572
scalar tree_4_3_u09_r9_network.node[5].content_store 	hits[5] 	932
scalar tree_4_3_u09_r9_network.node[5].content_store 	misses[5] 	27875
scalar tree_4_3_u09_r9_network.node[5].content_store 	decision_yes[5] 	2731
scalar tree_4_3_u09_r9_network.node[5].content_store 	decision_no[5] 	25144
scalar tree_4_3_u09_r9_network.node[5].content_store 	decision_ratio[5] 	0.097973094170404
scalar tree_4_3_u09_r9_network.node[6].core_layer 	interests[6] 	9481
scalar tree_4_3_u09_r9_network.node[6].core_layer 	data[6] 	9137
scalar tree_4_3_u09_r9_network.node[6].content_store 	p_hit[6] 	0.036283092500791
scalar tree_4_3_u09_r9_network.node[6].content_store 	hits[6] 	344
scalar tree_4_3_u09_r9_network.node[6].content_store 	misses[6] 	9137
scalar tree_4_3_u09_r9_network.node[6].content_store 	decision_yes[6] 	909
scalar tree_4_3_u09_r9_network.node[6].content_store 	decision_no[6] 	8228
scalar tree_4_3_u09_r9_network.node[6].content_store 	decision_ratio[6] 	0.099485607967604
scalar tree_4_3_u09_r9_network.node[7].core_layer 	interests[7] 	47422
scalar tree_4_3_u09_r9_network.node[7].core_layer 	data[7] 	45766
scalar tree_4_3_u09_r9_network.node[7].content_store 	p_hit[7] 	0.034836151996963
scalar tree_4_3_u09_r9_network.node[7].content_store 	hits[7] 	1652
scalar tree_4_3_u09_r9_network.node[7].content_store 	misses[7] 	45770
scalar tree_4_3_u09_r9_network.node[7].content_store 	decision_yes[7] 	4547
scalar tree_4_3_u09_r9_network.node[7].content_store 	decision_no[7] 	41219
scalar tree_4_3_u09_r9_network.node[7].content_store 	decision_ratio[7] 	0.099353231656688
scalar tree_4_3_u09_r9_network.node[8].core_layer 	interests[8] 	28240
scalar tree_4_3_u09_r9_network.node[8].core_layer 	data[8] 	27224
scalar tree_4_3_u09_r9_network.node[8].content_store 	p_hit[8] 	0.035906515580737
scalar tree_4_3_u09_r9_network.node[8].content_store 	hits[8] 	1014
scalar tree_4_3_u09_r9_network.node[8].content_store 	misses[8] 	27226
scalar tree_4_3_u09_r9_network.node[8].content_store 	decision_yes[8] 	2722
scalar tree_4_3_u09_r9_network.node[8].content_store 	decision_no[8] 	24502
scalar tree_4_3_u09_r9_network.node[8].content_store 	decision_ratio[8] 	0.099985307081986
scalar tree_4_3_u09_r9_network.node[9].core_layer 	interests[9] 	9554
scalar tree_4_3_u09_r9_network.node[9].core_layer 	data[9] 	9210
scalar tree_4_3_u09_r9_network.node[9].content_store 	p_hit[9] 	0.036005861419301
scalar tree_4_3_u09_r9_network.node[9].content_store 	hits[9] 	344
scalar tree_4_3_u09_r9_network.node[9].content_store 	misses[9] 	9210
scalar tree_4_3_u09_r9_network.node[9].content_store 	decision_yes[9] 	937
scalar tree_4_3_u09_r9_network.node[9].content_store 	decision_no[9] 	8273
scalar tree_4_3_u09_r9_network.node[9].content_store 	decision_ratio[9] 	0.10173724212812
scalar tree_4_3_u09_r9_network.node[10].core_layer 	interests[10] 	28481
scalar tree_4_3_u09_r9_network.node[10].core_layer 	data[10] 	27574
scalar tree_4_3_u09_r9_network.node[10].content_store 	p_hit[10] 	0.031845791931463
scalar tree_4_3_u09_r9_network.node[10].content_store 	hits[10] 	907
scalar tree_4_3_u09_r9_network.node[10].content_store 	misses[10] 	27574
scalar tree_4_3_u09_r9_network.node[10].content_store 	decision_yes[10] 	2789
scalar tree_4_3_u09_r9_network.node[10].content_store 	decision_no[10] 	24785
scalar tree_4_3_u09_r9_network.node[10].content_store 	decision_ratio[10] 	0.10114600710815
scalar tree_4_3_u09_r9_network.node[11].core_layer 	interests[11] 	47765
scalar tree_4_3_u09_r9_network.node[11].core_layer 	data[11] 	46113
scalar tree_4_3_u09_r9_network.node[11].content_store 	p_hit[11] 	0.034544122265257
scalar tree_4_3_u09_r9_network.node[11].content_store 	hits[11] 	1650
scalar tree_4_3_u09_r9_network.node[11].content_store 	misses[11] 	46115
scalar tree_4_3_u09_r9_network.node[11].content_store 	decision_yes[11] 	4595
scalar tree_4_3_u09_r9_network.node[11].content_store 	decision_no[11] 	41518
scalar tree_4_3_u09_r9_network.node[11].content_store 	decision_ratio[11] 	0.099646520503979
scalar tree_4_3_u09_r9_network.node[12].core_layer 	interests[12] 	9451
scalar tree_4_3_u09_r9_network.node[12].core_layer 	data[12] 	9099
scalar tree_4_3_u09_r9_network.node[12].content_store 	p_hit[12] 	0.037244736006772
scalar tree_4_3_u09_r9_network.node[12].content_store 	hits[12] 	352
scalar tree_4_3_u09_r9_network.node[12].content_store 	misses[12] 	9099
scalar tree_4_3_u09_r9_network.node[12].content_store 	decision_yes[12] 	966
scalar tree_4_3_u09_r9_network.node[12].content_store 	decision_no[12] 	8133
scalar tree_4_3_u09_r9_network.node[12].content_store 	decision_ratio[12] 	0.1061655126937
scalar tree_4_3_u09_r9_network.node[13].core_layer 	interests[13] 	11910
scalar tree_4_3_u09_r9_network.node[13].core_layer 	data[13] 	9363
scalar tree_4_3_u09_r9_network.node[13].content_store 	p_hit[13] 	0.21385390428212
scalar tree_4_3_u09_r9_network.node[13].content_store 	hits[13] 	2547
scalar tree_4_3_u09_r9_network.node[13].content_store 	misses[13] 	9363
scalar tree_4_3_u09_r9_network.node[13].content_store 	decision_yes[13] 	957
scalar tree_4_3_u09_r9_network.node[13].content_store 	decision_no[13] 	8406
scalar tree_4_3_u09_r9_network.node[13].content_store 	decision_ratio[13] 	0.10221082986222
scalar tree_4_3_u09_r9_network.node[14].core_layer 	interests[14] 	12181
scalar tree_4_3_u09_r9_network.node[14].core_layer 	data[14] 	9618
scalar tree_4_3_u09_r9_network.node[14].content_store 	p_hit[14] 	0.21040965437977
scalar tree_4_3_u09_r9_network.node[14].content_store 	hits[14] 	2563
scalar tree_4_3_u09_r9_network.node[14].content_store 	misses[14] 	9618
scalar tree_4_3_u09_r9_network.node[14].content_store 	decision_yes[14] 	1015
scalar tree_4_3_u09_r9_network.node[14].content_store 	decision_no[14] 	8603
scalar tree_4_3_u09_r9_network.node[14].content_store 	decision_ratio[14] 	0.10553129548763
scalar tree_4_3_u09_r9_network.node[15].core_layer 	interests[15] 	11916
scalar tree_4_3_u09_r9_network.node[15].core_layer 	data[15] 	9521
scalar tree_4_3_u09_r9_network.node[15].content_store 	p_hit[15] 	0.20082242363209
scalar tree_4_3_u09_r9_network.node[15].content_store 	hits[15] 	2393
scalar tree_4_3_u09_r9_network.node[15].content_store 	misses[15] 	9523
scalar tree_4_3_u09_r9_network.node[15].content_store 	decision_yes[15] 	945
scalar tree_4_3_u09_r9_network.node[15].content_store 	decision_no[15] 	8576
scalar tree_4_3_u09_r9_network.node[15].content_store 	decision_ratio[15] 	0.099254280012604
scalar tree_4_3_u09_r9_network.node[16].core_layer 	interests[16] 	12079
scalar tree_4_3_u09_r9_network.node[16].core_layer 	data[16] 	9512
scalar tree_4_3_u09_r9_network.node[16].content_store 	p_hit[16] 	0.21243480420565
scalar tree_4_3_u09_r9_network.node[16].content_store 	hits[16] 	2566
scalar tree_4_3_u09_r9_network.node[16].content_store 	misses[16] 	9513
scalar tree_4_3_u09_r9_network.node[16].content_store 	decision_yes[16] 	983
scalar tree_4_3_u09_r9_network.node[16].content_store 	decision_no[16] 	8529
scalar tree_4_3_u09_r9_network.node[16].content_store 	decision_ratio[16] 	0.10334314550042
scalar tree_4_3_u09_r9_network.node[17].core_layer 	interests[17] 	12140
scalar tree_4_3_u09_r9_network.node[17].core_layer 	data[17] 	9747
scalar tree_4_3_u09_r9_network.node[17].content_store 	p_hit[17] 	0.19711696869852
scalar tree_4_3_u09_r9_network.node[17].content_store 	hits[17] 	2393
scalar tree_4_3_u09_r9_network.node[17].content_store 	misses[17] 	9747
scalar tree_4_3_u09_r9_network.node[17].content_store 	decision_yes[17] 	993
scalar tree_4_3_u09_r9_network.node[17].content_store 	decision_no[17] 	8754
scalar tree_4_3_u09_r9_network.node[17].content_store 	decision_ratio[17] 	0.10187750076947
scalar tree_4_3_u09_r9_network.node[18].core_layer 	interests[18] 	11964
scalar tree_4_3_u09_r9_network.node[18].core_layer 	data[18] 	9392
scalar tree_4_3_u09_r9_network.node[18].content_store 	p_hit[18] 	0.21489468405216
scalar tree_4_3_u09_r9_network.node[18].content_store 	hits[18] 	2571
scalar tree_4_3_u09_r9_network.node[18].content_store 	misses[18] 	9393
scalar tree_4_3_u09_r9_network.node[18].content_store 	decision_yes[18] 	914
scalar tree_4_3_u09_r9_network.node[18].content_store 	decision_no[18] 	8478
scalar tree_4_3_u09_r9_network.node[18].content_store 	decision_ratio[18] 	0.097316865417376
scalar tree_4_3_u09_r9_network.node[19].core_layer 	interests[19] 	12007
scalar tree_4_3_u09_r9_network.node[19].core_layer 	data[19] 	9457
scalar tree_4_3_u09_r9_network.node[19].content_store 	p_hit[19] 	0.21237611393354
scalar tree_4_3_u09_r9_network.node[19].content_store 	hits[19] 	2550
scalar tree_4_3_u09_r9_network.node[19].content_store 	misses[19] 	9457
scalar tree_4_3_u09_r9_network.node[19].content_store 	decision_yes[19] 	1011
scalar tree_4_3_u09_r9_network.node[19].content_store 	decision_no[19] 	8446
scalar tree_4_3_u09_r9_network.node[19].content_store 	decision_ratio[19] 	0.10690493814106
scalar tree_4_3_u09_r9_network.node[20].core_layer 	interests[20] 	12086
scalar tree_4_3_u09_r9_network.node[20].core_layer 	data[20] 	9667
scalar tree_4_3_u09_r9_network.node[20].content_store 	p_hit[20] 	0.2000661922886
scalar tree_4_3_u09_r9_network.node[20].content_store 	hits[20] 	2418
scalar tree_4_3_u09_r9_network.node[20].content_store 	misses[20] 	9668
scalar tree_4_3_u09_r9_network.node[20].content_store 	decision_yes[20] 	988
scalar tree_4_3_u09_r9_network.node[20].content_store 	decision_no[20] 	8679
scalar tree_4_3_u09_r9_network.node[20].content_store 	decision_ratio[20] 	0.10220337229751
scalar tree_4_3_u09_r9_network.node[21].core_layer 	interests[21] 	11945
scalar tree_4_3_u09_r9_network.node[21].core_layer 	data[21] 	9481
scalar tree_4_3_u09_r9_network.node[21].content_store 	p_hit[21] 	0.20627877773127
scalar tree_4_3_u09_r9_network.node[21].content_store 	hits[21] 	2464
scalar tree_4_3_u09_r9_network.node[21].content_store 	misses[21] 	9481
scalar tree_4_3_u09_r9_network.node[21].content_store 	decision_yes[21] 	955
scalar tree_4_3_u09_r9_network.node[21].content_store 	decision_no[21] 	8526
scalar tree_4_3_u09_r9_network.node[21].content_store 	decision_ratio[21] 	0.10072777133214
scalar tree_4_3_u09_r9_network.node[22].core_layer 	interests[22] 	12067
scalar tree_4_3_u09_r9_network.node[22].core_layer 	data[22] 	9446
scalar tree_4_3_u09_r9_network.node[22].content_store 	p_hit[22] 	0.21720394464241
scalar tree_4_3_u09_r9_network.node[22].content_store 	hits[22] 	2621
scalar tree_4_3_u09_r9_network.node[22].content_store 	misses[22] 	9446
scalar tree_4_3_u09_r9_network.node[22].content_store 	decision_yes[22] 	955
scalar tree_4_3_u09_r9_network.node[22].content_store 	decision_no[22] 	8491
scalar tree_4_3_u09_r9_network.node[22].content_store 	decision_ratio[22] 	0.10110099513021
scalar tree_4_3_u09_r9_network.node[23].core_layer 	interests[23] 	12035
scalar tree_4_3_u09_r9_network.node[23].core_layer 	data[23] 	9578
scalar tree_4_3_u09_r9_network.node[23].content_store 	p_hit[23] 	0.20415454923141
scalar tree_4_3_u09_r9_network.node[23].content_store 	hits[23] 	2457
scalar tree_4_3_u09_r9_network.node[23].content_store 	misses[23] 	9578
scalar tree_4_3_u09_r9_network.node[23].content_store 	decision_yes[23] 	996
scalar tree_4_3_u09_r9_network.node[23].content_store 	decision_no[23] 	8582
scalar tree_4_3_u09_r9_network.node[23].content_store 	decision_ratio[23] 	0.10398830653581
scalar tree_4_3_u09_r9_network.node[24].core_layer 	interests[24] 	11878
scalar tree_4_3_u09_r9_network.node[24].core_layer 	data[24] 	9481
scalar tree_4_3_u09_r9_network.node[24].content_store 	p_hit[24] 	0.201717460852
scalar tree_4_3_u09_r9_network.node[24].content_store 	hits[24] 	2396
scalar tree_4_3_u09_r9_network.node[24].content_store 	misses[24] 	9482
scalar tree_4_3_u09_r9_network.node[24].content_store 	decision_yes[24] 	942
scalar tree_4_3_u09_r9_network.node[24].content_store 	decision_no[24] 	8539
scalar tree_4_3_u09_r9_network.node[24].content_store 	decision_ratio[24] 	0.099356607952748
scalar tree_4_3_u09_r9_network.node[25].core_layer 	interests[25] 	11773
scalar tree_4_3_u09_r9_network.node[25].core_layer 	data[25] 	9390
scalar tree_4_3_u09_r9_network.node[25].content_store 	p_hit[25] 	0.20241229932897
scalar tree_4_3_u09_r9_network.node[25].content_store 	hits[25] 	2383
scalar tree_4_3_u09_r9_network.node[25].content_store 	misses[25] 	9390
scalar tree_4_3_u09_r9_network.node[25].content_store 	decision_yes[25] 	941
scalar tree_4_3_u09_r9_network.node[25].content_store 	decision_no[25] 	8449
scalar tree_4_3_u09_r9_network.node[25].content_store 	decision_ratio[25] 	0.10021299254526
scalar tree_4_3_u09_r9_network.node[26].core_layer 	interests[26] 	12098
scalar tree_4_3_u09_r9_network.node[26].core_layer 	data[26] 	9570
scalar tree_4_3_u09_r9_network.node[26].content_store 	p_hit[26] 	0.20896015870392
scalar tree_4_3_u09_r9_network.node[26].content_store 	hits[26] 	2528
scalar tree_4_3_u09_r9_network.node[26].content_store 	misses[26] 	9570
scalar tree_4_3_u09_r9_network.node[26].content_store 	decision_yes[26] 	938
scalar tree_4_3_u09_r9_network.node[26].content_store 	decision_no[26] 	8632
scalar tree_4_3_u09_r9_network.node[26].content_store 	decision_ratio[26] 	0.098014629049112
scalar tree_4_3_u09_r9_network.node[27].core_layer 	interests[27] 	11814
scalar tree_4_3_u09_r9_network.node[27].core_layer 	data[27] 	9355
scalar tree_4_3_u09_r9_network.node[27].content_store 	p_hit[27] 	0.2080582359912
scalar tree_4_3_u09_r9_network.node[27].content_store 	hits[27] 	2458
scalar tree_4_3_u09_r9_network.node[27].content_store 	misses[27] 	9356
scalar tree_4_3_u09_r9_network.node[27].content_store 	decision_yes[27] 	955
scalar tree_4_3_u09_r9_network.node[27].content_store 	decision_no[27] 	8400
scalar tree_4_3_u09_r9_network.node[27].content_store 	decision_ratio[27] 	0.10208444681988
scalar tree_4_3_u09_r9_network.node[28].core_layer 	interests[28] 	12014
scalar tree_4_3_u09_r9_network.node[28].core_layer 	data[28] 	9528
scalar tree_4_3_u09_r9_network.node[28].content_store 	p_hit[28] 	0.20692525387048
scalar tree_4_3_u09_r9_network.node[28].content_store 	hits[28] 	2486
scalar tree_4_3_u09_r9_network.node[28].content_store 	misses[28] 	9528
scalar tree_4_3_u09_r9_network.node[28].content_store 	decision_yes[28] 	921
scalar tree_4_3_u09_r9_network.node[28].content_store 	decision_no[28] 	8607
scalar tree_4_3_u09_r9_network.node[28].content_store 	decision_ratio[28] 	0.096662468513854
scalar tree_4_3_u09_r9_network.node[29].core_layer 	interests[29] 	11726
scalar tree_4_3_u09_r9_network.node[29].core_layer 	data[29] 	9314
scalar tree_4_3_u09_r9_network.node[29].content_store 	p_hit[29] 	0.20569674228211
scalar tree_4_3_u09_r9_network.node[29].content_store 	hits[29] 	2412
scalar tree_4_3_u09_r9_network.node[29].content_store 	misses[29] 	9314
scalar tree_4_3_u09_r9_network.node[29].content_store 	decision_yes[29] 	965
scalar tree_4_3_u09_r9_network.node[29].content_store 	decision_no[29] 	8349
scalar tree_4_3_u09_r9_network.node[29].content_store 	decision_ratio[29] 	0.10360747262186
scalar tree_4_3_u09_r9_network.node[30].core_layer 	interests[30] 	11895
scalar tree_4_3_u09_r9_network.node[30].core_layer 	data[30] 	9554
scalar tree_4_3_u09_r9_network.node[30].content_store 	p_hit[30] 	0.19680538041194
scalar tree_4_3_u09_r9_network.node[30].content_store 	hits[30] 	2341
scalar tree_4_3_u09_r9_network.node[30].content_store 	misses[30] 	9554
scalar tree_4_3_u09_r9_network.node[30].content_store 	decision_yes[30] 	975
scalar tree_4_3_u09_r9_network.node[30].content_store 	decision_no[30] 	8579
scalar tree_4_3_u09_r9_network.node[30].content_store 	decision_ratio[30] 	0.10205149675529
scalar tree_4_3_u09_r9_network.node[31].core_layer 	interests[31] 	11909
scalar tree_4_3_u09_r9_network.node[31].core_layer 	data[31] 	9452
scalar tree_4_3_u09_r9_network.node[31].content_store 	p_hit[31] 	0.20631455201948
scalar tree_4_3_u09_r9_network.node[31].content_store 	hits[31] 	2457
scalar tree_4_3_u09_r9_network.node[31].content_store 	misses[31] 	9452
scalar tree_4_3_u09_r9_network.node[31].content_store 	decision_yes[31] 	938
scalar tree_4_3_u09_r9_network.node[31].content_store 	decision_no[31] 	8514
scalar tree_4_3_u09_r9_network.node[31].content_store 	decision_ratio[31] 	0.099238256453661
scalar tree_4_3_u09_r9_network.node[32].core_layer 	interests[32] 	12016
scalar tree_4_3_u09_r9_network.node[32].core_layer 	data[32] 	9477
scalar tree_4_3_u09_r9_network.node[32].content_store 	p_hit[32] 	0.21130159786951
scalar tree_4_3_u09_r9_network.node[32].content_store 	hits[32] 	2539
scalar tree_4_3_u09_r9_network.node[32].content_store 	misses[32] 	9477
scalar tree_4_3_u09_r9_network.node[32].content_store 	decision_yes[32] 	936
scalar tree_4_3_u09_r9_network.node[32].content_store 	decision_no[32] 	8541
scalar tree_4_3_u09_r9_network.node[32].content_store 	decision_ratio[32] 	0.098765432098765
scalar tree_4_3_u09_r9_network.node[33].core_layer 	interests[33] 	12038
scalar tree_4_3_u09_r9_network.node[33].core_layer 	data[33] 	9594
scalar tree_4_3_u09_r9_network.node[33].content_store 	p_hit[33] 	0.20302375809935
scalar tree_4_3_u09_r9_network.node[33].content_store 	hits[33] 	2444
scalar tree_4_3_u09_r9_network.node[33].content_store 	misses[33] 	9594
scalar tree_4_3_u09_r9_network.node[33].content_store 	decision_yes[33] 	1042
scalar tree_4_3_u09_r9_network.node[33].content_store 	decision_no[33] 	8552
scalar tree_4_3_u09_r9_network.node[33].content_store 	decision_ratio[33] 	0.10860954763394
scalar tree_4_3_u09_r9_network.node[34].core_layer 	interests[34] 	12172
scalar tree_4_3_u09_r9_network.node[34].core_layer 	data[34] 	9697
scalar tree_4_3_u09_r9_network.node[34].content_store 	p_hit[34] 	0.2033355241538
scalar tree_4_3_u09_r9_network.node[34].content_store 	hits[34] 	2475
scalar tree_4_3_u09_r9_network.node[34].content_store 	misses[34] 	9697
scalar tree_4_3_u09_r9_network.node[34].content_store 	decision_yes[34] 	988
scalar tree_4_3_u09_r9_network.node[34].content_store 	decision_no[34] 	8709
scalar tree_4_3_u09_r9_network.node[34].content_store 	decision_ratio[34] 	0.10188718160256
scalar tree_4_3_u09_r9_network.node[35].core_layer 	interests[35] 	11927
scalar tree_4_3_u09_r9_network.node[35].core_layer 	data[35] 	9527
scalar tree_4_3_u09_r9_network.node[35].content_store 	p_hit[35] 	0.20122411335625
scalar tree_4_3_u09_r9_network.node[35].content_store 	hits[35] 	2400
scalar tree_4_3_u09_r9_network.node[35].content_store 	misses[35] 	9527
scalar tree_4_3_u09_r9_network.node[35].content_store 	decision_yes[35] 	933
scalar tree_4_3_u09_r9_network.node[35].content_store 	decision_no[35] 	8594
scalar tree_4_3_u09_r9_network.node[35].content_store 	decision_ratio[35] 	0.09793219271544
scalar tree_4_3_u09_r9_network.node[36].core_layer 	interests[36] 	12221
scalar tree_4_3_u09_r9_network.node[36].core_layer 	data[36] 	9623
scalar tree_4_3_u09_r9_network.node[36].content_store 	p_hit[36] 	0.21250306848867
scalar tree_4_3_u09_r9_network.node[36].content_store 	hits[36] 	2597
scalar tree_4_3_u09_r9_network.node[36].content_store 	misses[36] 	9624
scalar tree_4_3_u09_r9_network.node[36].content_store 	decision_yes[36] 	958
scalar tree_4_3_u09_r9_network.node[36].content_store 	decision_no[36] 	8665
scalar tree_4_3_u09_r9_network.node[36].content_store 	decision_ratio[36] 	0.09955315390211
scalar tree_4_3_u09_r9_network.node[37].core_layer 	interests[37] 	11969
scalar tree_4_3_u09_r9_network.node[37].core_layer 	data[37] 	9435
scalar tree_4_3_u09_r9_network.node[37].content_store 	p_hit[37] 	0.21163004428106
scalar tree_4_3_u09_r9_network.node[37].content_store 	hits[37] 	2533
scalar tree_4_3_u09_r9_network.node[37].content_store 	misses[37] 	9436
scalar tree_4_3_u09_r9_network.node[37].content_store 	decision_yes[37] 	929
scalar tree_4_3_u09_r9_network.node[37].content_store 	decision_no[37] 	8506
scalar tree_4_3_u09_r9_network.node[37].content_store 	decision_ratio[37] 	0.098463169051404
scalar tree_4_3_u09_r9_network.node[38].core_layer 	interests[38] 	11771
scalar tree_4_3_u09_r9_network.node[38].core_layer 	data[38] 	9441
scalar tree_4_3_u09_r9_network.node[38].content_store 	p_hit[38] 	0.19794409990655
scalar tree_4_3_u09_r9_network.node[38].content_store 	hits[38] 	2330
scalar tree_4_3_u09_r9_network.node[38].content_store 	misses[38] 	9441
scalar tree_4_3_u09_r9_network.node[38].content_store 	decision_yes[38] 	960
scalar tree_4_3_u09_r9_network.node[38].content_store 	decision_no[38] 	8481
scalar tree_4_3_u09_r9_network.node[38].content_store 	decision_ratio[38] 	0.10168414362885
scalar tree_4_3_u09_r9_network.node[39].core_layer 	interests[39] 	11950
scalar tree_4_3_u09_r9_network.node[39].core_layer 	data[39] 	9451
scalar tree_4_3_u09_r9_network.node[39].content_store 	p_hit[39] 	0.20912133891213
scalar tree_4_3_u09_r9_network.node[39].content_store 	hits[39] 	2499
scalar tree_4_3_u09_r9_network.node[39].content_store 	misses[39] 	9451
scalar tree_4_3_u09_r9_network.node[39].content_store 	decision_yes[39] 	913
scalar tree_4_3_u09_r9_network.node[39].content_store 	decision_no[39] 	8538
scalar tree_4_3_u09_r9_network.node[39].content_store 	decision_ratio[39] 	0.096603534017564
scalar tree_4_3_u09_r9_network.client[13] 	hdistance[13] 	3.0087321578506
scalar tree_4_3_u09_r9_network.client[13] 	downloads[13] 	11910
scalar tree_4_3_u09_r9_network.client[13] 	avg_time[13] 	0.004567251406
scalar tree_4_3_u09_r9_network.client[14] 	hdistance[14] 	3.0385025859946
scalar tree_4_3_u09_r9_network.client[14] 	downloads[14] 	12181
scalar tree_4_3_u09_r9_network.client[14] 	avg_time[14] 	0.004607007856
scalar tree_4_3_u09_r9_network.client[15] 	hdistance[15] 	3.0707570924962
scalar tree_4_3_u09_r9_network.client[15] 	downloads[15] 	11914
scalar tree_4_3_u09_r9_network.client[15] 	avg_time[15] 	0.004659379255
scalar tree_4_3_u09_r9_network.client[16] 	hdistance[16] 	3.0176353700944
scalar tree_4_3_u09_r9_network.client[16] 	downloads[16] 	12078
scalar tree_4_3_u09_r9_network.client[16] 	avg_time[16] 	0.004578797372
scalar tree_4_3_u09_r9_network.client[17] 	hdistance[17] 	3.0776771004942
scalar tree_4_3_u09_r9_network.client[17] 	downloads[17] 	12140
scalar tree_4_3_u09_r9_network.client[17] 	avg_time[17] 	0.004669848689
scalar tree_4_3_u09_r9_network.client[18] 	hdistance[18] 	3.0155479394801
scalar tree_4_3_u09_r9_network.client[18] 	downloads[18] 	11963
scalar tree_4_3_u09_r9_network.client[18] 	avg_time[18] 	0.004576000835
scalar tree_4_3_u09_r9_network.client[19] 	hdistance[19] 	3.0238194386608
scalar tree_4_3_u09_r9_network.client[19] 	downloads[19] 	12007
scalar tree_4_3_u09_r9_network.client[19] 	avg_time[19] 	0.004588901317
scalar tree_4_3_u09_r9_network.client[20] 	hdistance[20] 	3.0733140256516
scalar tree_4_3_u09_r9_network.client[20] 	downloads[20] 	12085
scalar tree_4_3_u09_r9_network.client[20] 	avg_time[20] 	0.004661162442
scalar tree_4_3_u09_r9_network.client[21] 	hdistance[21] 	3.0408539137714
scalar tree_4_3_u09_r9_network.client[21] 	downloads[21] 	11945
scalar tree_4_3_u09_r9_network.client[21] 	avg_time[21] 	0.004613140612
scalar tree_4_3_u09_r9_network.client[22] 	hdistance[22] 	2.9995856468053
scalar tree_4_3_u09_r9_network.client[22] 	downloads[22] 	12067
scalar tree_4_3_u09_r9_network.client[22] 	avg_time[22] 	0.004549269619
scalar tree_4_3_u09_r9_network.client[23] 	hdistance[23] 	3.0442044038222
scalar tree_4_3_u09_r9_network.client[23] 	downloads[23] 	12035
scalar tree_4_3_u09_r9_network.client[23] 	avg_time[23] 	0.004619039922
scalar tree_4_3_u09_r9_network.client[24] 	hdistance[24] 	3.0629788667172
scalar tree_4_3_u09_r9_network.client[24] 	downloads[24] 	11877
scalar tree_4_3_u09_r9_network.client[24] 	avg_time[24] 	0.004645468491
scalar tree_4_3_u09_r9_network.client[25] 	hdistance[25] 	3.0618364053342
scalar tree_4_3_u09_r9_network.client[25] 	downloads[25] 	11773
scalar tree_4_3_u09_r9_network.client[25] 	avg_time[25] 	0.004645202185
scalar tree_4_3_u09_r9_network.client[26] 	hdistance[26] 	3.0393453463382
scalar tree_4_3_u09_r9_network.client[26] 	downloads[26] 	12098
scalar tree_4_3_u09_r9_network.client[26] 	avg_time[26] 	0.004610015176
scalar tree_4_3_u09_r9_network.client[27] 	hdistance[27] 	3.0270888004741
scalar tree_4_3_u09_r9_network.client[27] 	downloads[27] 	11813
scalar tree_4_3_u09_r9_network.client[27] 	avg_time[27] 	0.004595612031
scalar tree_4_3_u09_r9_network.client[28] 	hdistance[28] 	3.0418678208757
scalar tree_4_3_u09_r9_network.client[28] 	downloads[28] 	12014
scalar tree_4_3_u09_r9_network.client[28] 	avg_time[28] 	0.004615112673
scalar tree_4_3_u09_r9_network.client[29] 	hdistance[29] 	3.0405082722156
scalar tree_4_3_u09_r9_network.client[29] 	downloads[29] 	11726
scalar tree_4_3_u09_r9_network.client[29] 	avg_time[29] 	0.004612354017
scalar tree_4_3_u09_r9_network.client[30] 	hdistance[30] 	3.070533837747
scalar tree_4_3_u09_r9_network.client[30] 	downloads[30] 	11895
scalar tree_4_3_u09_r9_network.client[30] 	avg_time[30] 	0.004663213205
scalar tree_4_3_u09_r9_network.client[31] 	hdistance[31] 	3.0388781593753
scalar tree_4_3_u09_r9_network.client[31] 	downloads[31] 	11909
scalar tree_4_3_u09_r9_network.client[31] 	avg_time[31] 	0.004611635271
scalar tree_4_3_u09_r9_network.client[32] 	hdistance[32] 	3.025965379494
scalar tree_4_3_u09_r9_network.client[32] 	downloads[32] 	12016
scalar tree_4_3_u09_r9_network.client[32] 	avg_time[32] 	0.004591375168
scalar tree_4_3_u09_r9_network.client[33] 	hdistance[33] 	3.0564047183918
scalar tree_4_3_u09_r9_network.client[33] 	downloads[33] 	12038
scalar tree_4_3_u09_r9_network.client[33] 	avg_time[33] 	0.004641133391
scalar tree_4_3_u09_r9_network.client[34] 	hdistance[34] 	3.0530726256983
scalar tree_4_3_u09_r9_network.client[34] 	downloads[34] 	12172
scalar tree_4_3_u09_r9_network.client[34] 	avg_time[34] 	0.004634075159
scalar tree_4_3_u09_r9_network.client[35] 	hdistance[35] 	3.0645594030351
scalar tree_4_3_u09_r9_network.client[35] 	downloads[35] 	11927
scalar tree_4_3_u09_r9_network.client[35] 	avg_time[35] 	0.004648063067
scalar tree_4_3_u09_r9_network.client[36] 	hdistance[36] 	3.0153846153846
scalar tree_4_3_u09_r9_network.client[36] 	downloads[36] 	12220
scalar tree_4_3_u09_r9_network.client[36] 	avg_time[36] 	0.00457745677
scalar tree_4_3_u09_r9_network.client[37] 	hdistance[37] 	3.0357620320856
scalar tree_4_3_u09_r9_network.client[37] 	downloads[37] 	11968
scalar tree_4_3_u09_r9_network.client[37] 	avg_time[37] 	0.00460360918
scalar tree_4_3_u09_r9_network.client[38] 	hdistance[38] 	3.0775635035256
scalar tree_4_3_u09_r9_network.client[38] 	downloads[38] 	11771
scalar tree_4_3_u09_r9_network.client[38] 	avg_time[38] 	0.004668079659
scalar tree_4_3_u09_r9_network.client[39] 	hdistance[39] 	3.0233472803347
scalar tree_4_3_u09_r9_network.client[39] 	downloads[39] 	11950
scalar tree_4_3_u09_r9_network.client[39] 	avg_time[39] 	0.004590482627
