version 2
run General-103-20160818-19:32:40-19481
attr a 0.9
attr cd lce
attr configname General
attr cr lru
attr datetime 20160818-19:32:40
attr experiment General
attr fsize 1
attr inifile hw5115/scenario_A/EdgeCoop.ini
attr iterationvars "$name=tree_4_3, $un=05, $rep=4, $scenario=Edge, $cd=lce, $cr=lru, $fsize=1, $a=0.9, $sl=nrr, $ttl=1000, $variance=0.05"
attr iterationvars2 "$name=tree_4_3, $un=05, $rep=4, $scenario=Edge, $cd=lce, $cr=lru, $fsize=1, $a=0.9, $sl=nrr, $ttl=1000, $variance=0.05, $repetition=0"
attr measurement "$name=tree_4_3, $un=05, $rep=4, $scenario=Edge, $cd=lce, $cr=lru, $fsize=1, $a=0.9, $sl=nrr, $ttl=1000, $variance=0.05"
attr name tree_4_3
attr network networks.${name}_u${un}_r${rep}_network
attr processid 19481
attr rep 4
attr repetition 0
attr replication #0
attr resultdir results
attr runnumber 103
attr scenario Edge
attr seedset 4
attr sl nrr
attr ttl 1000
attr un 05
attr variance 0.05

scalar . 	a 	0.9
scalar . 	fsize 	1
scalar . 	rep 	4
scalar . 	ttl 	1000
scalar . 	un 	05
scalar . 	variance 	0.05
scalar tree_4_3_u05_r4_network.content_distribution 	repo-0 	0
scalar tree_4_3_u05_r4_network.content_distribution 	client-0 	13
scalar tree_4_3_u05_r4_network.content_distribution 	client-1 	14
scalar tree_4_3_u05_r4_network.content_distribution 	client-2 	15
scalar tree_4_3_u05_r4_network.content_distribution 	client-3 	16
scalar tree_4_3_u05_r4_network.content_distribution 	client-4 	17
scalar tree_4_3_u05_r4_network.content_distribution 	client-5 	18
scalar tree_4_3_u05_r4_network.content_distribution 	client-6 	19
scalar tree_4_3_u05_r4_network.content_distribution 	client-7 	20
scalar tree_4_3_u05_r4_network.content_distribution 	client-8 	21
scalar tree_4_3_u05_r4_network.content_distribution 	client-9 	22
scalar tree_4_3_u05_r4_network.content_distribution 	client-10 	23
scalar tree_4_3_u05_r4_network.content_distribution 	client-11 	24
scalar tree_4_3_u05_r4_network.content_distribution 	client-12 	25
scalar tree_4_3_u05_r4_network.content_distribution 	client-13 	26
scalar tree_4_3_u05_r4_network.content_distribution 	client-14 	27
scalar tree_4_3_u05_r4_network.content_distribution 	client-15 	28
scalar tree_4_3_u05_r4_network.content_distribution 	client-16 	29
scalar tree_4_3_u05_r4_network.content_distribution 	client-17 	30
scalar tree_4_3_u05_r4_network.content_distribution 	client-18 	31
scalar tree_4_3_u05_r4_network.content_distribution 	client-19 	32
scalar tree_4_3_u05_r4_network.content_distribution 	client-20 	33
scalar tree_4_3_u05_r4_network.content_distribution 	client-21 	34
scalar tree_4_3_u05_r4_network.content_distribution 	client-22 	35
scalar tree_4_3_u05_r4_network.content_distribution 	client-23 	36
scalar tree_4_3_u05_r4_network.content_distribution 	client-24 	37
scalar tree_4_3_u05_r4_network.content_distribution 	client-25 	38
scalar tree_4_3_u05_r4_network.content_distribution 	client-26 	39
scalar tree_4_3_u05_r4_network.content_distribution 	repo-0_card 	100000
scalar tree_4_3_u05_r4_network.content_distribution 	repo-0_price 	0
scalar tree_4_3_u05_r4_network.statistics 	stabilization_time 	276.1
scalar tree_4_3_u05_r4_network.statistics 	p_hit 	0.2052920273523
scalar tree_4_3_u05_r4_network.statistics 	interests 	28274.05
scalar tree_4_3_u05_r4_network.statistics 	data 	20182.3
scalar tree_4_3_u05_r4_network.statistics 	hdistance 	3.1239275685417
scalar tree_4_3_u05_r4_network.statistics 	avg_time 	0.004988261371
scalar tree_4_3_u05_r4_network.statistics 	downloads 	323664
scalar tree_4_3_u05_r4_network.statistics 	total_cost 	0
scalar tree_4_3_u05_r4_network.statistics 	total_replicas 	100000
scalar tree_4_3_u05_r4_network.statistics 	inner_hit 	0.37014620099857
scalar tree_4_3_u05_r4_network.node[0].core_layer 	interests[0] 	203861
scalar tree_4_3_u05_r4_network.node[0].core_layer 	repo_load[0] 	203861
scalar tree_4_3_u05_r4_network.node[0].core_layer 	data[0] 	0
scalar tree_4_3_u05_r4_network.node[0].core_layer 	repo_int[0] 	203861
scalar tree_4_3_u05_r4_network.node[0].content_store 	p_hit[0] 	0
scalar tree_4_3_u05_r4_network.node[0].content_store 	hits[0] 	0
scalar tree_4_3_u05_r4_network.node[0].content_store 	misses[0] 	203861
scalar tree_4_3_u05_r4_network.node[0].content_store 	decision_yes[0] 	0
scalar tree_4_3_u05_r4_network.node[0].content_store 	decision_no[0] 	203861
scalar tree_4_3_u05_r4_network.node[0].content_store 	decision_ratio[0] 	0
scalar tree_4_3_u05_r4_network.node[1].core_layer 	interests[1] 	71308
scalar tree_4_3_u05_r4_network.node[1].core_layer 	data[1] 	71308
scalar tree_4_3_u05_r4_network.node[1].content_store 	p_hit[1] 	0
scalar tree_4_3_u05_r4_network.node[1].content_store 	hits[1] 	0
scalar tree_4_3_u05_r4_network.node[1].content_store 	misses[1] 	71308
scalar tree_4_3_u05_r4_network.node[1].content_store 	decision_yes[1] 	0
scalar tree_4_3_u05_r4_network.node[1].content_store 	decision_no[1] 	71305
scalar tree_4_3_u05_r4_network.node[1].content_store 	decision_ratio[1] 	0
scalar tree_4_3_u05_r4_network.node[2].core_layer 	interests[2] 	115638
scalar tree_4_3_u05_r4_network.node[2].core_layer 	data[2] 	115629
scalar tree_4_3_u05_r4_network.node[2].content_store 	p_hit[2] 	0
scalar tree_4_3_u05_r4_network.node[2].content_store 	hits[2] 	0
scalar tree_4_3_u05_r4_network.node[2].content_store 	misses[2] 	115638
scalar tree_4_3_u05_r4_network.node[2].content_store 	decision_yes[2] 	0
scalar tree_4_3_u05_r4_network.node[2].content_store 	decision_no[2] 	115616
scalar tree_4_3_u05_r4_network.node[2].content_store 	decision_ratio[2] 	0
scalar tree_4_3_u05_r4_network.node[3].core_layer 	interests[3] 	47906
scalar tree_4_3_u05_r4_network.node[3].core_layer 	data[3] 	47906
scalar tree_4_3_u05_r4_network.node[3].content_store 	p_hit[3] 	0
scalar tree_4_3_u05_r4_network.node[3].content_store 	hits[3] 	0
scalar tree_4_3_u05_r4_network.node[3].content_store 	misses[3] 	47906
scalar tree_4_3_u05_r4_network.node[3].content_store 	decision_yes[3] 	0
scalar tree_4_3_u05_r4_network.node[3].content_store 	decision_no[3] 	47902
scalar tree_4_3_u05_r4_network.node[3].content_store 	decision_ratio[3] 	0
scalar tree_4_3_u05_r4_network.node[4].core_layer 	interests[4] 	38037
scalar tree_4_3_u05_r4_network.node[4].core_layer 	data[4] 	38037
scalar tree_4_3_u05_r4_network.node[4].content_store 	p_hit[4] 	0
scalar tree_4_3_u05_r4_network.node[4].content_store 	hits[4] 	0
scalar tree_4_3_u05_r4_network.node[4].content_store 	misses[4] 	38037
scalar tree_4_3_u05_r4_network.node[4].content_store 	decision_yes[4] 	0
scalar tree_4_3_u05_r4_network.node[4].content_store 	decision_no[4] 	38037
scalar tree_4_3_u05_r4_network.node[4].content_store 	decision_ratio[4] 	0
scalar tree_4_3_u05_r4_network.node[5].core_layer 	interests[5] 	48352
scalar tree_4_3_u05_r4_network.node[5].core_layer 	data[5] 	48348
scalar tree_4_3_u05_r4_network.node[5].content_store 	p_hit[5] 	0
scalar tree_4_3_u05_r4_network.node[5].content_store 	hits[5] 	0
scalar tree_4_3_u05_r4_network.node[5].content_store 	misses[5] 	48352
scalar tree_4_3_u05_r4_network.node[5].content_store 	decision_yes[5] 	0
scalar tree_4_3_u05_r4_network.node[5].content_store 	decision_no[5] 	48340
scalar tree_4_3_u05_r4_network.node[5].content_store 	decision_ratio[5] 	0
scalar tree_4_3_u05_r4_network.node[6].core_layer 	interests[6] 	15335
scalar tree_4_3_u05_r4_network.node[6].core_layer 	data[6] 	15334
scalar tree_4_3_u05_r4_network.node[6].content_store 	p_hit[6] 	0
scalar tree_4_3_u05_r4_network.node[6].content_store 	hits[6] 	0
scalar tree_4_3_u05_r4_network.node[6].content_store 	misses[6] 	15335
scalar tree_4_3_u05_r4_network.node[6].content_store 	decision_yes[6] 	0
scalar tree_4_3_u05_r4_network.node[6].content_store 	decision_no[6] 	15333
scalar tree_4_3_u05_r4_network.node[6].content_store 	decision_ratio[6] 	0
scalar tree_4_3_u05_r4_network.node[7].core_layer 	interests[7] 	42140
scalar tree_4_3_u05_r4_network.node[7].core_layer 	data[7] 	42141
scalar tree_4_3_u05_r4_network.node[7].content_store 	p_hit[7] 	0
scalar tree_4_3_u05_r4_network.node[7].content_store 	hits[7] 	0
scalar tree_4_3_u05_r4_network.node[7].content_store 	misses[7] 	42140
scalar tree_4_3_u05_r4_network.node[7].content_store 	decision_yes[7] 	0
scalar tree_4_3_u05_r4_network.node[7].content_store 	decision_no[7] 	42132
scalar tree_4_3_u05_r4_network.node[7].content_store 	decision_ratio[7] 	0
scalar tree_4_3_u05_r4_network.node[8].core_layer 	interests[8] 	32928
scalar tree_4_3_u05_r4_network.node[8].core_layer 	data[8] 	32926
scalar tree_4_3_u05_r4_network.node[8].content_store 	p_hit[8] 	0
scalar tree_4_3_u05_r4_network.node[8].content_store 	hits[8] 	0
scalar tree_4_3_u05_r4_network.node[8].content_store 	misses[8] 	32928
scalar tree_4_3_u05_r4_network.node[8].content_store 	decision_yes[8] 	0
scalar tree_4_3_u05_r4_network.node[8].content_store 	decision_no[8] 	32925
scalar tree_4_3_u05_r4_network.node[8].content_store 	decision_ratio[8] 	0
scalar tree_4_3_u05_r4_network.node[9].core_layer 	interests[9] 	23791
scalar tree_4_3_u05_r4_network.node[9].core_layer 	data[9] 	23788
scalar tree_4_3_u05_r4_network.node[9].content_store 	p_hit[9] 	0
scalar tree_4_3_u05_r4_network.node[9].content_store 	hits[9] 	0
scalar tree_4_3_u05_r4_network.node[9].content_store 	misses[9] 	23791
scalar tree_4_3_u05_r4_network.node[9].content_store 	decision_yes[9] 	0
scalar tree_4_3_u05_r4_network.node[9].content_store 	decision_no[9] 	23786
scalar tree_4_3_u05_r4_network.node[9].content_store 	decision_ratio[9] 	0
scalar tree_4_3_u05_r4_network.node[10].core_layer 	interests[10] 	32703
scalar tree_4_3_u05_r4_network.node[10].core_layer 	data[10] 	32702
scalar tree_4_3_u05_r4_network.node[10].content_store 	p_hit[10] 	0
scalar tree_4_3_u05_r4_network.node[10].content_store 	hits[10] 	0
scalar tree_4_3_u05_r4_network.node[10].content_store 	misses[10] 	32703
scalar tree_4_3_u05_r4_network.node[10].content_store 	decision_yes[10] 	0
scalar tree_4_3_u05_r4_network.node[10].content_store 	decision_no[10] 	32698
scalar tree_4_3_u05_r4_network.node[10].content_store 	decision_ratio[10] 	0
scalar tree_4_3_u05_r4_network.node[11].core_layer 	interests[11] 	45114
scalar tree_4_3_u05_r4_network.node[11].core_layer 	data[11] 	45107
scalar tree_4_3_u05_r4_network.node[11].content_store 	p_hit[11] 	0
scalar tree_4_3_u05_r4_network.node[11].content_store 	hits[11] 	0
scalar tree_4_3_u05_r4_network.node[11].content_store 	misses[11] 	45114
scalar tree_4_3_u05_r4_network.node[11].content_store 	decision_yes[11] 	0
scalar tree_4_3_u05_r4_network.node[11].content_store 	decision_no[11] 	45100
scalar tree_4_3_u05_r4_network.node[11].content_store 	decision_ratio[11] 	0
scalar tree_4_3_u05_r4_network.node[12].core_layer 	interests[12] 	23323
scalar tree_4_3_u05_r4_network.node[12].core_layer 	data[12] 	23320
scalar tree_4_3_u05_r4_network.node[12].content_store 	p_hit[12] 	0
scalar tree_4_3_u05_r4_network.node[12].content_store 	hits[12] 	0
scalar tree_4_3_u05_r4_network.node[12].content_store 	misses[12] 	23323
scalar tree_4_3_u05_r4_network.node[12].content_store 	decision_yes[12] 	0
scalar tree_4_3_u05_r4_network.node[12].content_store 	decision_no[12] 	23319
scalar tree_4_3_u05_r4_network.node[12].content_store 	decision_ratio[12] 	0
scalar tree_4_3_u05_r4_network.node[13].core_layer 	interests[13] 	13103
scalar tree_4_3_u05_r4_network.node[13].core_layer 	data[13] 	10034
scalar tree_4_3_u05_r4_network.node[13].content_store 	p_hit[13] 	0.2341448523239
scalar tree_4_3_u05_r4_network.node[13].content_store 	hits[13] 	3068
scalar tree_4_3_u05_r4_network.node[13].content_store 	misses[13] 	10035
scalar tree_4_3_u05_r4_network.node[13].content_store 	decision_yes[13] 	10034
scalar tree_4_3_u05_r4_network.node[13].content_store 	decision_no[13] 	0
scalar tree_4_3_u05_r4_network.node[13].content_store 	decision_ratio[13] 	1
scalar tree_4_3_u05_r4_network.node[14].core_layer 	interests[14] 	15758
scalar tree_4_3_u05_r4_network.node[14].core_layer 	data[14] 	10002
scalar tree_4_3_u05_r4_network.node[14].content_store 	p_hit[14] 	0.36521132123366
scalar tree_4_3_u05_r4_network.node[14].content_store 	hits[14] 	5755
scalar tree_4_3_u05_r4_network.node[14].content_store 	misses[14] 	10003
scalar tree_4_3_u05_r4_network.node[14].content_store 	decision_yes[14] 	10002
scalar tree_4_3_u05_r4_network.node[14].content_store 	decision_no[14] 	0
scalar tree_4_3_u05_r4_network.node[14].content_store 	decision_ratio[14] 	1
scalar tree_4_3_u05_r4_network.node[15].core_layer 	interests[15] 	13311
scalar tree_4_3_u05_r4_network.node[15].core_layer 	data[15] 	10107
scalar tree_4_3_u05_r4_network.node[15].content_store 	p_hit[15] 	0.24062805198708
scalar tree_4_3_u05_r4_network.node[15].content_store 	hits[15] 	3203
scalar tree_4_3_u05_r4_network.node[15].content_store 	misses[15] 	10108
scalar tree_4_3_u05_r4_network.node[15].content_store 	decision_yes[15] 	10107
scalar tree_4_3_u05_r4_network.node[15].content_store 	decision_no[15] 	0
scalar tree_4_3_u05_r4_network.node[15].content_store 	decision_ratio[15] 	1
scalar tree_4_3_u05_r4_network.node[16].core_layer 	interests[16] 	14569
scalar tree_4_3_u05_r4_network.node[16].core_layer 	data[16] 	9966
scalar tree_4_3_u05_r4_network.node[16].content_store 	p_hit[16] 	0.3159448143318
scalar tree_4_3_u05_r4_network.node[16].content_store 	hits[16] 	4603
scalar tree_4_3_u05_r4_network.node[16].content_store 	misses[16] 	9966
scalar tree_4_3_u05_r4_network.node[16].content_store 	decision_yes[16] 	9966
scalar tree_4_3_u05_r4_network.node[16].content_store 	decision_no[16] 	0
scalar tree_4_3_u05_r4_network.node[16].content_store 	decision_ratio[16] 	1
scalar tree_4_3_u05_r4_network.node[17].core_layer 	interests[17] 	14777
scalar tree_4_3_u05_r4_network.node[17].core_layer 	data[17] 	10118
scalar tree_4_3_u05_r4_network.node[17].content_store 	p_hit[17] 	0.31528727075861
scalar tree_4_3_u05_r4_network.node[17].content_store 	hits[17] 	4659
scalar tree_4_3_u05_r4_network.node[17].content_store 	misses[17] 	10118
scalar tree_4_3_u05_r4_network.node[17].content_store 	decision_yes[17] 	10118
scalar tree_4_3_u05_r4_network.node[17].content_store 	decision_no[17] 	0
scalar tree_4_3_u05_r4_network.node[17].content_store 	decision_ratio[17] 	1
scalar tree_4_3_u05_r4_network.node[18].core_layer 	interests[18] 	14735
scalar tree_4_3_u05_r4_network.node[18].core_layer 	data[18] 	10029
scalar tree_4_3_u05_r4_network.node[18].content_store 	p_hit[18] 	0.31937563624024
scalar tree_4_3_u05_r4_network.node[18].content_store 	hits[18] 	4706
scalar tree_4_3_u05_r4_network.node[18].content_store 	misses[18] 	10029
scalar tree_4_3_u05_r4_network.node[18].content_store 	decision_yes[18] 	10029
scalar tree_4_3_u05_r4_network.node[18].content_store 	decision_no[18] 	0
scalar tree_4_3_u05_r4_network.node[18].content_store 	decision_ratio[18] 	1
scalar tree_4_3_u05_r4_network.node[19].core_layer 	interests[19] 	14962
scalar tree_4_3_u05_r4_network.node[19].core_layer 	data[19] 	9992
scalar tree_4_3_u05_r4_network.node[19].content_store 	p_hit[19] 	0.33230851490442
scalar tree_4_3_u05_r4_network.node[19].content_store 	hits[19] 	4972
scalar tree_4_3_u05_r4_network.node[19].content_store 	misses[19] 	9990
scalar tree_4_3_u05_r4_network.node[19].content_store 	decision_yes[19] 	9992
scalar tree_4_3_u05_r4_network.node[19].content_store 	decision_no[19] 	0
scalar tree_4_3_u05_r4_network.node[19].content_store 	decision_ratio[19] 	1
scalar tree_4_3_u05_r4_network.node[20].core_layer 	interests[20] 	16263
scalar tree_4_3_u05_r4_network.node[20].core_layer 	data[20] 	9867
scalar tree_4_3_u05_r4_network.node[20].content_store 	p_hit[20] 	0.39328537170264
scalar tree_4_3_u05_r4_network.node[20].content_store 	hits[20] 	6396
scalar tree_4_3_u05_r4_network.node[20].content_store 	misses[20] 	9867
scalar tree_4_3_u05_r4_network.node[20].content_store 	decision_yes[20] 	9867
scalar tree_4_3_u05_r4_network.node[20].content_store 	decision_no[20] 	0
scalar tree_4_3_u05_r4_network.node[20].content_store 	decision_ratio[20] 	1
scalar tree_4_3_u05_r4_network.node[21].core_layer 	interests[21] 	14036
scalar tree_4_3_u05_r4_network.node[21].core_layer 	data[21] 	10141
scalar tree_4_3_u05_r4_network.node[21].content_store 	p_hit[21] 	0.27721573097749
scalar tree_4_3_u05_r4_network.node[21].content_store 	hits[21] 	3891
scalar tree_4_3_u05_r4_network.node[21].content_store 	misses[21] 	10145
scalar tree_4_3_u05_r4_network.node[21].content_store 	decision_yes[21] 	10141
scalar tree_4_3_u05_r4_network.node[21].content_store 	decision_no[21] 	0
scalar tree_4_3_u05_r4_network.node[21].content_store 	decision_ratio[21] 	1
scalar tree_4_3_u05_r4_network.node[22].core_layer 	interests[22] 	14152
scalar tree_4_3_u05_r4_network.node[22].core_layer 	data[22] 	10249
scalar tree_4_3_u05_r4_network.node[22].content_store 	p_hit[22] 	0.2757914075749
scalar tree_4_3_u05_r4_network.node[22].content_store 	hits[22] 	3903
scalar tree_4_3_u05_r4_network.node[22].content_store 	misses[22] 	10249
scalar tree_4_3_u05_r4_network.node[22].content_store 	decision_yes[22] 	10249
scalar tree_4_3_u05_r4_network.node[22].content_store 	decision_no[22] 	0
scalar tree_4_3_u05_r4_network.node[22].content_store 	decision_ratio[22] 	1
scalar tree_4_3_u05_r4_network.node[23].core_layer 	interests[23] 	13729
scalar tree_4_3_u05_r4_network.node[23].core_layer 	data[23] 	9898
scalar tree_4_3_u05_r4_network.node[23].content_store 	p_hit[23] 	0.27897152013985
scalar tree_4_3_u05_r4_network.node[23].content_store 	hits[23] 	3830
scalar tree_4_3_u05_r4_network.node[23].content_store 	misses[23] 	9899
scalar tree_4_3_u05_r4_network.node[23].content_store 	decision_yes[23] 	9898
scalar tree_4_3_u05_r4_network.node[23].content_store 	decision_no[23] 	0
scalar tree_4_3_u05_r4_network.node[23].content_store 	decision_ratio[23] 	1
scalar tree_4_3_u05_r4_network.node[24].core_layer 	interests[24] 	14877
scalar tree_4_3_u05_r4_network.node[24].core_layer 	data[24] 	9796
scalar tree_4_3_u05_r4_network.node[24].content_store 	p_hit[24] 	0.34146669355381
scalar tree_4_3_u05_r4_network.node[24].content_store 	hits[24] 	5080
scalar tree_4_3_u05_r4_network.node[24].content_store 	misses[24] 	9797
scalar tree_4_3_u05_r4_network.node[24].content_store 	decision_yes[24] 	9796
scalar tree_4_3_u05_r4_network.node[24].content_store 	decision_no[24] 	0
scalar tree_4_3_u05_r4_network.node[24].content_store 	decision_ratio[24] 	1
scalar tree_4_3_u05_r4_network.node[25].core_layer 	interests[25] 	14982
scalar tree_4_3_u05_r4_network.node[25].core_layer 	data[25] 	9953
scalar tree_4_3_u05_r4_network.node[25].content_store 	p_hit[25] 	0.3356694700307
scalar tree_4_3_u05_r4_network.node[25].content_store 	hits[25] 	5029
scalar tree_4_3_u05_r4_network.node[25].content_store 	misses[25] 	9953
scalar tree_4_3_u05_r4_network.node[25].content_store 	decision_yes[25] 	9953
scalar tree_4_3_u05_r4_network.node[25].content_store 	decision_no[25] 	0
scalar tree_4_3_u05_r4_network.node[25].content_store 	decision_ratio[25] 	1
scalar tree_4_3_u05_r4_network.node[26].core_layer 	interests[26] 	13893
scalar tree_4_3_u05_r4_network.node[26].core_layer 	data[26] 	10038
scalar tree_4_3_u05_r4_network.node[26].content_store 	p_hit[26] 	0.2774778665515
scalar tree_4_3_u05_r4_network.node[26].content_store 	hits[26] 	3855
scalar tree_4_3_u05_r4_network.node[26].content_store 	misses[26] 	10038
scalar tree_4_3_u05_r4_network.node[26].content_store 	decision_yes[26] 	10038
scalar tree_4_3_u05_r4_network.node[26].content_store 	decision_no[26] 	0
scalar tree_4_3_u05_r4_network.node[26].content_store 	decision_ratio[26] 	1
scalar tree_4_3_u05_r4_network.node[27].core_layer 	interests[27] 	13900
scalar tree_4_3_u05_r4_network.node[27].core_layer 	data[27] 	9983
scalar tree_4_3_u05_r4_network.node[27].content_store 	p_hit[27] 	0.28179856115108
scalar tree_4_3_u05_r4_network.node[27].content_store 	hits[27] 	3917
scalar tree_4_3_u05_r4_network.node[27].content_store 	misses[27] 	9983
scalar tree_4_3_u05_r4_network.node[27].content_store 	decision_yes[27] 	9983
scalar tree_4_3_u05_r4_network.node[27].content_store 	decision_no[27] 	0
scalar tree_4_3_u05_r4_network.node[27].content_store 	decision_ratio[27] 	1
scalar tree_4_3_u05_r4_network.node[28].core_layer 	interests[28] 	13991
scalar tree_4_3_u05_r4_network.node[28].core_layer 	data[28] 	10144
scalar tree_4_3_u05_r4_network.node[28].content_store 	p_hit[28] 	0.27496247587735
scalar tree_4_3_u05_r4_network.node[28].content_store 	hits[28] 	3847
scalar tree_4_3_u05_r4_network.node[28].content_store 	misses[28] 	10144
scalar tree_4_3_u05_r4_network.node[28].content_store 	decision_yes[28] 	10144
scalar tree_4_3_u05_r4_network.node[28].content_store 	decision_no[28] 	0
scalar tree_4_3_u05_r4_network.node[28].content_store 	decision_ratio[28] 	1
scalar tree_4_3_u05_r4_network.node[29].core_layer 	interests[29] 	14953
scalar tree_4_3_u05_r4_network.node[29].core_layer 	data[29] 	9949
scalar tree_4_3_u05_r4_network.node[29].content_store 	p_hit[29] 	0.33464856550525
scalar tree_4_3_u05_r4_network.node[29].content_store 	hits[29] 	5004
scalar tree_4_3_u05_r4_network.node[29].content_store 	misses[29] 	9949
scalar tree_4_3_u05_r4_network.node[29].content_store 	decision_yes[29] 	9949
scalar tree_4_3_u05_r4_network.node[29].content_store 	decision_no[29] 	0
scalar tree_4_3_u05_r4_network.node[29].content_store 	decision_ratio[29] 	1
scalar tree_4_3_u05_r4_network.node[30].core_layer 	interests[30] 	13837
scalar tree_4_3_u05_r4_network.node[30].core_layer 	data[30] 	10039
scalar tree_4_3_u05_r4_network.node[30].content_store 	p_hit[30] 	0.27440919274409
scalar tree_4_3_u05_r4_network.node[30].content_store 	hits[30] 	3797
scalar tree_4_3_u05_r4_network.node[30].content_store 	misses[30] 	10040
scalar tree_4_3_u05_r4_network.node[30].content_store 	decision_yes[30] 	10039
scalar tree_4_3_u05_r4_network.node[30].content_store 	decision_no[30] 	0
scalar tree_4_3_u05_r4_network.node[30].content_store 	decision_ratio[30] 	1
scalar tree_4_3_u05_r4_network.node[31].core_layer 	interests[31] 	13381
scalar tree_4_3_u05_r4_network.node[31].core_layer 	data[31] 	9959
scalar tree_4_3_u05_r4_network.node[31].content_store 	p_hit[31] 	0.25573574471265
scalar tree_4_3_u05_r4_network.node[31].content_store 	hits[31] 	3422
scalar tree_4_3_u05_r4_network.node[31].content_store 	misses[31] 	9959
scalar tree_4_3_u05_r4_network.node[31].content_store 	decision_yes[31] 	9959
scalar tree_4_3_u05_r4_network.node[31].content_store 	decision_no[31] 	0
scalar tree_4_3_u05_r4_network.node[31].content_store 	decision_ratio[31] 	1
scalar tree_4_3_u05_r4_network.node[32].core_layer 	interests[32] 	13472
scalar tree_4_3_u05_r4_network.node[32].core_layer 	data[32] 	10071
scalar tree_4_3_u05_r4_network.node[32].content_store 	p_hit[32] 	0.25244952494062
scalar tree_4_3_u05_r4_network.node[32].content_store 	hits[32] 	3401
scalar tree_4_3_u05_r4_network.node[32].content_store 	misses[32] 	10071
scalar tree_4_3_u05_r4_network.node[32].content_store 	decision_yes[32] 	10071
scalar tree_4_3_u05_r4_network.node[32].content_store 	decision_no[32] 	0
scalar tree_4_3_u05_r4_network.node[32].content_store 	decision_ratio[32] 	1
scalar tree_4_3_u05_r4_network.node[33].core_layer 	interests[33] 	14770
scalar tree_4_3_u05_r4_network.node[33].core_layer 	data[33] 	10143
scalar tree_4_3_u05_r4_network.node[33].content_store 	p_hit[33] 	0.31320243737305
scalar tree_4_3_u05_r4_network.node[33].content_store 	hits[33] 	4626
scalar tree_4_3_u05_r4_network.node[33].content_store 	misses[33] 	10144
scalar tree_4_3_u05_r4_network.node[33].content_store 	decision_yes[33] 	10143
scalar tree_4_3_u05_r4_network.node[33].content_store 	decision_no[33] 	0
scalar tree_4_3_u05_r4_network.node[33].content_store 	decision_ratio[33] 	1
scalar tree_4_3_u05_r4_network.node[34].core_layer 	interests[34] 	16093
scalar tree_4_3_u05_r4_network.node[34].core_layer 	data[34] 	9967
scalar tree_4_3_u05_r4_network.node[34].content_store 	p_hit[34] 	0.38066239980116
scalar tree_4_3_u05_r4_network.node[34].content_store 	hits[34] 	6126
scalar tree_4_3_u05_r4_network.node[34].content_store 	misses[34] 	9967
scalar tree_4_3_u05_r4_network.node[34].content_store 	decision_yes[34] 	9967
scalar tree_4_3_u05_r4_network.node[34].content_store 	decision_no[34] 	0
scalar tree_4_3_u05_r4_network.node[34].content_store 	decision_ratio[34] 	1
scalar tree_4_3_u05_r4_network.node[35].core_layer 	interests[35] 	14996
scalar tree_4_3_u05_r4_network.node[35].core_layer 	data[35] 	10094
scalar tree_4_3_u05_r4_network.node[35].content_store 	p_hit[35] 	0.32688716991198
scalar tree_4_3_u05_r4_network.node[35].content_store 	hits[35] 	4902
scalar tree_4_3_u05_r4_network.node[35].content_store 	misses[35] 	10094
scalar tree_4_3_u05_r4_network.node[35].content_store 	decision_yes[35] 	10094
scalar tree_4_3_u05_r4_network.node[35].content_store 	decision_no[35] 	0
scalar tree_4_3_u05_r4_network.node[35].content_store 	decision_ratio[35] 	1
scalar tree_4_3_u05_r4_network.node[36].core_layer 	interests[36] 	14741
scalar tree_4_3_u05_r4_network.node[36].core_layer 	data[36] 	9841
scalar tree_4_3_u05_r4_network.node[36].content_store 	p_hit[36] 	0.33227053795536
scalar tree_4_3_u05_r4_network.node[36].content_store 	hits[36] 	4898
scalar tree_4_3_u05_r4_network.node[36].content_store 	misses[36] 	9843
scalar tree_4_3_u05_r4_network.node[36].content_store 	decision_yes[36] 	9841
scalar tree_4_3_u05_r4_network.node[36].content_store 	decision_no[36] 	0
scalar tree_4_3_u05_r4_network.node[36].content_store 	decision_ratio[36] 	1
scalar tree_4_3_u05_r4_network.node[37].core_layer 	interests[37] 	13705
scalar tree_4_3_u05_r4_network.node[37].core_layer 	data[37] 	10149
scalar tree_4_3_u05_r4_network.node[37].content_store 	p_hit[37] 	0.25939438161255
scalar tree_4_3_u05_r4_network.node[37].content_store 	hits[37] 	3555
scalar tree_4_3_u05_r4_network.node[37].content_store 	misses[37] 	10150
scalar tree_4_3_u05_r4_network.node[37].content_store 	decision_yes[37] 	10149
scalar tree_4_3_u05_r4_network.node[37].content_store 	decision_no[37] 	0
scalar tree_4_3_u05_r4_network.node[37].content_store 	decision_ratio[37] 	1
scalar tree_4_3_u05_r4_network.node[38].core_layer 	interests[38] 	15804
scalar tree_4_3_u05_r4_network.node[38].core_layer 	data[38] 	9914
scalar tree_4_3_u05_r4_network.node[38].content_store 	p_hit[38] 	0.37262718299165
scalar tree_4_3_u05_r4_network.node[38].content_store 	hits[38] 	5889
scalar tree_4_3_u05_r4_network.node[38].content_store 	misses[38] 	9915
scalar tree_4_3_u05_r4_network.node[38].content_store 	decision_yes[38] 	9914
scalar tree_4_3_u05_r4_network.node[38].content_store 	decision_no[38] 	0
scalar tree_4_3_u05_r4_network.node[38].content_store 	decision_ratio[38] 	1
scalar tree_4_3_u05_r4_network.node[39].core_layer 	interests[39] 	13736
scalar tree_4_3_u05_r4_network.node[39].core_layer 	data[39] 	10303
scalar tree_4_3_u05_r4_network.node[39].content_store 	p_hit[39] 	0.24985439720443
scalar tree_4_3_u05_r4_network.node[39].content_store 	hits[39] 	3432
scalar tree_4_3_u05_r4_network.node[39].content_store 	misses[39] 	10304
scalar tree_4_3_u05_r4_network.node[39].content_store 	decision_yes[39] 	10303
scalar tree_4_3_u05_r4_network.node[39].content_store 	decision_no[39] 	0
scalar tree_4_3_u05_r4_network.node[39].content_store 	decision_ratio[39] 	1
scalar tree_4_3_u05_r4_network.client[13] 	hdistance[13] 	3.1918697815636
scalar tree_4_3_u05_r4_network.client[13] 	downloads[13] 	11857
scalar tree_4_3_u05_r4_network.client[13] 	avg_time[13] 	0.005009507946
scalar tree_4_3_u05_r4_network.client[14] 	hdistance[14] 	3.0603534511504
scalar tree_4_3_u05_r4_network.client[14] 	downloads[14] 	11996
scalar tree_4_3_u05_r4_network.client[14] 	avg_time[14] 	0.004890276663
scalar tree_4_3_u05_r4_network.client[15] 	hdistance[15] 	3.1417004048583
scalar tree_4_3_u05_r4_network.client[15] 	downloads[15] 	12103
scalar tree_4_3_u05_r4_network.client[15] 	avg_time[15] 	0.004932370123
scalar tree_4_3_u05_r4_network.client[16] 	hdistance[16] 	3.135112240576
scalar tree_4_3_u05_r4_network.client[16] 	downloads[16] 	11805
scalar tree_4_3_u05_r4_network.client[16] 	avg_time[16] 	0.005034771277
scalar tree_4_3_u05_r4_network.client[17] 	hdistance[17] 	3.1146238516925
scalar tree_4_3_u05_r4_network.client[17] 	downloads[17] 	12083
scalar tree_4_3_u05_r4_network.client[17] 	avg_time[17] 	0.005011563326
scalar tree_4_3_u05_r4_network.client[18] 	hdistance[18] 	3.1094283098943
scalar tree_4_3_u05_r4_network.client[18] 	downloads[18] 	12017
scalar tree_4_3_u05_r4_network.client[18] 	avg_time[18] 	0.004999081628
scalar tree_4_3_u05_r4_network.client[19] 	hdistance[19] 	3.0841370136348
scalar tree_4_3_u05_r4_network.client[19] 	downloads[19] 	12028
scalar tree_4_3_u05_r4_network.client[19] 	avg_time[19] 	0.004916942854
scalar tree_4_3_u05_r4_network.client[20] 	hdistance[20] 	3.0619051629748
scalar tree_4_3_u05_r4_network.client[20] 	downloads[20] 	11873
scalar tree_4_3_u05_r4_network.client[20] 	avg_time[20] 	0.004930182705
scalar tree_4_3_u05_r4_network.client[21] 	hdistance[21] 	3.1909497762307
scalar tree_4_3_u05_r4_network.client[21] 	downloads[21] 	12066
scalar tree_4_3_u05_r4_network.client[21] 	avg_time[21] 	0.005131884749
scalar tree_4_3_u05_r4_network.client[22] 	hdistance[22] 	3.1548281505728
scalar tree_4_3_u05_r4_network.client[22] 	downloads[22] 	12220
scalar tree_4_3_u05_r4_network.client[22] 	avg_time[22] 	0.005059498541
scalar tree_4_3_u05_r4_network.client[23] 	hdistance[23] 	3.156048797018
scalar tree_4_3_u05_r4_network.client[23] 	downloads[23] 	11804
scalar tree_4_3_u05_r4_network.client[23] 	avg_time[23] 	0.005050993313
scalar tree_4_3_u05_r4_network.client[24] 	hdistance[24] 	3.0613938521467
scalar tree_4_3_u05_r4_network.client[24] 	downloads[24] 	11809
scalar tree_4_3_u05_r4_network.client[24] 	avg_time[24] 	0.004866137764
scalar tree_4_3_u05_r4_network.client[25] 	hdistance[25] 	3.06228576206
scalar tree_4_3_u05_r4_network.client[25] 	downloads[25] 	11961
scalar tree_4_3_u05_r4_network.client[25] 	avg_time[25] 	0.004873763458
scalar tree_4_3_u05_r4_network.client[26] 	hdistance[26] 	3.147947714595
scalar tree_4_3_u05_r4_network.client[26] 	downloads[26] 	12011
scalar tree_4_3_u05_r4_network.client[26] 	avg_time[26] 	0.005054570655
scalar tree_4_3_u05_r4_network.client[27] 	hdistance[27] 	3.1652774269597
scalar tree_4_3_u05_r4_network.client[27] 	downloads[27] 	11877
scalar tree_4_3_u05_r4_network.client[27] 	avg_time[27] 	0.005072031419
scalar tree_4_3_u05_r4_network.client[28] 	hdistance[28] 	3.1524752475247
scalar tree_4_3_u05_r4_network.client[28] 	downloads[28] 	12120
scalar tree_4_3_u05_r4_network.client[28] 	avg_time[28] 	0.005052985296
scalar tree_4_3_u05_r4_network.client[29] 	hdistance[29] 	3.0602389506224
scalar tree_4_3_u05_r4_network.client[29] 	downloads[29] 	11969
scalar tree_4_3_u05_r4_network.client[29] 	avg_time[29] 	0.004872083216
scalar tree_4_3_u05_r4_network.client[30] 	hdistance[30] 	3.1612309750794
scalar tree_4_3_u05_r4_network.client[30] 	downloads[30] 	11958
scalar tree_4_3_u05_r4_network.client[30] 	avg_time[30] 	0.005052297722
scalar tree_4_3_u05_r4_network.client[31] 	hdistance[31] 	3.1598481653311
scalar tree_4_3_u05_r4_network.client[31] 	downloads[31] 	11855
scalar tree_4_3_u05_r4_network.client[31] 	avg_time[31] 	0.005009748258
scalar tree_4_3_u05_r4_network.client[32] 	hdistance[32] 	3.1708458709462
scalar tree_4_3_u05_r4_network.client[32] 	downloads[32] 	11964
scalar tree_4_3_u05_r4_network.client[32] 	avg_time[32] 	0.005020224364
scalar tree_4_3_u05_r4_network.client[33] 	hdistance[33] 	3.0691183713676
scalar tree_4_3_u05_r4_network.client[33] 	downloads[33] 	12182
scalar tree_4_3_u05_r4_network.client[33] 	avg_time[33] 	0.004823001974
scalar tree_4_3_u05_r4_network.client[34] 	hdistance[34] 	3.0543974752927
scalar tree_4_3_u05_r4_network.client[34] 	downloads[34] 	12041
scalar tree_4_3_u05_r4_network.client[34] 	avg_time[34] 	0.004904523632
scalar tree_4_3_u05_r4_network.client[35] 	hdistance[35] 	3.1438765350149
scalar tree_4_3_u05_r4_network.client[35] 	downloads[35] 	12052
scalar tree_4_3_u05_r4_network.client[35] 	avg_time[35] 	0.005095582771
scalar tree_4_3_u05_r4_network.client[36] 	hdistance[36] 	3.1391975570447
scalar tree_4_3_u05_r4_network.client[36] 	downloads[36] 	11789
scalar tree_4_3_u05_r4_network.client[36] 	avg_time[36] 	0.005080417727
scalar tree_4_3_u05_r4_network.client[37] 	hdistance[37] 	3.1393859793137
scalar tree_4_3_u05_r4_network.client[37] 	downloads[37] 	12182
scalar tree_4_3_u05_r4_network.client[37] 	avg_time[37] 	0.004969128041
scalar tree_4_3_u05_r4_network.client[38] 	hdistance[38] 	3.0767932489451
scalar tree_4_3_u05_r4_network.client[38] 	downloads[38] 	11850
scalar tree_4_3_u05_r4_network.client[38] 	avg_time[38] 	0.004943936186
scalar tree_4_3_u05_r4_network.client[39] 	hdistance[39] 	3.1807742782152
scalar tree_4_3_u05_r4_network.client[39] 	downloads[39] 	12192
scalar tree_4_3_u05_r4_network.client[39] 	avg_time[39] 	0.005025551411
