version 2
run General-100-20160818-19:30:26-19481
attr a 0.9
attr cd lce
attr configname General
attr cr lru
attr datetime 20160818-19:30:26
attr experiment General
attr fsize 1
attr inifile hw5115/scenario_A/EdgeCoop.ini
attr iterationvars "$name=tree_4_3, $un=05, $rep=1, $scenario=Edge, $cd=lce, $cr=lru, $fsize=1, $a=0.9, $sl=nrr, $ttl=1000, $variance=0.05"
attr iterationvars2 "$name=tree_4_3, $un=05, $rep=1, $scenario=Edge, $cd=lce, $cr=lru, $fsize=1, $a=0.9, $sl=nrr, $ttl=1000, $variance=0.05, $repetition=0"
attr measurement "$name=tree_4_3, $un=05, $rep=1, $scenario=Edge, $cd=lce, $cr=lru, $fsize=1, $a=0.9, $sl=nrr, $ttl=1000, $variance=0.05"
attr name tree_4_3
attr network networks.${name}_u${un}_r${rep}_network
attr processid 19481
attr rep 1
attr repetition 0
attr replication #0
attr resultdir results
attr runnumber 100
attr scenario Edge
attr seedset 1
attr sl nrr
attr ttl 1000
attr un 05
attr variance 0.05

scalar . 	a 	0.9
scalar . 	fsize 	1
scalar . 	rep 	1
scalar . 	ttl 	1000
scalar . 	un 	05
scalar . 	variance 	0.05
scalar tree_4_3_u05_r1_network.content_distribution 	repo-0 	0
scalar tree_4_3_u05_r1_network.content_distribution 	client-0 	13
scalar tree_4_3_u05_r1_network.content_distribution 	client-1 	14
scalar tree_4_3_u05_r1_network.content_distribution 	client-2 	15
scalar tree_4_3_u05_r1_network.content_distribution 	client-3 	16
scalar tree_4_3_u05_r1_network.content_distribution 	client-4 	17
scalar tree_4_3_u05_r1_network.content_distribution 	client-5 	18
scalar tree_4_3_u05_r1_network.content_distribution 	client-6 	19
scalar tree_4_3_u05_r1_network.content_distribution 	client-7 	20
scalar tree_4_3_u05_r1_network.content_distribution 	client-8 	21
scalar tree_4_3_u05_r1_network.content_distribution 	client-9 	22
scalar tree_4_3_u05_r1_network.content_distribution 	client-10 	23
scalar tree_4_3_u05_r1_network.content_distribution 	client-11 	24
scalar tree_4_3_u05_r1_network.content_distribution 	client-12 	25
scalar tree_4_3_u05_r1_network.content_distribution 	client-13 	26
scalar tree_4_3_u05_r1_network.content_distribution 	client-14 	27
scalar tree_4_3_u05_r1_network.content_distribution 	client-15 	28
scalar tree_4_3_u05_r1_network.content_distribution 	client-16 	29
scalar tree_4_3_u05_r1_network.content_distribution 	client-17 	30
scalar tree_4_3_u05_r1_network.content_distribution 	client-18 	31
scalar tree_4_3_u05_r1_network.content_distribution 	client-19 	32
scalar tree_4_3_u05_r1_network.content_distribution 	client-20 	33
scalar tree_4_3_u05_r1_network.content_distribution 	client-21 	34
scalar tree_4_3_u05_r1_network.content_distribution 	client-22 	35
scalar tree_4_3_u05_r1_network.content_distribution 	client-23 	36
scalar tree_4_3_u05_r1_network.content_distribution 	client-24 	37
scalar tree_4_3_u05_r1_network.content_distribution 	client-25 	38
scalar tree_4_3_u05_r1_network.content_distribution 	client-26 	39
scalar tree_4_3_u05_r1_network.content_distribution 	repo-0_card 	100000
scalar tree_4_3_u05_r1_network.content_distribution 	repo-0_price 	0
scalar tree_4_3_u05_r1_network.statistics 	stabilization_time 	274.4
scalar tree_4_3_u05_r1_network.statistics 	p_hit 	0.20842513247132
scalar tree_4_3_u05_r1_network.statistics 	interests 	28398.025
scalar tree_4_3_u05_r1_network.statistics 	data 	20310.1
scalar tree_4_3_u05_r1_network.statistics 	hdistance 	3.132883256892
scalar tree_4_3_u05_r1_network.statistics 	avg_time 	0.005022413975
scalar tree_4_3_u05_r1_network.statistics 	downloads 	323494
scalar tree_4_3_u05_r1_network.statistics 	total_cost 	0
scalar tree_4_3_u05_r1_network.statistics 	total_replicas 	100000
scalar tree_4_3_u05_r1_network.statistics 	inner_hit 	0.37840887311666
scalar tree_4_3_u05_r1_network.node[0].core_layer 	interests[0] 	201081
scalar tree_4_3_u05_r1_network.node[0].core_layer 	repo_load[0] 	201081
scalar tree_4_3_u05_r1_network.node[0].core_layer 	data[0] 	0
scalar tree_4_3_u05_r1_network.node[0].core_layer 	repo_int[0] 	201081
scalar tree_4_3_u05_r1_network.node[0].content_store 	p_hit[0] 	0
scalar tree_4_3_u05_r1_network.node[0].content_store 	hits[0] 	0
scalar tree_4_3_u05_r1_network.node[0].content_store 	misses[0] 	201081
scalar tree_4_3_u05_r1_network.node[0].content_store 	decision_yes[0] 	0
scalar tree_4_3_u05_r1_network.node[0].content_store 	decision_no[0] 	201081
scalar tree_4_3_u05_r1_network.node[0].content_store 	decision_ratio[0] 	0
scalar tree_4_3_u05_r1_network.node[1].core_layer 	interests[1] 	105037
scalar tree_4_3_u05_r1_network.node[1].core_layer 	data[1] 	105032
scalar tree_4_3_u05_r1_network.node[1].content_store 	p_hit[1] 	0
scalar tree_4_3_u05_r1_network.node[1].content_store 	hits[1] 	0
scalar tree_4_3_u05_r1_network.node[1].content_store 	misses[1] 	105037
scalar tree_4_3_u05_r1_network.node[1].content_store 	decision_yes[1] 	0
scalar tree_4_3_u05_r1_network.node[1].content_store 	decision_no[1] 	105027
scalar tree_4_3_u05_r1_network.node[1].content_store 	decision_ratio[1] 	0
scalar tree_4_3_u05_r1_network.node[2].core_layer 	interests[2] 	82063
scalar tree_4_3_u05_r1_network.node[2].core_layer 	data[2] 	82059
scalar tree_4_3_u05_r1_network.node[2].content_store 	p_hit[2] 	0
scalar tree_4_3_u05_r1_network.node[2].content_store 	hits[2] 	0
scalar tree_4_3_u05_r1_network.node[2].content_store 	misses[2] 	82063
scalar tree_4_3_u05_r1_network.node[2].content_store 	decision_yes[2] 	0
scalar tree_4_3_u05_r1_network.node[2].content_store 	decision_no[2] 	82051
scalar tree_4_3_u05_r1_network.node[2].content_store 	decision_ratio[2] 	0
scalar tree_4_3_u05_r1_network.node[3].core_layer 	interests[3] 	48988
scalar tree_4_3_u05_r1_network.node[3].core_layer 	data[3] 	48984
scalar tree_4_3_u05_r1_network.node[3].content_store 	p_hit[3] 	0
scalar tree_4_3_u05_r1_network.node[3].content_store 	hits[3] 	0
scalar tree_4_3_u05_r1_network.node[3].content_store 	misses[3] 	48988
scalar tree_4_3_u05_r1_network.node[3].content_store 	decision_yes[3] 	0
scalar tree_4_3_u05_r1_network.node[3].content_store 	decision_no[3] 	48984
scalar tree_4_3_u05_r1_network.node[3].content_store 	decision_ratio[3] 	0
scalar tree_4_3_u05_r1_network.node[4].core_layer 	interests[4] 	30382
scalar tree_4_3_u05_r1_network.node[4].core_layer 	data[4] 	30381
scalar tree_4_3_u05_r1_network.node[4].content_store 	p_hit[4] 	0
scalar tree_4_3_u05_r1_network.node[4].content_store 	hits[4] 	0
scalar tree_4_3_u05_r1_network.node[4].content_store 	misses[4] 	30382
scalar tree_4_3_u05_r1_network.node[4].content_store 	decision_yes[4] 	0
scalar tree_4_3_u05_r1_network.node[4].content_store 	decision_no[4] 	30378
scalar tree_4_3_u05_r1_network.node[4].content_store 	decision_ratio[4] 	0
scalar tree_4_3_u05_r1_network.node[5].core_layer 	interests[5] 	46436
scalar tree_4_3_u05_r1_network.node[5].core_layer 	data[5] 	46428
scalar tree_4_3_u05_r1_network.node[5].content_store 	p_hit[5] 	0
scalar tree_4_3_u05_r1_network.node[5].content_store 	hits[5] 	0
scalar tree_4_3_u05_r1_network.node[5].content_store 	misses[5] 	46436
scalar tree_4_3_u05_r1_network.node[5].content_store 	decision_yes[5] 	0
scalar tree_4_3_u05_r1_network.node[5].content_store 	decision_no[5] 	46424
scalar tree_4_3_u05_r1_network.node[5].content_store 	decision_ratio[5] 	0
scalar tree_4_3_u05_r1_network.node[6].core_layer 	interests[6] 	26640
scalar tree_4_3_u05_r1_network.node[6].core_layer 	data[6] 	26636
scalar tree_4_3_u05_r1_network.node[6].content_store 	p_hit[6] 	0
scalar tree_4_3_u05_r1_network.node[6].content_store 	hits[6] 	0
scalar tree_4_3_u05_r1_network.node[6].content_store 	misses[6] 	26640
scalar tree_4_3_u05_r1_network.node[6].content_store 	decision_yes[6] 	0
scalar tree_4_3_u05_r1_network.node[6].content_store 	decision_no[6] 	26632
scalar tree_4_3_u05_r1_network.node[6].content_store 	decision_ratio[6] 	0
scalar tree_4_3_u05_r1_network.node[7].core_layer 	interests[7] 	44171
scalar tree_4_3_u05_r1_network.node[7].core_layer 	data[7] 	44170
scalar tree_4_3_u05_r1_network.node[7].content_store 	p_hit[7] 	0
scalar tree_4_3_u05_r1_network.node[7].content_store 	hits[7] 	0
scalar tree_4_3_u05_r1_network.node[7].content_store 	misses[7] 	44171
scalar tree_4_3_u05_r1_network.node[7].content_store 	decision_yes[7] 	0
scalar tree_4_3_u05_r1_network.node[7].content_store 	decision_no[7] 	44165
scalar tree_4_3_u05_r1_network.node[7].content_store 	decision_ratio[7] 	0
scalar tree_4_3_u05_r1_network.node[8].core_layer 	interests[8] 	21798
scalar tree_4_3_u05_r1_network.node[8].core_layer 	data[8] 	21798
scalar tree_4_3_u05_r1_network.node[8].content_store 	p_hit[8] 	0
scalar tree_4_3_u05_r1_network.node[8].content_store 	hits[8] 	0
scalar tree_4_3_u05_r1_network.node[8].content_store 	misses[8] 	21798
scalar tree_4_3_u05_r1_network.node[8].content_store 	decision_yes[8] 	0
scalar tree_4_3_u05_r1_network.node[8].content_store 	decision_no[8] 	21797
scalar tree_4_3_u05_r1_network.node[8].content_store 	decision_ratio[8] 	0
scalar tree_4_3_u05_r1_network.node[9].core_layer 	interests[9] 	34697
scalar tree_4_3_u05_r1_network.node[9].core_layer 	data[9] 	34696
scalar tree_4_3_u05_r1_network.node[9].content_store 	p_hit[9] 	0
scalar tree_4_3_u05_r1_network.node[9].content_store 	hits[9] 	0
scalar tree_4_3_u05_r1_network.node[9].content_store 	misses[9] 	34697
scalar tree_4_3_u05_r1_network.node[9].content_store 	decision_yes[9] 	0
scalar tree_4_3_u05_r1_network.node[9].content_store 	decision_no[9] 	34692
scalar tree_4_3_u05_r1_network.node[9].content_store 	decision_ratio[9] 	0
scalar tree_4_3_u05_r1_network.node[10].core_layer 	interests[10] 	33823
scalar tree_4_3_u05_r1_network.node[10].core_layer 	data[10] 	33818
scalar tree_4_3_u05_r1_network.node[10].content_store 	p_hit[10] 	0
scalar tree_4_3_u05_r1_network.node[10].content_store 	hits[10] 	0
scalar tree_4_3_u05_r1_network.node[10].content_store 	misses[10] 	33823
scalar tree_4_3_u05_r1_network.node[10].content_store 	decision_yes[10] 	0
scalar tree_4_3_u05_r1_network.node[10].content_store 	decision_no[10] 	33818
scalar tree_4_3_u05_r1_network.node[10].content_store 	decision_ratio[10] 	0
scalar tree_4_3_u05_r1_network.node[11].core_layer 	interests[11] 	45285
scalar tree_4_3_u05_r1_network.node[11].core_layer 	data[11] 	45283
scalar tree_4_3_u05_r1_network.node[11].content_store 	p_hit[11] 	0
scalar tree_4_3_u05_r1_network.node[11].content_store 	hits[11] 	0
scalar tree_4_3_u05_r1_network.node[11].content_store 	misses[11] 	45285
scalar tree_4_3_u05_r1_network.node[11].content_store 	decision_yes[11] 	0
scalar tree_4_3_u05_r1_network.node[11].content_store 	decision_no[11] 	45277
scalar tree_4_3_u05_r1_network.node[11].content_store 	decision_ratio[11] 	0
scalar tree_4_3_u05_r1_network.node[12].core_layer 	interests[12] 	22443
scalar tree_4_3_u05_r1_network.node[12].core_layer 	data[12] 	22439
scalar tree_4_3_u05_r1_network.node[12].content_store 	p_hit[12] 	0
scalar tree_4_3_u05_r1_network.node[12].content_store 	hits[12] 	0
scalar tree_4_3_u05_r1_network.node[12].content_store 	misses[12] 	22443
scalar tree_4_3_u05_r1_network.node[12].content_store 	decision_yes[12] 	0
scalar tree_4_3_u05_r1_network.node[12].content_store 	decision_no[12] 	22439
scalar tree_4_3_u05_r1_network.node[12].content_store 	decision_ratio[12] 	0
scalar tree_4_3_u05_r1_network.node[13].core_layer 	interests[13] 	13411
scalar tree_4_3_u05_r1_network.node[13].core_layer 	data[13] 	10101
scalar tree_4_3_u05_r1_network.node[13].content_store 	p_hit[13] 	0.24681231824622
scalar tree_4_3_u05_r1_network.node[13].content_store 	hits[13] 	3310
scalar tree_4_3_u05_r1_network.node[13].content_store 	misses[13] 	10101
scalar tree_4_3_u05_r1_network.node[13].content_store 	decision_yes[13] 	10101
scalar tree_4_3_u05_r1_network.node[13].content_store 	decision_no[13] 	0
scalar tree_4_3_u05_r1_network.node[13].content_store 	decision_ratio[13] 	1
scalar tree_4_3_u05_r1_network.node[14].core_layer 	interests[14] 	15572
scalar tree_4_3_u05_r1_network.node[14].core_layer 	data[14] 	10022
scalar tree_4_3_u05_r1_network.node[14].content_store 	p_hit[14] 	0.35621628564089
scalar tree_4_3_u05_r1_network.node[14].content_store 	hits[14] 	5547
scalar tree_4_3_u05_r1_network.node[14].content_store 	misses[14] 	10025
scalar tree_4_3_u05_r1_network.node[14].content_store 	decision_yes[14] 	10022
scalar tree_4_3_u05_r1_network.node[14].content_store 	decision_no[14] 	0
scalar tree_4_3_u05_r1_network.node[14].content_store 	decision_ratio[14] 	1
scalar tree_4_3_u05_r1_network.node[15].core_layer 	interests[15] 	13418
scalar tree_4_3_u05_r1_network.node[15].core_layer 	data[15] 	10138
scalar tree_4_3_u05_r1_network.node[15].content_store 	p_hit[15] 	0.24444775674467
scalar tree_4_3_u05_r1_network.node[15].content_store 	hits[15] 	3280
scalar tree_4_3_u05_r1_network.node[15].content_store 	misses[15] 	10138
scalar tree_4_3_u05_r1_network.node[15].content_store 	decision_yes[15] 	10138
scalar tree_4_3_u05_r1_network.node[15].content_store 	decision_no[15] 	0
scalar tree_4_3_u05_r1_network.node[15].content_store 	decision_ratio[15] 	1
scalar tree_4_3_u05_r1_network.node[16].core_layer 	interests[16] 	14437
scalar tree_4_3_u05_r1_network.node[16].core_layer 	data[16] 	9934
scalar tree_4_3_u05_r1_network.node[16].content_store 	p_hit[16] 	0.31183763939877
scalar tree_4_3_u05_r1_network.node[16].content_store 	hits[16] 	4502
scalar tree_4_3_u05_r1_network.node[16].content_store 	misses[16] 	9935
scalar tree_4_3_u05_r1_network.node[16].content_store 	decision_yes[16] 	9934
scalar tree_4_3_u05_r1_network.node[16].content_store 	decision_no[16] 	0
scalar tree_4_3_u05_r1_network.node[16].content_store 	decision_ratio[16] 	1
scalar tree_4_3_u05_r1_network.node[17].core_layer 	interests[17] 	14506
scalar tree_4_3_u05_r1_network.node[17].core_layer 	data[17] 	9882
scalar tree_4_3_u05_r1_network.node[17].content_store 	p_hit[17] 	0.31876464911071
scalar tree_4_3_u05_r1_network.node[17].content_store 	hits[17] 	4624
scalar tree_4_3_u05_r1_network.node[17].content_store 	misses[17] 	9882
scalar tree_4_3_u05_r1_network.node[17].content_store 	decision_yes[17] 	9882
scalar tree_4_3_u05_r1_network.node[17].content_store 	decision_no[17] 	0
scalar tree_4_3_u05_r1_network.node[17].content_store 	decision_ratio[17] 	1
scalar tree_4_3_u05_r1_network.node[18].core_layer 	interests[18] 	16266
scalar tree_4_3_u05_r1_network.node[18].core_layer 	data[18] 	10074
scalar tree_4_3_u05_r1_network.node[18].content_store 	p_hit[18] 	0.3806713389893
scalar tree_4_3_u05_r1_network.node[18].content_store 	hits[18] 	6192
scalar tree_4_3_u05_r1_network.node[18].content_store 	misses[18] 	10074
scalar tree_4_3_u05_r1_network.node[18].content_store 	decision_yes[18] 	10074
scalar tree_4_3_u05_r1_network.node[18].content_store 	decision_no[18] 	0
scalar tree_4_3_u05_r1_network.node[18].content_store 	decision_ratio[18] 	1
scalar tree_4_3_u05_r1_network.node[19].core_layer 	interests[19] 	14573
scalar tree_4_3_u05_r1_network.node[19].core_layer 	data[19] 	9993
scalar tree_4_3_u05_r1_network.node[19].content_store 	p_hit[19] 	0.31414259246552
scalar tree_4_3_u05_r1_network.node[19].content_store 	hits[19] 	4578
scalar tree_4_3_u05_r1_network.node[19].content_store 	misses[19] 	9995
scalar tree_4_3_u05_r1_network.node[19].content_store 	decision_yes[19] 	9993
scalar tree_4_3_u05_r1_network.node[19].content_store 	decision_no[19] 	0
scalar tree_4_3_u05_r1_network.node[19].content_store 	decision_ratio[19] 	1
scalar tree_4_3_u05_r1_network.node[20].core_layer 	interests[20] 	16393
scalar tree_4_3_u05_r1_network.node[20].core_layer 	data[20] 	10196
scalar tree_4_3_u05_r1_network.node[20].content_store 	p_hit[20] 	0.37796620508754
scalar tree_4_3_u05_r1_network.node[20].content_store 	hits[20] 	6196
scalar tree_4_3_u05_r1_network.node[20].content_store 	misses[20] 	10197
scalar tree_4_3_u05_r1_network.node[20].content_store 	decision_yes[20] 	10196
scalar tree_4_3_u05_r1_network.node[20].content_store 	decision_no[20] 	0
scalar tree_4_3_u05_r1_network.node[20].content_store 	decision_ratio[20] 	1
scalar tree_4_3_u05_r1_network.node[21].core_layer 	interests[21] 	14437
scalar tree_4_3_u05_r1_network.node[21].core_layer 	data[21] 	9916
scalar tree_4_3_u05_r1_network.node[21].content_store 	p_hit[21] 	0.31308443582462
scalar tree_4_3_u05_r1_network.node[21].content_store 	hits[21] 	4520
scalar tree_4_3_u05_r1_network.node[21].content_store 	misses[21] 	9917
scalar tree_4_3_u05_r1_network.node[21].content_store 	decision_yes[21] 	9916
scalar tree_4_3_u05_r1_network.node[21].content_store 	decision_no[21] 	0
scalar tree_4_3_u05_r1_network.node[21].content_store 	decision_ratio[21] 	1
scalar tree_4_3_u05_r1_network.node[22].core_layer 	interests[22] 	14329
scalar tree_4_3_u05_r1_network.node[22].core_layer 	data[22] 	10082
scalar tree_4_3_u05_r1_network.node[22].content_store 	p_hit[22] 	0.29639193244469
scalar tree_4_3_u05_r1_network.node[22].content_store 	hits[22] 	4247
scalar tree_4_3_u05_r1_network.node[22].content_store 	misses[22] 	10082
scalar tree_4_3_u05_r1_network.node[22].content_store 	decision_yes[22] 	10082
scalar tree_4_3_u05_r1_network.node[22].content_store 	decision_no[22] 	0
scalar tree_4_3_u05_r1_network.node[22].content_store 	decision_ratio[22] 	1
scalar tree_4_3_u05_r1_network.node[23].core_layer 	interests[23] 	14357
scalar tree_4_3_u05_r1_network.node[23].core_layer 	data[23] 	10007
scalar tree_4_3_u05_r1_network.node[23].content_store 	p_hit[23] 	0.30291843699937
scalar tree_4_3_u05_r1_network.node[23].content_store 	hits[23] 	4349
scalar tree_4_3_u05_r1_network.node[23].content_store 	misses[23] 	10008
scalar tree_4_3_u05_r1_network.node[23].content_store 	decision_yes[23] 	10007
scalar tree_4_3_u05_r1_network.node[23].content_store 	decision_no[23] 	0
scalar tree_4_3_u05_r1_network.node[23].content_store 	decision_ratio[23] 	1
scalar tree_4_3_u05_r1_network.node[24].core_layer 	interests[24] 	15779
scalar tree_4_3_u05_r1_network.node[24].core_layer 	data[24] 	10005
scalar tree_4_3_u05_r1_network.node[24].content_store 	p_hit[24] 	0.36592939983522
scalar tree_4_3_u05_r1_network.node[24].content_store 	hits[24] 	5774
scalar tree_4_3_u05_r1_network.node[24].content_store 	misses[24] 	10005
scalar tree_4_3_u05_r1_network.node[24].content_store 	decision_yes[24] 	10005
scalar tree_4_3_u05_r1_network.node[24].content_store 	decision_no[24] 	0
scalar tree_4_3_u05_r1_network.node[24].content_store 	decision_ratio[24] 	1
scalar tree_4_3_u05_r1_network.node[25].core_layer 	interests[25] 	15213
scalar tree_4_3_u05_r1_network.node[25].core_layer 	data[25] 	10040
scalar tree_4_3_u05_r1_network.node[25].content_store 	p_hit[25] 	0.34003812528758
scalar tree_4_3_u05_r1_network.node[25].content_store 	hits[25] 	5173
scalar tree_4_3_u05_r1_network.node[25].content_store 	misses[25] 	10040
scalar tree_4_3_u05_r1_network.node[25].content_store 	decision_yes[25] 	10040
scalar tree_4_3_u05_r1_network.node[25].content_store 	decision_no[25] 	0
scalar tree_4_3_u05_r1_network.node[25].content_store 	decision_ratio[25] 	1
scalar tree_4_3_u05_r1_network.node[26].core_layer 	interests[26] 	13744
scalar tree_4_3_u05_r1_network.node[26].core_layer 	data[26] 	10241
scalar tree_4_3_u05_r1_network.node[26].content_store 	p_hit[26] 	0.25480209545984
scalar tree_4_3_u05_r1_network.node[26].content_store 	hits[26] 	3502
scalar tree_4_3_u05_r1_network.node[26].content_store 	misses[26] 	10242
scalar tree_4_3_u05_r1_network.node[26].content_store 	decision_yes[26] 	10241
scalar tree_4_3_u05_r1_network.node[26].content_store 	decision_no[26] 	0
scalar tree_4_3_u05_r1_network.node[26].content_store 	decision_ratio[26] 	1
scalar tree_4_3_u05_r1_network.node[27].core_layer 	interests[27] 	14960
scalar tree_4_3_u05_r1_network.node[27].core_layer 	data[27] 	10071
scalar tree_4_3_u05_r1_network.node[27].content_store 	p_hit[27] 	0.32680481283422
scalar tree_4_3_u05_r1_network.node[27].content_store 	hits[27] 	4889
scalar tree_4_3_u05_r1_network.node[27].content_store 	misses[27] 	10071
scalar tree_4_3_u05_r1_network.node[27].content_store 	decision_yes[27] 	10071
scalar tree_4_3_u05_r1_network.node[27].content_store 	decision_no[27] 	0
scalar tree_4_3_u05_r1_network.node[27].content_store 	decision_ratio[27] 	1
scalar tree_4_3_u05_r1_network.node[28].core_layer 	interests[28] 	14031
scalar tree_4_3_u05_r1_network.node[28].core_layer 	data[28] 	9970
scalar tree_4_3_u05_r1_network.node[28].content_store 	p_hit[28] 	0.28943054664671
scalar tree_4_3_u05_r1_network.node[28].content_store 	hits[28] 	4061
scalar tree_4_3_u05_r1_network.node[28].content_store 	misses[28] 	9970
scalar tree_4_3_u05_r1_network.node[28].content_store 	decision_yes[28] 	9970
scalar tree_4_3_u05_r1_network.node[28].content_store 	decision_no[28] 	0
scalar tree_4_3_u05_r1_network.node[28].content_store 	decision_ratio[28] 	1
scalar tree_4_3_u05_r1_network.node[29].core_layer 	interests[29] 	13938
scalar tree_4_3_u05_r1_network.node[29].core_layer 	data[29] 	9833
scalar tree_4_3_u05_r1_network.node[29].content_store 	p_hit[29] 	0.29451858229301
scalar tree_4_3_u05_r1_network.node[29].content_store 	hits[29] 	4105
scalar tree_4_3_u05_r1_network.node[29].content_store 	misses[29] 	9833
scalar tree_4_3_u05_r1_network.node[29].content_store 	decision_yes[29] 	9833
scalar tree_4_3_u05_r1_network.node[29].content_store 	decision_no[29] 	0
scalar tree_4_3_u05_r1_network.node[29].content_store 	decision_ratio[29] 	1
scalar tree_4_3_u05_r1_network.node[30].core_layer 	interests[30] 	13916
scalar tree_4_3_u05_r1_network.node[30].core_layer 	data[30] 	9919
scalar tree_4_3_u05_r1_network.node[30].content_store 	p_hit[30] 	0.28707962058063
scalar tree_4_3_u05_r1_network.node[30].content_store 	hits[30] 	3995
scalar tree_4_3_u05_r1_network.node[30].content_store 	misses[30] 	9921
scalar tree_4_3_u05_r1_network.node[30].content_store 	decision_yes[30] 	9919
scalar tree_4_3_u05_r1_network.node[30].content_store 	decision_no[30] 	0
scalar tree_4_3_u05_r1_network.node[30].content_store 	decision_ratio[30] 	1
scalar tree_4_3_u05_r1_network.node[31].core_layer 	interests[31] 	13368
scalar tree_4_3_u05_r1_network.node[31].core_layer 	data[31] 	9709
scalar tree_4_3_u05_r1_network.node[31].content_store 	p_hit[31] 	0.27363853979653
scalar tree_4_3_u05_r1_network.node[31].content_store 	hits[31] 	3658
scalar tree_4_3_u05_r1_network.node[31].content_store 	misses[31] 	9710
scalar tree_4_3_u05_r1_network.node[31].content_store 	decision_yes[31] 	9709
scalar tree_4_3_u05_r1_network.node[31].content_store 	decision_no[31] 	0
scalar tree_4_3_u05_r1_network.node[31].content_store 	decision_ratio[31] 	1
scalar tree_4_3_u05_r1_network.node[32].core_layer 	interests[32] 	13869
scalar tree_4_3_u05_r1_network.node[32].core_layer 	data[32] 	10122
scalar tree_4_3_u05_r1_network.node[32].content_store 	p_hit[32] 	0.2701708847069
scalar tree_4_3_u05_r1_network.node[32].content_store 	hits[32] 	3747
scalar tree_4_3_u05_r1_network.node[32].content_store 	misses[32] 	10122
scalar tree_4_3_u05_r1_network.node[32].content_store 	decision_yes[32] 	10122
scalar tree_4_3_u05_r1_network.node[32].content_store 	decision_no[32] 	0
scalar tree_4_3_u05_r1_network.node[32].content_store 	decision_ratio[32] 	1
scalar tree_4_3_u05_r1_network.node[33].core_layer 	interests[33] 	13886
scalar tree_4_3_u05_r1_network.node[33].core_layer 	data[33] 	10164
scalar tree_4_3_u05_r1_network.node[33].content_store 	p_hit[33] 	0.26796773728936
scalar tree_4_3_u05_r1_network.node[33].content_store 	hits[33] 	3721
scalar tree_4_3_u05_r1_network.node[33].content_store 	misses[33] 	10165
scalar tree_4_3_u05_r1_network.node[33].content_store 	decision_yes[33] 	10164
scalar tree_4_3_u05_r1_network.node[33].content_store 	decision_no[33] 	0
scalar tree_4_3_u05_r1_network.node[33].content_store 	decision_ratio[33] 	1
scalar tree_4_3_u05_r1_network.node[34].core_layer 	interests[34] 	15928
scalar tree_4_3_u05_r1_network.node[34].core_layer 	data[34] 	9845
scalar tree_4_3_u05_r1_network.node[34].content_store 	p_hit[34] 	0.38184329482672
scalar tree_4_3_u05_r1_network.node[34].content_store 	hits[34] 	6082
scalar tree_4_3_u05_r1_network.node[34].content_store 	misses[34] 	9846
scalar tree_4_3_u05_r1_network.node[34].content_store 	decision_yes[34] 	9845
scalar tree_4_3_u05_r1_network.node[34].content_store 	decision_no[34] 	0
scalar tree_4_3_u05_r1_network.node[34].content_store 	decision_ratio[34] 	1
scalar tree_4_3_u05_r1_network.node[35].core_layer 	interests[35] 	14921
scalar tree_4_3_u05_r1_network.node[35].core_layer 	data[35] 	9982
scalar tree_4_3_u05_r1_network.node[35].content_store 	p_hit[35] 	0.33100998592588
scalar tree_4_3_u05_r1_network.node[35].content_store 	hits[35] 	4939
scalar tree_4_3_u05_r1_network.node[35].content_store 	misses[35] 	9982
scalar tree_4_3_u05_r1_network.node[35].content_store 	decision_yes[35] 	9982
scalar tree_4_3_u05_r1_network.node[35].content_store 	decision_no[35] 	0
scalar tree_4_3_u05_r1_network.node[35].content_store 	decision_ratio[35] 	1
scalar tree_4_3_u05_r1_network.node[36].core_layer 	interests[36] 	14887
scalar tree_4_3_u05_r1_network.node[36].core_layer 	data[36] 	10055
scalar tree_4_3_u05_r1_network.node[36].content_store 	p_hit[36] 	0.32444414589911
scalar tree_4_3_u05_r1_network.node[36].content_store 	hits[36] 	4830
scalar tree_4_3_u05_r1_network.node[36].content_store 	misses[36] 	10057
scalar tree_4_3_u05_r1_network.node[36].content_store 	decision_yes[36] 	10055
scalar tree_4_3_u05_r1_network.node[36].content_store 	decision_no[36] 	0
scalar tree_4_3_u05_r1_network.node[36].content_store 	decision_ratio[36] 	1
scalar tree_4_3_u05_r1_network.node[37].core_layer 	interests[37] 	13474
scalar tree_4_3_u05_r1_network.node[37].core_layer 	data[37] 	10075
scalar tree_4_3_u05_r1_network.node[37].content_store 	p_hit[37] 	0.2521894018109
scalar tree_4_3_u05_r1_network.node[37].content_store 	hits[37] 	3398
scalar tree_4_3_u05_r1_network.node[37].content_store 	misses[37] 	10076
scalar tree_4_3_u05_r1_network.node[37].content_store 	decision_yes[37] 	10075
scalar tree_4_3_u05_r1_network.node[37].content_store 	decision_no[37] 	0
scalar tree_4_3_u05_r1_network.node[37].content_store 	decision_ratio[37] 	1
scalar tree_4_3_u05_r1_network.node[38].core_layer 	interests[38] 	15836
scalar tree_4_3_u05_r1_network.node[38].core_layer 	data[38] 	10160
scalar tree_4_3_u05_r1_network.node[38].content_store 	p_hit[38] 	0.35823440262693
scalar tree_4_3_u05_r1_network.node[38].content_store 	hits[38] 	5673
scalar tree_4_3_u05_r1_network.node[38].content_store 	misses[38] 	10163
scalar tree_4_3_u05_r1_network.node[38].content_store 	decision_yes[38] 	10160
scalar tree_4_3_u05_r1_network.node[38].content_store 	decision_no[38] 	0
scalar tree_4_3_u05_r1_network.node[38].content_store 	decision_ratio[38] 	1
scalar tree_4_3_u05_r1_network.node[39].core_layer 	interests[39] 	13628
scalar tree_4_3_u05_r1_network.node[39].core_layer 	data[39] 	10144
scalar tree_4_3_u05_r1_network.node[39].content_store 	p_hit[39] 	0.25565013208101
scalar tree_4_3_u05_r1_network.node[39].content_store 	hits[39] 	3484
scalar tree_4_3_u05_r1_network.node[39].content_store 	misses[39] 	10144
scalar tree_4_3_u05_r1_network.node[39].content_store 	decision_yes[39] 	10144
scalar tree_4_3_u05_r1_network.node[39].content_store 	decision_no[39] 	0
scalar tree_4_3_u05_r1_network.node[39].content_store 	decision_ratio[39] 	1
scalar tree_4_3_u05_r1_network.client[13] 	hdistance[13] 	3.1975134687112
scalar tree_4_3_u05_r1_network.client[13] 	downloads[13] 	12065
scalar tree_4_3_u05_r1_network.client[13] 	avg_time[13] 	0.005092781891
scalar tree_4_3_u05_r1_network.client[14] 	hdistance[14] 	3.0649264277995
scalar tree_4_3_u05_r1_network.client[14] 	downloads[14] 	12029
scalar tree_4_3_u05_r1_network.client[14] 	avg_time[14] 	0.004907909008
scalar tree_4_3_u05_r1_network.client[15] 	hdistance[15] 	3.2134439834025
scalar tree_4_3_u05_r1_network.client[15] 	downloads[15] 	12050
scalar tree_4_3_u05_r1_network.client[15] 	avg_time[15] 	0.005114124458
scalar tree_4_3_u05_r1_network.client[16] 	hdistance[16] 	3.1097089012283
scalar tree_4_3_u05_r1_network.client[16] 	downloads[16] 	11886
scalar tree_4_3_u05_r1_network.client[16] 	avg_time[16] 	0.005002527935
scalar tree_4_3_u05_r1_network.client[17] 	hdistance[17] 	3.081757835476
scalar tree_4_3_u05_r1_network.client[17] 	downloads[17] 	11901
scalar tree_4_3_u05_r1_network.client[17] 	avg_time[17] 	0.004966977692
scalar tree_4_3_u05_r1_network.client[18] 	hdistance[18] 	3.0745996182889
scalar tree_4_3_u05_r1_network.client[18] 	downloads[18] 	12051
scalar tree_4_3_u05_r1_network.client[18] 	avg_time[18] 	0.004954889206
scalar tree_4_3_u05_r1_network.client[19] 	hdistance[19] 	3.1591616867267
scalar tree_4_3_u05_r1_network.client[19] 	downloads[19] 	11881
scalar tree_4_3_u05_r1_network.client[19] 	avg_time[19] 	0.005092942912
scalar tree_4_3_u05_r1_network.client[20] 	hdistance[20] 	3.0754949478354
scalar tree_4_3_u05_r1_network.client[20] 	downloads[20] 	12173
scalar tree_4_3_u05_r1_network.client[20] 	avg_time[20] 	0.004962515049
scalar tree_4_3_u05_r1_network.client[21] 	hdistance[21] 	3.1515869657215
scalar tree_4_3_u05_r1_network.client[21] 	downloads[21] 	11815
scalar tree_4_3_u05_r1_network.client[21] 	avg_time[21] 	0.005082166596
scalar tree_4_3_u05_r1_network.client[22] 	hdistance[22] 	3.1628373297686
scalar tree_4_3_u05_r1_network.client[22] 	downloads[22] 	11969
scalar tree_4_3_u05_r1_network.client[22] 	avg_time[22] 	0.005102792539
scalar tree_4_3_u05_r1_network.client[23] 	hdistance[23] 	3.1545492662474
scalar tree_4_3_u05_r1_network.client[23] 	downloads[23] 	11925
scalar tree_4_3_u05_r1_network.client[23] 	avg_time[23] 	0.005104897436
scalar tree_4_3_u05_r1_network.client[24] 	hdistance[24] 	3.0535417359495
scalar tree_4_3_u05_r1_network.client[24] 	downloads[24] 	12028
scalar tree_4_3_u05_r1_network.client[24] 	avg_time[24] 	0.004860988013
scalar tree_4_3_u05_r1_network.client[25] 	hdistance[25] 	3.088567630442
scalar tree_4_3_u05_r1_network.client[25] 	downloads[25] 	12036
scalar tree_4_3_u05_r1_network.client[25] 	avg_time[25] 	0.004947155532
scalar tree_4_3_u05_r1_network.client[26] 	hdistance[26] 	3.2257159362879
scalar tree_4_3_u05_r1_network.client[26] 	downloads[26] 	12117
scalar tree_4_3_u05_r1_network.client[26] 	avg_time[26] 	0.005185625908
scalar tree_4_3_u05_r1_network.client[27] 	hdistance[27] 	3.0781742738589
scalar tree_4_3_u05_r1_network.client[27] 	downloads[27] 	12050
scalar tree_4_3_u05_r1_network.client[27] 	avg_time[27] 	0.004899084144
scalar tree_4_3_u05_r1_network.client[28] 	hdistance[28] 	3.1270959087861
scalar tree_4_3_u05_r1_network.client[28] 	downloads[28] 	11928
scalar tree_4_3_u05_r1_network.client[28] 	avg_time[28] 	0.004993256866
scalar tree_4_3_u05_r1_network.client[29] 	hdistance[29] 	3.1147931005183
scalar tree_4_3_u05_r1_network.client[29] 	downloads[29] 	11769
scalar tree_4_3_u05_r1_network.client[29] 	avg_time[29] 	0.004981880326
scalar tree_4_3_u05_r1_network.client[30] 	hdistance[30] 	3.1155855096883
scalar tree_4_3_u05_r1_network.client[30] 	downloads[30] 	11870
scalar tree_4_3_u05_r1_network.client[30] 	avg_time[30] 	0.004988923776
scalar tree_4_3_u05_r1_network.client[31] 	hdistance[31] 	3.1347008547009
scalar tree_4_3_u05_r1_network.client[31] 	downloads[31] 	11700
scalar tree_4_3_u05_r1_network.client[31] 	avg_time[31] 	0.004973058654
scalar tree_4_3_u05_r1_network.client[32] 	hdistance[32] 	3.1321375678789
scalar tree_4_3_u05_r1_network.client[32] 	downloads[32] 	12154
scalar tree_4_3_u05_r1_network.client[32] 	avg_time[32] 	0.004987597258
scalar tree_4_3_u05_r1_network.client[33] 	hdistance[33] 	3.1667078290936
scalar tree_4_3_u05_r1_network.client[33] 	downloads[33] 	12147
scalar tree_4_3_u05_r1_network.client[33] 	avg_time[33] 	0.005021810373
scalar tree_4_3_u05_r1_network.client[34] 	hdistance[34] 	3.0441584658087
scalar tree_4_3_u05_r1_network.client[34] 	downloads[34] 	11889
scalar tree_4_3_u05_r1_network.client[34] 	avg_time[34] 	0.004899349875
scalar tree_4_3_u05_r1_network.client[35] 	hdistance[35] 	3.1490074545607
scalar tree_4_3_u05_r1_network.client[35] 	downloads[35] 	11939
scalar tree_4_3_u05_r1_network.client[35] 	avg_time[35] 	0.005102020455
scalar tree_4_3_u05_r1_network.client[36] 	hdistance[36] 	3.1505116898244
scalar tree_4_3_u05_r1_network.client[36] 	downloads[36] 	12019
scalar tree_4_3_u05_r1_network.client[36] 	avg_time[36] 	0.005101482738
scalar tree_4_3_u05_r1_network.client[37] 	hdistance[37] 	3.2318269472625
scalar tree_4_3_u05_r1_network.client[37] 	downloads[37] 	11927
scalar tree_4_3_u05_r1_network.client[37] 	avg_time[37] 	0.005150864512
scalar tree_4_3_u05_r1_network.client[38] 	hdistance[38] 	3.1291470174568
scalar tree_4_3_u05_r1_network.client[38] 	downloads[38] 	12087
scalar tree_4_3_u05_r1_network.client[38] 	avg_time[38] 	0.00502943563
scalar tree_4_3_u05_r1_network.client[39] 	hdistance[39] 	3.2005955827612
scalar tree_4_3_u05_r1_network.client[39] 	downloads[39] 	12089
scalar tree_4_3_u05_r1_network.client[39] 	avg_time[39] 	0.005098118565
