version 2
run General-32-20160824-16:45:29-24543
attr D tfc
attr F nrr
attr R lru
attr a 0.9
attr configname General
attr datetime 20160824-16:45:29
attr experiment General
attr inifile hw5115/scenario_C/omnetp.ini
attr iterationvars "$net=dtelecom, $rep=4, $a=0.9, $F=nrr, $D=tfc, $R=lru, $window=60, $variance=0.05, $mytime=600"
attr iterationvars2 "$net=dtelecom, $rep=4, $a=0.9, $F=nrr, $D=tfc, $R=lru, $window=60, $variance=0.05, $mytime=600, $repetition=0"
attr measurement "$net=dtelecom, $rep=4, $a=0.9, $F=nrr, $D=tfc, $R=lru, $window=60, $variance=0.05, $mytime=600"
attr mytime 600
attr net dtelecom
attr network networks.${net=dtelecom}_network
attr processid 24543
attr rep 4
attr repetition 0
attr replication #0
attr resultdir results
attr runnumber 32
attr seedset 4
attr variance 0.05
attr window 60

scalar . 	a 	0.9
scalar . 	mytime 	600
scalar . 	rep 	4
scalar . 	variance 	0.05
scalar . 	window 	60
scalar dtelecom_network.content_distribution 	repo-0 	48
scalar dtelecom_network.content_distribution 	repo-1 	16
scalar dtelecom_network.content_distribution 	repo-2 	25
scalar dtelecom_network.content_distribution 	repo-3 	58
scalar dtelecom_network.content_distribution 	repo-4 	26
scalar dtelecom_network.content_distribution 	repo-5 	66
scalar dtelecom_network.content_distribution 	repo-6 	46
scalar dtelecom_network.content_distribution 	repo-7 	54
scalar dtelecom_network.content_distribution 	repo-8 	52
scalar dtelecom_network.content_distribution 	repo-9 	2
scalar dtelecom_network.content_distribution 	repo-10 	32
scalar dtelecom_network.content_distribution 	repo-11 	19
scalar dtelecom_network.content_distribution 	repo-12 	21
scalar dtelecom_network.content_distribution 	repo-13 	11
scalar dtelecom_network.content_distribution 	repo-14 	1
scalar dtelecom_network.content_distribution 	repo-15 	18
scalar dtelecom_network.content_distribution 	client-0 	46
scalar dtelecom_network.content_distribution 	client-1 	30
scalar dtelecom_network.content_distribution 	client-2 	8
scalar dtelecom_network.content_distribution 	client-3 	49
scalar dtelecom_network.content_distribution 	client-4 	66
scalar dtelecom_network.content_distribution 	client-5 	58
scalar dtelecom_network.content_distribution 	client-6 	32
scalar dtelecom_network.content_distribution 	client-7 	40
scalar dtelecom_network.content_distribution 	client-8 	42
scalar dtelecom_network.content_distribution 	client-9 	45
scalar dtelecom_network.content_distribution 	client-10 	33
scalar dtelecom_network.content_distribution 	client-11 	28
scalar dtelecom_network.content_distribution 	client-12 	3
scalar dtelecom_network.content_distribution 	client-13 	57
scalar dtelecom_network.content_distribution 	client-14 	50
scalar dtelecom_network.content_distribution 	client-15 	17
scalar dtelecom_network.content_distribution 	client-16 	59
scalar dtelecom_network.content_distribution 	client-17 	48
scalar dtelecom_network.content_distribution 	client-18 	23
scalar dtelecom_network.content_distribution 	client-19 	22
scalar dtelecom_network.content_distribution 	client-20 	67
scalar dtelecom_network.content_distribution 	client-21 	62
scalar dtelecom_network.content_distribution 	client-22 	56
scalar dtelecom_network.content_distribution 	client-23 	55
scalar dtelecom_network.content_distribution 	client-24 	53
scalar dtelecom_network.content_distribution 	client-25 	36
scalar dtelecom_network.content_distribution 	client-26 	51
scalar dtelecom_network.content_distribution 	client-27 	37
scalar dtelecom_network.content_distribution 	client-28 	54
scalar dtelecom_network.content_distribution 	client-29 	4
scalar dtelecom_network.content_distribution 	client-30 	31
scalar dtelecom_network.content_distribution 	client-31 	9
scalar dtelecom_network.content_distribution 	repo-0_card 	6113
scalar dtelecom_network.content_distribution 	repo-0_price 	0
scalar dtelecom_network.content_distribution 	repo-1_card 	6293
scalar dtelecom_network.content_distribution 	repo-1_price 	0
scalar dtelecom_network.content_distribution 	repo-2_card 	6315
scalar dtelecom_network.content_distribution 	repo-2_price 	0
scalar dtelecom_network.content_distribution 	repo-3_card 	6168
scalar dtelecom_network.content_distribution 	repo-3_price 	0
scalar dtelecom_network.content_distribution 	repo-4_card 	6306
scalar dtelecom_network.content_distribution 	repo-4_price 	0
scalar dtelecom_network.content_distribution 	repo-5_card 	6220
scalar dtelecom_network.content_distribution 	repo-5_price 	0
scalar dtelecom_network.content_distribution 	repo-6_card 	6389
scalar dtelecom_network.content_distribution 	repo-6_price 	0
scalar dtelecom_network.content_distribution 	repo-7_card 	6228
scalar dtelecom_network.content_distribution 	repo-7_price 	0
scalar dtelecom_network.content_distribution 	repo-8_card 	6293
scalar dtelecom_network.content_distribution 	repo-8_price 	0
scalar dtelecom_network.content_distribution 	repo-9_card 	6212
scalar dtelecom_network.content_distribution 	repo-9_price 	0
scalar dtelecom_network.content_distribution 	repo-10_card 	6329
scalar dtelecom_network.content_distribution 	repo-10_price 	0
scalar dtelecom_network.content_distribution 	repo-11_card 	6232
scalar dtelecom_network.content_distribution 	repo-11_price 	0
scalar dtelecom_network.content_distribution 	repo-12_card 	6164
scalar dtelecom_network.content_distribution 	repo-12_price 	0
scalar dtelecom_network.content_distribution 	repo-13_card 	6137
scalar dtelecom_network.content_distribution 	repo-13_price 	0
scalar dtelecom_network.content_distribution 	repo-14_card 	6293
scalar dtelecom_network.content_distribution 	repo-14_price 	0
scalar dtelecom_network.content_distribution 	repo-15_card 	6308
scalar dtelecom_network.content_distribution 	repo-15_price 	0
scalar dtelecom_network.statistics 	stabilization_time 	3269.5
scalar dtelecom_network.statistics 	p_hit 	0.28414840065407
scalar dtelecom_network.statistics 	interests 	12939.117647059
scalar dtelecom_network.statistics 	data 	7306.1617647059
scalar dtelecom_network.statistics 	hdistance 	1.796664114885
scalar dtelecom_network.statistics 	avg_time 	0.023038704594
scalar dtelecom_network.statistics 	downloads 	383013
scalar dtelecom_network.statistics 	total_cost 	0
scalar dtelecom_network.statistics 	total_replicas 	100000
scalar dtelecom_network.statistics 	inner_hit 	0.50018145598191
scalar dtelecom_network.node[0].core_layer 	interests[0] 	0
scalar dtelecom_network.node[0].core_layer 	data[0] 	0
scalar dtelecom_network.node[0].core_layer 	repo_int[0] 	191437
scalar dtelecom_network.node[0].content_store 	p_hit[0] 	-nan
scalar dtelecom_network.node[0].content_store 	hits[0] 	0
scalar dtelecom_network.node[0].content_store 	misses[0] 	0
scalar dtelecom_network.node[0].content_store 	decision_yes[0] 	0
scalar dtelecom_network.node[0].content_store 	decision_no[0] 	0
scalar dtelecom_network.node[0].content_store 	decision_ratio[0] 	0
scalar dtelecom_network.node[1].core_layer 	interests[1] 	191949
scalar dtelecom_network.node[1].core_layer 	repo_load[1] 	15601
scalar dtelecom_network.node[1].core_layer 	data[1] 	168226
scalar dtelecom_network.node[1].content_store 	p_hit[1] 	0.042188289597758
scalar dtelecom_network.node[1].content_store 	hits[1] 	8098
scalar dtelecom_network.node[1].content_store 	misses[1] 	183851
scalar dtelecom_network.node[1].content_store 	decision_yes[1] 	1045
scalar dtelecom_network.node[1].content_store 	decision_no[1] 	182781
scalar dtelecom_network.node[1].content_store 	decision_ratio[1] 	0.0056847235973149
scalar dtelecom_network.node[2].core_layer 	interests[2] 	16769
scalar dtelecom_network.node[2].core_layer 	repo_load[2] 	11302
scalar dtelecom_network.node[2].core_layer 	data[2] 	3028
scalar dtelecom_network.node[2].content_store 	p_hit[2] 	0.14544695569205
scalar dtelecom_network.node[2].content_store 	hits[2] 	2439
scalar dtelecom_network.node[2].content_store 	misses[2] 	14330
scalar dtelecom_network.node[2].content_store 	decision_yes[2] 	389
scalar dtelecom_network.node[2].content_store 	decision_no[2] 	13941
scalar dtelecom_network.node[2].content_store 	decision_ratio[2] 	0.027145847871598
scalar dtelecom_network.node[3].core_layer 	interests[3] 	20604
scalar dtelecom_network.node[3].core_layer 	data[3] 	8994
scalar dtelecom_network.node[3].content_store 	p_hit[3] 	0.56348281887012
scalar dtelecom_network.node[3].content_store 	hits[3] 	11610
scalar dtelecom_network.node[3].content_store 	misses[3] 	8994
scalar dtelecom_network.node[3].content_store 	decision_yes[3] 	177
scalar dtelecom_network.node[3].content_store 	decision_no[3] 	8817
scalar dtelecom_network.node[3].content_store 	decision_ratio[3] 	0.01967978652435
scalar dtelecom_network.node[4].core_layer 	interests[4] 	50780
scalar dtelecom_network.node[4].core_layer 	data[4] 	39692
scalar dtelecom_network.node[4].content_store 	p_hit[4] 	0.21797951949586
scalar dtelecom_network.node[4].content_store 	hits[4] 	11069
scalar dtelecom_network.node[4].content_store 	misses[4] 	39711
scalar dtelecom_network.node[4].content_store 	decision_yes[4] 	620
scalar dtelecom_network.node[4].content_store 	decision_no[4] 	39071
scalar dtelecom_network.node[4].content_store 	decision_ratio[4] 	0.015620669673226
scalar dtelecom_network.node[5].core_layer 	interests[5] 	0
scalar dtelecom_network.node[5].core_layer 	data[5] 	0
scalar dtelecom_network.node[5].content_store 	p_hit[5] 	-nan
scalar dtelecom_network.node[5].content_store 	hits[5] 	0
scalar dtelecom_network.node[5].content_store 	misses[5] 	0
scalar dtelecom_network.node[5].content_store 	decision_yes[5] 	0
scalar dtelecom_network.node[5].content_store 	decision_no[5] 	0
scalar dtelecom_network.node[5].content_store 	decision_ratio[5] 	0
scalar dtelecom_network.node[6].core_layer 	interests[6] 	0
scalar dtelecom_network.node[6].core_layer 	data[6] 	0
scalar dtelecom_network.node[6].content_store 	p_hit[6] 	-nan
scalar dtelecom_network.node[6].content_store 	hits[6] 	0
scalar dtelecom_network.node[6].content_store 	misses[6] 	0
scalar dtelecom_network.node[6].content_store 	decision_yes[6] 	0
scalar dtelecom_network.node[6].content_store 	decision_no[6] 	0
scalar dtelecom_network.node[6].content_store 	decision_ratio[6] 	0
scalar dtelecom_network.node[7].core_layer 	interests[7] 	0
scalar dtelecom_network.node[7].core_layer 	data[7] 	0
scalar dtelecom_network.node[7].content_store 	p_hit[7] 	-nan
scalar dtelecom_network.node[7].content_store 	hits[7] 	0
scalar dtelecom_network.node[7].content_store 	misses[7] 	0
scalar dtelecom_network.node[7].content_store 	decision_yes[7] 	0
scalar dtelecom_network.node[7].content_store 	decision_no[7] 	0
scalar dtelecom_network.node[7].content_store 	decision_ratio[7] 	0
scalar dtelecom_network.node[8].core_layer 	interests[8] 	13043
scalar dtelecom_network.node[8].core_layer 	data[8] 	8683
scalar dtelecom_network.node[8].content_store 	p_hit[8] 	0.33412558460477
scalar dtelecom_network.node[8].content_store 	hits[8] 	4358
scalar dtelecom_network.node[8].content_store 	misses[8] 	8685
scalar dtelecom_network.node[8].content_store 	decision_yes[8] 	92
scalar dtelecom_network.node[8].content_store 	decision_no[8] 	8591
scalar dtelecom_network.node[8].content_store 	decision_ratio[8] 	0.010595416330761
scalar dtelecom_network.node[9].core_layer 	interests[9] 	14637
scalar dtelecom_network.node[9].core_layer 	data[9] 	9467
scalar dtelecom_network.node[9].content_store 	p_hit[9] 	0.35294117647059
scalar dtelecom_network.node[9].content_store 	hits[9] 	5166
scalar dtelecom_network.node[9].content_store 	misses[9] 	9471
scalar dtelecom_network.node[9].content_store 	decision_yes[9] 	119
scalar dtelecom_network.node[9].content_store 	decision_no[9] 	9348
scalar dtelecom_network.node[9].content_store 	decision_ratio[9] 	0.012569979930284
scalar dtelecom_network.node[10].core_layer 	interests[10] 	0
scalar dtelecom_network.node[10].core_layer 	data[10] 	0
scalar dtelecom_network.node[10].content_store 	p_hit[10] 	-nan
scalar dtelecom_network.node[10].content_store 	hits[10] 	0
scalar dtelecom_network.node[10].content_store 	misses[10] 	0
scalar dtelecom_network.node[10].content_store 	decision_yes[10] 	0
scalar dtelecom_network.node[10].content_store 	decision_no[10] 	0
scalar dtelecom_network.node[10].content_store 	decision_ratio[10] 	0
scalar dtelecom_network.node[11].core_layer 	interests[11] 	13147
scalar dtelecom_network.node[11].core_layer 	repo_load[11] 	10829
scalar dtelecom_network.node[11].core_layer 	data[11] 	0
scalar dtelecom_network.node[11].content_store 	p_hit[11] 	0.17631398798205
scalar dtelecom_network.node[11].content_store 	hits[11] 	2318
scalar dtelecom_network.node[11].content_store 	misses[11] 	10829
scalar dtelecom_network.node[11].content_store 	decision_yes[11] 	482
scalar dtelecom_network.node[11].content_store 	decision_no[11] 	10347
scalar dtelecom_network.node[11].content_store 	decision_ratio[11] 	0.044510111737002
scalar dtelecom_network.node[12].core_layer 	interests[12] 	0
scalar dtelecom_network.node[12].core_layer 	data[12] 	0
scalar dtelecom_network.node[12].content_store 	p_hit[12] 	-nan
scalar dtelecom_network.node[12].content_store 	hits[12] 	0
scalar dtelecom_network.node[12].content_store 	misses[12] 	0
scalar dtelecom_network.node[12].content_store 	decision_yes[12] 	0
scalar dtelecom_network.node[12].content_store 	decision_no[12] 	0
scalar dtelecom_network.node[12].content_store 	decision_ratio[12] 	0
scalar dtelecom_network.node[13].core_layer 	interests[13] 	0
scalar dtelecom_network.node[13].core_layer 	data[13] 	0
scalar dtelecom_network.node[13].content_store 	p_hit[13] 	-nan
scalar dtelecom_network.node[13].content_store 	hits[13] 	0
scalar dtelecom_network.node[13].content_store 	misses[13] 	0
scalar dtelecom_network.node[13].content_store 	decision_yes[13] 	0
scalar dtelecom_network.node[13].content_store 	decision_no[13] 	0
scalar dtelecom_network.node[13].content_store 	decision_ratio[13] 	0
scalar dtelecom_network.node[14].core_layer 	interests[14] 	0
scalar dtelecom_network.node[14].core_layer 	data[14] 	0
scalar dtelecom_network.node[14].content_store 	p_hit[14] 	-nan
scalar dtelecom_network.node[14].content_store 	hits[14] 	0
scalar dtelecom_network.node[14].content_store 	misses[14] 	0
scalar dtelecom_network.node[14].content_store 	decision_yes[14] 	0
scalar dtelecom_network.node[14].content_store 	decision_no[14] 	0
scalar dtelecom_network.node[14].content_store 	decision_ratio[14] 	0
scalar dtelecom_network.node[15].core_layer 	interests[15] 	0
scalar dtelecom_network.node[15].core_layer 	data[15] 	0
scalar dtelecom_network.node[15].content_store 	p_hit[15] 	-nan
scalar dtelecom_network.node[15].content_store 	hits[15] 	0
scalar dtelecom_network.node[15].content_store 	misses[15] 	0
scalar dtelecom_network.node[15].content_store 	decision_yes[15] 	0
scalar dtelecom_network.node[15].content_store 	decision_no[15] 	0
scalar dtelecom_network.node[15].content_store 	decision_ratio[15] 	0
scalar dtelecom_network.node[16].core_layer 	interests[16] 	13801
scalar dtelecom_network.node[16].core_layer 	repo_load[16] 	11366
scalar dtelecom_network.node[16].core_layer 	data[16] 	0
scalar dtelecom_network.node[16].content_store 	p_hit[16] 	0.17643649010941
scalar dtelecom_network.node[16].content_store 	hits[16] 	2435
scalar dtelecom_network.node[16].content_store 	misses[16] 	11366
scalar dtelecom_network.node[16].content_store 	decision_yes[16] 	469
scalar dtelecom_network.node[16].content_store 	decision_no[16] 	10897
scalar dtelecom_network.node[16].content_store 	decision_ratio[16] 	0.04126341720922
scalar dtelecom_network.node[17].core_layer 	interests[17] 	14298
scalar dtelecom_network.node[17].core_layer 	data[17] 	9736
scalar dtelecom_network.node[17].content_store 	p_hit[17] 	0.31913554343265
scalar dtelecom_network.node[17].content_store 	hits[17] 	4563
scalar dtelecom_network.node[17].content_store 	misses[17] 	9735
scalar dtelecom_network.node[17].content_store 	decision_yes[17] 	110
scalar dtelecom_network.node[17].content_store 	decision_no[17] 	9626
scalar dtelecom_network.node[17].content_store 	decision_ratio[17] 	0.011298274445357
scalar dtelecom_network.node[18].core_layer 	interests[18] 	14878
scalar dtelecom_network.node[18].core_layer 	repo_load[18] 	12068
scalar dtelecom_network.node[18].core_layer 	data[18] 	0
scalar dtelecom_network.node[18].content_store 	p_hit[18] 	0.18886947170319
scalar dtelecom_network.node[18].content_store 	hits[18] 	2810
scalar dtelecom_network.node[18].content_store 	misses[18] 	12068
scalar dtelecom_network.node[18].content_store 	decision_yes[18] 	610
scalar dtelecom_network.node[18].content_store 	decision_no[18] 	11458
scalar dtelecom_network.node[18].content_store 	decision_ratio[18] 	0.050546900894929
scalar dtelecom_network.node[19].core_layer 	interests[19] 	13837
scalar dtelecom_network.node[19].core_layer 	repo_load[19] 	11620
scalar dtelecom_network.node[19].core_layer 	data[19] 	0
scalar dtelecom_network.node[19].content_store 	p_hit[19] 	0.16022259160223
scalar dtelecom_network.node[19].content_store 	hits[19] 	2217
scalar dtelecom_network.node[19].content_store 	misses[19] 	11620
scalar dtelecom_network.node[19].content_store 	decision_yes[19] 	553
scalar dtelecom_network.node[19].content_store 	decision_no[19] 	11067
scalar dtelecom_network.node[19].content_store 	decision_ratio[19] 	0.047590361445783
scalar dtelecom_network.node[20].core_layer 	interests[20] 	0
scalar dtelecom_network.node[20].core_layer 	data[20] 	0
scalar dtelecom_network.node[20].content_store 	p_hit[20] 	-nan
scalar dtelecom_network.node[20].content_store 	hits[20] 	0
scalar dtelecom_network.node[20].content_store 	misses[20] 	0
scalar dtelecom_network.node[20].content_store 	decision_yes[20] 	0
scalar dtelecom_network.node[20].content_store 	decision_no[20] 	0
scalar dtelecom_network.node[20].content_store 	decision_ratio[20] 	0
scalar dtelecom_network.node[21].core_layer 	interests[21] 	13497
scalar dtelecom_network.node[21].core_layer 	repo_load[21] 	11356
scalar dtelecom_network.node[21].core_layer 	data[21] 	0
scalar dtelecom_network.node[21].content_store 	p_hit[21] 	0.15862784322442
scalar dtelecom_network.node[21].content_store 	hits[21] 	2141
scalar dtelecom_network.node[21].content_store 	misses[21] 	11356
scalar dtelecom_network.node[21].content_store 	decision_yes[21] 	568
scalar dtelecom_network.node[21].content_store 	decision_no[21] 	10788
scalar dtelecom_network.node[21].content_store 	decision_ratio[21] 	0.050017611835153
scalar dtelecom_network.node[22].core_layer 	interests[22] 	12947
scalar dtelecom_network.node[22].core_layer 	data[22] 	8742
scalar dtelecom_network.node[22].content_store 	p_hit[22] 	0.32478566463273
scalar dtelecom_network.node[22].content_store 	hits[22] 	4205
scalar dtelecom_network.node[22].content_store 	misses[22] 	8742
scalar dtelecom_network.node[22].content_store 	decision_yes[22] 	87
scalar dtelecom_network.node[22].content_store 	decision_no[22] 	8655
scalar dtelecom_network.node[22].content_store 	decision_ratio[22] 	0.0099519560741249
scalar dtelecom_network.node[23].core_layer 	interests[23] 	25486
scalar dtelecom_network.node[23].core_layer 	data[23] 	18494
scalar dtelecom_network.node[23].content_store 	p_hit[23] 	0.27426822569254
scalar dtelecom_network.node[23].content_store 	hits[23] 	6990
scalar dtelecom_network.node[23].content_store 	misses[23] 	18496
scalar dtelecom_network.node[23].content_store 	decision_yes[23] 	215
scalar dtelecom_network.node[23].content_store 	decision_no[23] 	18279
scalar dtelecom_network.node[23].content_store 	decision_ratio[23] 	0.011625392019033
scalar dtelecom_network.node[24].core_layer 	interests[24] 	0
scalar dtelecom_network.node[24].core_layer 	data[24] 	0
scalar dtelecom_network.node[24].content_store 	p_hit[24] 	-nan
scalar dtelecom_network.node[24].content_store 	hits[24] 	0
scalar dtelecom_network.node[24].content_store 	misses[24] 	0
scalar dtelecom_network.node[24].content_store 	decision_yes[24] 	0
scalar dtelecom_network.node[24].content_store 	decision_no[24] 	0
scalar dtelecom_network.node[24].content_store 	decision_ratio[24] 	0
scalar dtelecom_network.node[25].core_layer 	interests[25] 	14227
scalar dtelecom_network.node[25].core_layer 	repo_load[25] 	11844
scalar dtelecom_network.node[25].core_layer 	data[25] 	0
scalar dtelecom_network.node[25].content_store 	p_hit[25] 	0.16749841850004
scalar dtelecom_network.node[25].content_store 	hits[25] 	2383
scalar dtelecom_network.node[25].content_store 	misses[25] 	11844
scalar dtelecom_network.node[25].content_store 	decision_yes[25] 	533
scalar dtelecom_network.node[25].content_store 	decision_no[25] 	11311
scalar dtelecom_network.node[25].content_store 	decision_ratio[25] 	0.04500168861871
scalar dtelecom_network.node[26].core_layer 	interests[26] 	13302
scalar dtelecom_network.node[26].core_layer 	repo_load[26] 	11160
scalar dtelecom_network.node[26].core_layer 	data[26] 	450
scalar dtelecom_network.node[26].content_store 	p_hit[26] 	0.12719891745602
scalar dtelecom_network.node[26].content_store 	hits[26] 	1692
scalar dtelecom_network.node[26].content_store 	misses[26] 	11610
scalar dtelecom_network.node[26].content_store 	decision_yes[26] 	445
scalar dtelecom_network.node[26].content_store 	decision_no[26] 	11165
scalar dtelecom_network.node[26].content_store 	decision_ratio[26] 	0.03832902670112
scalar dtelecom_network.node[27].core_layer 	interests[27] 	0
scalar dtelecom_network.node[27].core_layer 	data[27] 	0
scalar dtelecom_network.node[27].content_store 	p_hit[27] 	-nan
scalar dtelecom_network.node[27].content_store 	hits[27] 	0
scalar dtelecom_network.node[27].content_store 	misses[27] 	0
scalar dtelecom_network.node[27].content_store 	decision_yes[27] 	0
scalar dtelecom_network.node[27].content_store 	decision_no[27] 	0
scalar dtelecom_network.node[27].content_store 	decision_ratio[27] 	0
scalar dtelecom_network.node[28].core_layer 	interests[28] 	13222
scalar dtelecom_network.node[28].core_layer 	data[28] 	8794
scalar dtelecom_network.node[28].content_store 	p_hit[28] 	0.33497201633641
scalar dtelecom_network.node[28].content_store 	hits[28] 	4429
scalar dtelecom_network.node[28].content_store 	misses[28] 	8793
scalar dtelecom_network.node[28].content_store 	decision_yes[28] 	119
scalar dtelecom_network.node[28].content_store 	decision_no[28] 	8675
scalar dtelecom_network.node[28].content_store 	decision_ratio[28] 	0.01353195360473
scalar dtelecom_network.node[29].core_layer 	interests[29] 	0
scalar dtelecom_network.node[29].core_layer 	data[29] 	0
scalar dtelecom_network.node[29].content_store 	p_hit[29] 	-nan
scalar dtelecom_network.node[29].content_store 	hits[29] 	0
scalar dtelecom_network.node[29].content_store 	misses[29] 	0
scalar dtelecom_network.node[29].content_store 	decision_yes[29] 	0
scalar dtelecom_network.node[29].content_store 	decision_no[29] 	0
scalar dtelecom_network.node[29].content_store 	decision_ratio[29] 	0
scalar dtelecom_network.node[30].core_layer 	interests[30] 	12819
scalar dtelecom_network.node[30].core_layer 	data[30] 	8695
scalar dtelecom_network.node[30].content_store 	p_hit[30] 	0.32178797098058
scalar dtelecom_network.node[30].content_store 	hits[30] 	4125
scalar dtelecom_network.node[30].content_store 	misses[30] 	8694
scalar dtelecom_network.node[30].content_store 	decision_yes[30] 	86
scalar dtelecom_network.node[30].content_store 	decision_no[30] 	8609
scalar dtelecom_network.node[30].content_store 	decision_ratio[30] 	0.0098907418056354
scalar dtelecom_network.node[31].core_layer 	interests[31] 	13747
scalar dtelecom_network.node[31].core_layer 	data[31] 	8825
scalar dtelecom_network.node[31].content_store 	p_hit[31] 	0.35804175456463
scalar dtelecom_network.node[31].content_store 	hits[31] 	4922
scalar dtelecom_network.node[31].content_store 	misses[31] 	8825
scalar dtelecom_network.node[31].content_store 	decision_yes[31] 	93
scalar dtelecom_network.node[31].content_store 	decision_no[31] 	8732
scalar dtelecom_network.node[31].content_store 	decision_ratio[31] 	0.010538243626062
scalar dtelecom_network.node[32].core_layer 	interests[32] 	25790
scalar dtelecom_network.node[32].core_layer 	repo_load[32] 	12511
scalar dtelecom_network.node[32].core_layer 	data[32] 	9008
scalar dtelecom_network.node[32].content_store 	p_hit[32] 	0.16552927491276
scalar dtelecom_network.node[32].content_store 	hits[32] 	4269
scalar dtelecom_network.node[32].content_store 	misses[32] 	21521
scalar dtelecom_network.node[32].content_store 	decision_yes[32] 	473
scalar dtelecom_network.node[32].content_store 	decision_no[32] 	21046
scalar dtelecom_network.node[32].content_store 	decision_ratio[32] 	0.021980575305544
scalar dtelecom_network.node[33].core_layer 	interests[33] 	13821
scalar dtelecom_network.node[33].core_layer 	data[33] 	8901
scalar dtelecom_network.node[33].content_store 	p_hit[33] 	0.35590767672383
scalar dtelecom_network.node[33].content_store 	hits[33] 	4919
scalar dtelecom_network.node[33].content_store 	misses[33] 	8902
scalar dtelecom_network.node[33].content_store 	decision_yes[33] 	110
scalar dtelecom_network.node[33].content_store 	decision_no[33] 	8791
scalar dtelecom_network.node[33].content_store 	decision_ratio[33] 	0.012358162004269
scalar dtelecom_network.node[34].core_layer 	interests[34] 	0
scalar dtelecom_network.node[34].core_layer 	data[34] 	0
scalar dtelecom_network.node[34].content_store 	p_hit[34] 	-nan
scalar dtelecom_network.node[34].content_store 	hits[34] 	0
scalar dtelecom_network.node[34].content_store 	misses[34] 	0
scalar dtelecom_network.node[34].content_store 	decision_yes[34] 	0
scalar dtelecom_network.node[34].content_store 	decision_no[34] 	0
scalar dtelecom_network.node[34].content_store 	decision_ratio[34] 	0
scalar dtelecom_network.node[35].core_layer 	interests[35] 	0
scalar dtelecom_network.node[35].core_layer 	data[35] 	0
scalar dtelecom_network.node[35].content_store 	p_hit[35] 	-nan
scalar dtelecom_network.node[35].content_store 	hits[35] 	0
scalar dtelecom_network.node[35].content_store 	misses[35] 	0
scalar dtelecom_network.node[35].content_store 	decision_yes[35] 	0
scalar dtelecom_network.node[35].content_store 	decision_no[35] 	0
scalar dtelecom_network.node[35].content_store 	decision_ratio[35] 	0
scalar dtelecom_network.node[36].core_layer 	interests[36] 	12922
scalar dtelecom_network.node[36].core_layer 	data[36] 	8754
scalar dtelecom_network.node[36].content_store 	p_hit[36] 	0.3226280761492
scalar dtelecom_network.node[36].content_store 	hits[36] 	4169
scalar dtelecom_network.node[36].content_store 	misses[36] 	8753
scalar dtelecom_network.node[36].content_store 	decision_yes[36] 	73
scalar dtelecom_network.node[36].content_store 	decision_no[36] 	8681
scalar dtelecom_network.node[36].content_store 	decision_ratio[36] 	0.0083390450079963
scalar dtelecom_network.node[37].core_layer 	interests[37] 	13047
scalar dtelecom_network.node[37].core_layer 	data[37] 	8636
scalar dtelecom_network.node[37].content_store 	p_hit[37] 	0.33808538361309
scalar dtelecom_network.node[37].content_store 	hits[37] 	4411
scalar dtelecom_network.node[37].content_store 	misses[37] 	8636
scalar dtelecom_network.node[37].content_store 	decision_yes[37] 	95
scalar dtelecom_network.node[37].content_store 	decision_no[37] 	8541
scalar dtelecom_network.node[37].content_store 	decision_ratio[37] 	0.011000463177397
scalar dtelecom_network.node[38].core_layer 	interests[38] 	0
scalar dtelecom_network.node[38].core_layer 	data[38] 	0
scalar dtelecom_network.node[38].content_store 	p_hit[38] 	-nan
scalar dtelecom_network.node[38].content_store 	hits[38] 	0
scalar dtelecom_network.node[38].content_store 	misses[38] 	0
scalar dtelecom_network.node[38].content_store 	decision_yes[38] 	0
scalar dtelecom_network.node[38].content_store 	decision_no[38] 	0
scalar dtelecom_network.node[38].content_store 	decision_ratio[38] 	0
scalar dtelecom_network.node[39].core_layer 	interests[39] 	0
scalar dtelecom_network.node[39].core_layer 	data[39] 	0
scalar dtelecom_network.node[39].content_store 	p_hit[39] 	-nan
scalar dtelecom_network.node[39].content_store 	hits[39] 	0
scalar dtelecom_network.node[39].content_store 	misses[39] 	0
scalar dtelecom_network.node[39].content_store 	decision_yes[39] 	0
scalar dtelecom_network.node[39].content_store 	decision_no[39] 	0
scalar dtelecom_network.node[39].content_store 	decision_ratio[39] 	0
scalar dtelecom_network.node[40].core_layer 	interests[40] 	14718
scalar dtelecom_network.node[40].core_layer 	data[40] 	8999
scalar dtelecom_network.node[40].content_store 	p_hit[40] 	0.38850387280881
scalar dtelecom_network.node[40].content_store 	hits[40] 	5718
scalar dtelecom_network.node[40].content_store 	misses[40] 	9000
scalar dtelecom_network.node[40].content_store 	decision_yes[40] 	126
scalar dtelecom_network.node[40].content_store 	decision_no[40] 	8873
scalar dtelecom_network.node[40].content_store 	decision_ratio[40] 	0.014001555728414
scalar dtelecom_network.node[41].core_layer 	interests[41] 	0
scalar dtelecom_network.node[41].core_layer 	data[41] 	0
scalar dtelecom_network.node[41].content_store 	p_hit[41] 	-nan
scalar dtelecom_network.node[41].content_store 	hits[41] 	0
scalar dtelecom_network.node[41].content_store 	misses[41] 	0
scalar dtelecom_network.node[41].content_store 	decision_yes[41] 	0
scalar dtelecom_network.node[41].content_store 	decision_no[41] 	0
scalar dtelecom_network.node[41].content_store 	decision_ratio[41] 	0
scalar dtelecom_network.node[42].core_layer 	interests[42] 	12923
scalar dtelecom_network.node[42].core_layer 	data[42] 	8565
scalar dtelecom_network.node[42].content_store 	p_hit[42] 	0.33707343496092
scalar dtelecom_network.node[42].content_store 	hits[42] 	4356
scalar dtelecom_network.node[42].content_store 	misses[42] 	8567
scalar dtelecom_network.node[42].content_store 	decision_yes[42] 	105
scalar dtelecom_network.node[42].content_store 	decision_no[42] 	8460
scalar dtelecom_network.node[42].content_store 	decision_ratio[42] 	0.012259194395797
scalar dtelecom_network.node[43].core_layer 	interests[43] 	0
scalar dtelecom_network.node[43].core_layer 	data[43] 	0
scalar dtelecom_network.node[43].content_store 	p_hit[43] 	-nan
scalar dtelecom_network.node[43].content_store 	hits[43] 	0
scalar dtelecom_network.node[43].content_store 	misses[43] 	0
scalar dtelecom_network.node[43].content_store 	decision_yes[43] 	0
scalar dtelecom_network.node[43].content_store 	decision_no[43] 	0
scalar dtelecom_network.node[43].content_store 	decision_ratio[43] 	0
scalar dtelecom_network.node[44].core_layer 	interests[44] 	0
scalar dtelecom_network.node[44].core_layer 	data[44] 	0
scalar dtelecom_network.node[44].content_store 	p_hit[44] 	-nan
scalar dtelecom_network.node[44].content_store 	hits[44] 	0
scalar dtelecom_network.node[44].content_store 	misses[44] 	0
scalar dtelecom_network.node[44].content_store 	decision_yes[44] 	0
scalar dtelecom_network.node[44].content_store 	decision_no[44] 	0
scalar dtelecom_network.node[44].content_store 	decision_ratio[44] 	0
scalar dtelecom_network.node[45].core_layer 	interests[45] 	13668
scalar dtelecom_network.node[45].core_layer 	data[45] 	8901
scalar dtelecom_network.node[45].content_store 	p_hit[45] 	0.34877085162423
scalar dtelecom_network.node[45].content_store 	hits[45] 	4767
scalar dtelecom_network.node[45].content_store 	misses[45] 	8901
scalar dtelecom_network.node[45].content_store 	decision_yes[45] 	89
scalar dtelecom_network.node[45].content_store 	decision_no[45] 	8812
scalar dtelecom_network.node[45].content_store 	decision_ratio[45] 	0.0099988765307269
scalar dtelecom_network.node[46].core_layer 	interests[46] 	26152
scalar dtelecom_network.node[46].core_layer 	repo_load[46] 	12521
scalar dtelecom_network.node[46].core_layer 	data[46] 	8959
scalar dtelecom_network.node[46].content_store 	p_hit[46] 	0.17857142857143
scalar dtelecom_network.node[46].content_store 	hits[46] 	4670
scalar dtelecom_network.node[46].content_store 	misses[46] 	21482
scalar dtelecom_network.node[46].content_store 	decision_yes[46] 	442
scalar dtelecom_network.node[46].content_store 	decision_no[46] 	21038
scalar dtelecom_network.node[46].content_store 	decision_ratio[46] 	0.020577281191806
scalar dtelecom_network.node[47].core_layer 	interests[47] 	0
scalar dtelecom_network.node[47].core_layer 	data[47] 	0
scalar dtelecom_network.node[47].content_store 	p_hit[47] 	-nan
scalar dtelecom_network.node[47].content_store 	hits[47] 	0
scalar dtelecom_network.node[47].content_store 	misses[47] 	0
scalar dtelecom_network.node[47].content_store 	decision_yes[47] 	0
scalar dtelecom_network.node[47].content_store 	decision_no[47] 	0
scalar dtelecom_network.node[47].content_store 	decision_ratio[47] 	0
scalar dtelecom_network.node[48].core_layer 	interests[48] 	25116
scalar dtelecom_network.node[48].core_layer 	repo_load[48] 	11718
scalar dtelecom_network.node[48].core_layer 	data[48] 	8915
scalar dtelecom_network.node[48].content_store 	p_hit[48] 	0.17845198279981
scalar dtelecom_network.node[48].content_store 	hits[48] 	4482
scalar dtelecom_network.node[48].content_store 	misses[48] 	20634
scalar dtelecom_network.node[48].content_store 	decision_yes[48] 	406
scalar dtelecom_network.node[48].content_store 	decision_no[48] 	20227
scalar dtelecom_network.node[48].content_store 	decision_ratio[48] 	0.019677216110115
scalar dtelecom_network.node[49].core_layer 	interests[49] 	13034
scalar dtelecom_network.node[49].core_layer 	data[49] 	8732
scalar dtelecom_network.node[49].content_store 	p_hit[49] 	0.33029001074114
scalar dtelecom_network.node[49].content_store 	hits[49] 	4305
scalar dtelecom_network.node[49].content_store 	misses[49] 	8729
scalar dtelecom_network.node[49].content_store 	decision_yes[49] 	91
scalar dtelecom_network.node[49].content_store 	decision_no[49] 	8641
scalar dtelecom_network.node[49].content_store 	decision_ratio[49] 	0.01042143838754
scalar dtelecom_network.node[50].core_layer 	interests[50] 	13152
scalar dtelecom_network.node[50].core_layer 	data[50] 	8790
scalar dtelecom_network.node[50].content_store 	p_hit[50] 	0.33150851581509
scalar dtelecom_network.node[50].content_store 	hits[50] 	4360
scalar dtelecom_network.node[50].content_store 	misses[50] 	8792
scalar dtelecom_network.node[50].content_store 	decision_yes[50] 	84
scalar dtelecom_network.node[50].content_store 	decision_no[50] 	8706
scalar dtelecom_network.node[50].content_store 	decision_ratio[50] 	0.0095563139931741
scalar dtelecom_network.node[51].core_layer 	interests[51] 	13860
scalar dtelecom_network.node[51].core_layer 	data[51] 	8754
scalar dtelecom_network.node[51].content_store 	p_hit[51] 	0.36839826839827
scalar dtelecom_network.node[51].content_store 	hits[51] 	5106
scalar dtelecom_network.node[51].content_store 	misses[51] 	8754
scalar dtelecom_network.node[51].content_store 	decision_yes[51] 	81
scalar dtelecom_network.node[51].content_store 	decision_no[51] 	8673
scalar dtelecom_network.node[51].content_store 	decision_ratio[51] 	0.0092529129540781
scalar dtelecom_network.node[52].core_layer 	interests[52] 	13710
scalar dtelecom_network.node[52].core_layer 	repo_load[52] 	11407
scalar dtelecom_network.node[52].core_layer 	data[52] 	0
scalar dtelecom_network.node[52].content_store 	p_hit[52] 	0.16797957695113
scalar dtelecom_network.node[52].content_store 	hits[52] 	2303
scalar dtelecom_network.node[52].content_store 	misses[52] 	11407
scalar dtelecom_network.node[52].content_store 	decision_yes[52] 	576
scalar dtelecom_network.node[52].content_store 	decision_no[52] 	10831
scalar dtelecom_network.node[52].content_store 	decision_ratio[52] 	0.050495309897431
scalar dtelecom_network.node[53].core_layer 	interests[53] 	13248
scalar dtelecom_network.node[53].core_layer 	data[53] 	8864
scalar dtelecom_network.node[53].content_store 	p_hit[53] 	0.33091787439614
scalar dtelecom_network.node[53].content_store 	hits[53] 	4384
scalar dtelecom_network.node[53].content_store 	misses[53] 	8864
scalar dtelecom_network.node[53].content_store 	decision_yes[53] 	109
scalar dtelecom_network.node[53].content_store 	decision_no[53] 	8755
scalar dtelecom_network.node[53].content_store 	decision_ratio[53] 	0.012296931407942
scalar dtelecom_network.node[54].core_layer 	interests[54] 	25607
scalar dtelecom_network.node[54].core_layer 	repo_load[54] 	12267
scalar dtelecom_network.node[54].core_layer 	data[54] 	9004
scalar dtelecom_network.node[54].content_store 	p_hit[54] 	0.16928964736205
scalar dtelecom_network.node[54].content_store 	hits[54] 	4335
scalar dtelecom_network.node[54].content_store 	misses[54] 	21272
scalar dtelecom_network.node[54].content_store 	decision_yes[54] 	476
scalar dtelecom_network.node[54].content_store 	decision_no[54] 	20795
scalar dtelecom_network.node[54].content_store 	decision_ratio[54] 	0.022377885383856
scalar dtelecom_network.node[55].core_layer 	interests[55] 	13450
scalar dtelecom_network.node[55].core_layer 	data[55] 	8878
scalar dtelecom_network.node[55].content_store 	p_hit[55] 	0.33992565055762
scalar dtelecom_network.node[55].content_store 	hits[55] 	4572
scalar dtelecom_network.node[55].content_store 	misses[55] 	8878
scalar dtelecom_network.node[55].content_store 	decision_yes[55] 	87
scalar dtelecom_network.node[55].content_store 	decision_no[55] 	8791
scalar dtelecom_network.node[55].content_store 	decision_ratio[55] 	0.0097995043928813
scalar dtelecom_network.node[56].core_layer 	interests[56] 	13462
scalar dtelecom_network.node[56].core_layer 	data[56] 	8871
scalar dtelecom_network.node[56].content_store 	p_hit[56] 	0.34110830485812
scalar dtelecom_network.node[56].content_store 	hits[56] 	4592
scalar dtelecom_network.node[56].content_store 	misses[56] 	8870
scalar dtelecom_network.node[56].content_store 	decision_yes[56] 	84
scalar dtelecom_network.node[56].content_store 	decision_no[56] 	8787
scalar dtelecom_network.node[56].content_store 	decision_ratio[56] 	0.0094690564761583
scalar dtelecom_network.node[57].core_layer 	interests[57] 	13020
scalar dtelecom_network.node[57].core_layer 	data[57] 	8624
scalar dtelecom_network.node[57].content_store 	p_hit[57] 	0.33755760368664
scalar dtelecom_network.node[57].content_store 	hits[57] 	4395
scalar dtelecom_network.node[57].content_store 	misses[57] 	8625
scalar dtelecom_network.node[57].content_store 	decision_yes[57] 	77
scalar dtelecom_network.node[57].content_store 	decision_no[57] 	8547
scalar dtelecom_network.node[57].content_store 	decision_ratio[57] 	0.0089285714285714
scalar dtelecom_network.node[58].core_layer 	interests[58] 	25598
scalar dtelecom_network.node[58].core_layer 	repo_load[58] 	12174
scalar dtelecom_network.node[58].core_layer 	data[58] 	9074
scalar dtelecom_network.node[58].content_store 	p_hit[58] 	0.16985702007969
scalar dtelecom_network.node[58].content_store 	hits[58] 	4348
scalar dtelecom_network.node[58].content_store 	misses[58] 	21250
scalar dtelecom_network.node[58].content_store 	decision_yes[58] 	493
scalar dtelecom_network.node[58].content_store 	decision_no[58] 	20755
scalar dtelecom_network.node[58].content_store 	decision_ratio[58] 	0.02320218373494
scalar dtelecom_network.node[59].core_layer 	interests[59] 	14534
scalar dtelecom_network.node[59].core_layer 	data[59] 	8748
scalar dtelecom_network.node[59].content_store 	p_hit[59] 	0.39789459199119
scalar dtelecom_network.node[59].content_store 	hits[59] 	5783
scalar dtelecom_network.node[59].content_store 	misses[59] 	8751
scalar dtelecom_network.node[59].content_store 	decision_yes[59] 	123
scalar dtelecom_network.node[59].content_store 	decision_no[59] 	8625
scalar dtelecom_network.node[59].content_store 	decision_ratio[59] 	0.014060356652949
scalar dtelecom_network.node[60].core_layer 	interests[60] 	0
scalar dtelecom_network.node[60].core_layer 	data[60] 	0
scalar dtelecom_network.node[60].content_store 	p_hit[60] 	-nan
scalar dtelecom_network.node[60].content_store 	hits[60] 	0
scalar dtelecom_network.node[60].content_store 	misses[60] 	0
scalar dtelecom_network.node[60].content_store 	decision_yes[60] 	0
scalar dtelecom_network.node[60].content_store 	decision_no[60] 	0
scalar dtelecom_network.node[60].content_store 	decision_ratio[60] 	0
scalar dtelecom_network.node[61].core_layer 	interests[61] 	0
scalar dtelecom_network.node[61].core_layer 	data[61] 	0
scalar dtelecom_network.node[61].content_store 	p_hit[61] 	-nan
scalar dtelecom_network.node[61].content_store 	hits[61] 	0
scalar dtelecom_network.node[61].content_store 	misses[61] 	0
scalar dtelecom_network.node[61].content_store 	decision_yes[61] 	0
scalar dtelecom_network.node[61].content_store 	decision_no[61] 	0
scalar dtelecom_network.node[61].content_store 	decision_ratio[61] 	0
scalar dtelecom_network.node[62].core_layer 	interests[62] 	12485
scalar dtelecom_network.node[62].core_layer 	data[62] 	8829
scalar dtelecom_network.node[62].content_store 	p_hit[62] 	0.29275130156187
scalar dtelecom_network.node[62].content_store 	hits[62] 	3655
scalar dtelecom_network.node[62].content_store 	misses[62] 	8830
scalar dtelecom_network.node[62].content_store 	decision_yes[62] 	36
scalar dtelecom_network.node[62].content_store 	decision_no[62] 	8793
scalar dtelecom_network.node[62].content_store 	decision_ratio[62] 	0.0040774719673802
scalar dtelecom_network.node[63].core_layer 	interests[63] 	0
scalar dtelecom_network.node[63].core_layer 	data[63] 	0
scalar dtelecom_network.node[63].content_store 	p_hit[63] 	-nan
scalar dtelecom_network.node[63].content_store 	hits[63] 	0
scalar dtelecom_network.node[63].content_store 	misses[63] 	0
scalar dtelecom_network.node[63].content_store 	decision_yes[63] 	0
scalar dtelecom_network.node[63].content_store 	decision_no[63] 	0
scalar dtelecom_network.node[63].content_store 	decision_ratio[63] 	0
scalar dtelecom_network.node[64].core_layer 	interests[64] 	0
scalar dtelecom_network.node[64].core_layer 	data[64] 	0
scalar dtelecom_network.node[64].content_store 	p_hit[64] 	-nan
scalar dtelecom_network.node[64].content_store 	hits[64] 	0
scalar dtelecom_network.node[64].content_store 	misses[64] 	0
scalar dtelecom_network.node[64].content_store 	decision_yes[64] 	0
scalar dtelecom_network.node[64].content_store 	decision_no[64] 	0
scalar dtelecom_network.node[64].content_store 	decision_ratio[64] 	0
scalar dtelecom_network.node[65].core_layer 	interests[65] 	2299
scalar dtelecom_network.node[65].core_layer 	data[65] 	425
scalar dtelecom_network.node[65].content_store 	p_hit[65] 	0.81513701609395
scalar dtelecom_network.node[65].content_store 	hits[65] 	1874
scalar dtelecom_network.node[65].content_store 	misses[65] 	425
scalar dtelecom_network.node[65].content_store 	decision_yes[65] 	10
scalar dtelecom_network.node[65].content_store 	decision_no[65] 	415
scalar dtelecom_network.node[65].content_store 	decision_ratio[65] 	0.023529411764706
scalar dtelecom_network.node[66].core_layer 	interests[66] 	24565
scalar dtelecom_network.node[66].core_layer 	repo_load[66] 	11693
scalar dtelecom_network.node[66].core_layer 	data[66] 	9031
scalar dtelecom_network.node[66].content_store 	p_hit[66] 	0.15607571748423
scalar dtelecom_network.node[66].content_store 	hits[66] 	3834
scalar dtelecom_network.node[66].content_store 	misses[66] 	20731
scalar dtelecom_network.node[66].content_store 	decision_yes[66] 	368
scalar dtelecom_network.node[66].content_store 	decision_no[66] 	20356
scalar dtelecom_network.node[66].content_store 	decision_ratio[66] 	0.017757189731712
scalar dtelecom_network.node[67].core_layer 	interests[67] 	12689
scalar dtelecom_network.node[67].core_layer 	data[67] 	8731
scalar dtelecom_network.node[67].content_store 	p_hit[67] 	0.31184490503586
scalar dtelecom_network.node[67].content_store 	hits[67] 	3957
scalar dtelecom_network.node[67].content_store 	misses[67] 	8732
scalar dtelecom_network.node[67].content_store 	decision_yes[67] 	21
scalar dtelecom_network.node[67].content_store 	decision_no[67] 	8710
scalar dtelecom_network.node[67].content_store 	decision_ratio[67] 	0.0024052227694422
scalar dtelecom_network.client[3] 	hdistance[3] 	1.2853461890117
scalar dtelecom_network.client[3] 	downloads[3] 	12031
scalar dtelecom_network.client[3] 	avg_time[3] 	0.011319622561
scalar dtelecom_network.client[4] 	hdistance[4] 	1.2836837177632
scalar dtelecom_network.client[4] 	downloads[4] 	11749
scalar dtelecom_network.client[4] 	avg_time[4] 	0.05036682184
scalar dtelecom_network.client[8] 	hdistance[8] 	1.8167714884696
scalar dtelecom_network.client[8] 	downloads[8] 	11925
scalar dtelecom_network.client[8] 	avg_time[8] 	0.015441131647
scalar dtelecom_network.client[9] 	hdistance[9] 	1.7541484355651
scalar dtelecom_network.client[9] 	downloads[9] 	12113
scalar dtelecom_network.client[9] 	avg_time[9] 	0.015550063928
scalar dtelecom_network.client[17] 	hdistance[17] 	1.744051122509
scalar dtelecom_network.client[17] 	downloads[17] 	11893
scalar dtelecom_network.client[17] 	avg_time[17] 	0.013996557659
scalar dtelecom_network.client[22] 	hdistance[22] 	1.8449612403101
scalar dtelecom_network.client[22] 	downloads[22] 	11868
scalar dtelecom_network.client[22] 	avg_time[22] 	0.014763605597
scalar dtelecom_network.client[23] 	hdistance[23] 	1.7027819674879
scalar dtelecom_network.client[23] 	downloads[23] 	11934
scalar dtelecom_network.client[23] 	avg_time[23] 	0.013706966151
scalar dtelecom_network.client[28] 	hdistance[28] 	1.8255061749139
scalar dtelecom_network.client[28] 	downloads[28] 	11903
scalar dtelecom_network.client[28] 	avg_time[28] 	0.017257657791
scalar dtelecom_network.client[30] 	hdistance[30] 	1.8305027745082
scalar dtelecom_network.client[30] 	downloads[30] 	11894
scalar dtelecom_network.client[30] 	avg_time[30] 	0.014285328244
scalar dtelecom_network.client[31] 	hdistance[31] 	1.7826625898686
scalar dtelecom_network.client[31] 	downloads[31] 	12101
scalar dtelecom_network.client[31] 	avg_time[31] 	0.016849687782
scalar dtelecom_network.client[32] 	hdistance[32] 	1.8179680940386
scalar dtelecom_network.client[32] 	downloads[32] 	11910
scalar dtelecom_network.client[32] 	avg_time[32] 	0.014415184513
scalar dtelecom_network.client[33] 	hdistance[33] 	1.7473149612855
scalar dtelecom_network.client[33] 	downloads[33] 	12011
scalar dtelecom_network.client[33] 	avg_time[33] 	0.014493457752
scalar dtelecom_network.client[36] 	hdistance[36] 	1.8568413944459
scalar dtelecom_network.client[36] 	downloads[36] 	11847
scalar dtelecom_network.client[36] 	avg_time[36] 	0.015176242148
scalar dtelecom_network.client[37] 	hdistance[37] 	1.8191913198271
scalar dtelecom_network.client[37] 	downloads[37] 	11797
scalar dtelecom_network.client[37] 	avg_time[37] 	0.01488370466
scalar dtelecom_network.client[40] 	hdistance[40] 	1.7708747514911
scalar dtelecom_network.client[40] 	downloads[40] 	12072
scalar dtelecom_network.client[40] 	avg_time[40] 	0.015565679758
scalar dtelecom_network.client[42] 	hdistance[42] 	1.806905370844
scalar dtelecom_network.client[42] 	downloads[42] 	11730
scalar dtelecom_network.client[42] 	avg_time[42] 	0.016469758178
scalar dtelecom_network.client[45] 	hdistance[45] 	1.8085177175179
scalar dtelecom_network.client[45] 	downloads[45] 	12022
scalar dtelecom_network.client[45] 	avg_time[45] 	0.015244017718
scalar dtelecom_network.client[46] 	hdistance[46] 	1.799701294391
scalar dtelecom_network.client[46] 	downloads[46] 	12052
scalar dtelecom_network.client[46] 	avg_time[46] 	0.016885560063
scalar dtelecom_network.client[48] 	hdistance[48] 	1.8236714975845
scalar dtelecom_network.client[48] 	downloads[48] 	12006
scalar dtelecom_network.client[48] 	avg_time[48] 	0.015877464414
scalar dtelecom_network.client[49] 	hdistance[49] 	1.8065213774746
scalar dtelecom_network.client[49] 	downloads[49] 	12022
scalar dtelecom_network.client[49] 	avg_time[49] 	0.013664958265
scalar dtelecom_network.client[50] 	hdistance[50] 	1.8149702106235
scalar dtelecom_network.client[50] 	downloads[50] 	11917
scalar dtelecom_network.client[50] 	avg_time[50] 	0.01344394002
scalar dtelecom_network.client[51] 	hdistance[51] 	1.7867144524087
scalar dtelecom_network.client[51] 	downloads[51] 	11998
scalar dtelecom_network.client[51] 	avg_time[51] 	0.014822501491
scalar dtelecom_network.client[53] 	hdistance[53] 	1.8351675837919
scalar dtelecom_network.client[53] 	downloads[53] 	11994
scalar dtelecom_network.client[53] 	avg_time[53] 	0.014085697418
scalar dtelecom_network.client[54] 	hdistance[54] 	1.8200284209646
scalar dtelecom_network.client[54] 	downloads[54] 	11963
scalar dtelecom_network.client[54] 	avg_time[54] 	0.015911651535
scalar dtelecom_network.client[55] 	hdistance[55] 	1.833057303743
scalar dtelecom_network.client[55] 	downloads[55] 	12076
scalar dtelecom_network.client[55] 	avg_time[55] 	0.018713961409
scalar dtelecom_network.client[56] 	hdistance[56] 	1.8394712777454
scalar dtelecom_network.client[56] 	downloads[56] 	12029
scalar dtelecom_network.client[56] 	avg_time[56] 	0.013911236508
scalar dtelecom_network.client[57] 	hdistance[57] 	1.7854210305823
scalar dtelecom_network.client[57] 	downloads[57] 	11935
scalar dtelecom_network.client[57] 	avg_time[57] 	0.013133767387
scalar dtelecom_network.client[58] 	hdistance[58] 	1.8253393665158
scalar dtelecom_network.client[58] 	downloads[58] 	12155
scalar dtelecom_network.client[58] 	avg_time[58] 	0.017172888113
scalar dtelecom_network.client[59] 	hdistance[59] 	1.8448376596277
scalar dtelecom_network.client[59] 	downloads[59] 	11981
scalar dtelecom_network.client[59] 	avg_time[59] 	0.057552414033
scalar dtelecom_network.client[62] 	hdistance[62] 	2.3237930750884
scalar dtelecom_network.client[62] 	downloads[62] 	12159
scalar dtelecom_network.client[62] 	avg_time[62] 	0.058214573058
scalar dtelecom_network.client[66] 	hdistance[66] 	1.9639451229714
scalar dtelecom_network.client[66] 	downloads[66] 	11954
scalar dtelecom_network.client[66] 	avg_time[66] 	0.091399922585
scalar dtelecom_network.client[67] 	hdistance[67] 	1.8925826929502
scalar dtelecom_network.client[67] 	downloads[67] 	11972
scalar dtelecom_network.client[67] 	avg_time[67] 	0.072662522813
