version 2
run General-3-20160825-11:31:43-10174
attr D ffc0.2
attr F nrr
attr R lru
attr a 0.9
attr configname General
attr datetime 20160825-11:31:43
attr experiment General
attr inifile hw5115/scenario_C/omnetp.ini
attr iterationvars "$net=dtelecom, $rep=4, $a=0.9, $F=nrr, $D=ffc0.2, $R=lru, $window=60, $variance=0.05, $mytime=600"
attr iterationvars2 "$net=dtelecom, $rep=4, $a=0.9, $F=nrr, $D=ffc0.2, $R=lru, $window=60, $variance=0.05, $mytime=600, $repetition=0"
attr measurement "$net=dtelecom, $rep=4, $a=0.9, $F=nrr, $D=ffc0.2, $R=lru, $window=60, $variance=0.05, $mytime=600"
attr mytime 600
attr net dtelecom
attr network networks.${net=dtelecom}_network
attr processid 10174
attr rep 4
attr repetition 0
attr replication #0
attr resultdir results
attr runnumber 3
attr seedset 4
attr variance 0.05
attr window 60

scalar . 	a 	0.9
scalar . 	mytime 	600
scalar . 	rep 	4
scalar . 	variance 	0.05
scalar . 	window 	60
scalar dtelecom_network.content_distribution 	repo-0 	48
scalar dtelecom_network.content_distribution 	repo-1 	16
scalar dtelecom_network.content_distribution 	repo-2 	25
scalar dtelecom_network.content_distribution 	repo-3 	58
scalar dtelecom_network.content_distribution 	repo-4 	26
scalar dtelecom_network.content_distribution 	repo-5 	66
scalar dtelecom_network.content_distribution 	repo-6 	46
scalar dtelecom_network.content_distribution 	repo-7 	54
scalar dtelecom_network.content_distribution 	repo-8 	52
scalar dtelecom_network.content_distribution 	repo-9 	2
scalar dtelecom_network.content_distribution 	repo-10 	32
scalar dtelecom_network.content_distribution 	repo-11 	19
scalar dtelecom_network.content_distribution 	repo-12 	21
scalar dtelecom_network.content_distribution 	repo-13 	11
scalar dtelecom_network.content_distribution 	repo-14 	1
scalar dtelecom_network.content_distribution 	repo-15 	18
scalar dtelecom_network.content_distribution 	client-0 	46
scalar dtelecom_network.content_distribution 	client-1 	30
scalar dtelecom_network.content_distribution 	client-2 	8
scalar dtelecom_network.content_distribution 	client-3 	49
scalar dtelecom_network.content_distribution 	client-4 	66
scalar dtelecom_network.content_distribution 	client-5 	58
scalar dtelecom_network.content_distribution 	client-6 	32
scalar dtelecom_network.content_distribution 	client-7 	40
scalar dtelecom_network.content_distribution 	client-8 	42
scalar dtelecom_network.content_distribution 	client-9 	45
scalar dtelecom_network.content_distribution 	client-10 	33
scalar dtelecom_network.content_distribution 	client-11 	28
scalar dtelecom_network.content_distribution 	client-12 	3
scalar dtelecom_network.content_distribution 	client-13 	57
scalar dtelecom_network.content_distribution 	client-14 	50
scalar dtelecom_network.content_distribution 	client-15 	17
scalar dtelecom_network.content_distribution 	client-16 	59
scalar dtelecom_network.content_distribution 	client-17 	48
scalar dtelecom_network.content_distribution 	client-18 	23
scalar dtelecom_network.content_distribution 	client-19 	22
scalar dtelecom_network.content_distribution 	client-20 	67
scalar dtelecom_network.content_distribution 	client-21 	62
scalar dtelecom_network.content_distribution 	client-22 	56
scalar dtelecom_network.content_distribution 	client-23 	55
scalar dtelecom_network.content_distribution 	client-24 	53
scalar dtelecom_network.content_distribution 	client-25 	36
scalar dtelecom_network.content_distribution 	client-26 	51
scalar dtelecom_network.content_distribution 	client-27 	37
scalar dtelecom_network.content_distribution 	client-28 	54
scalar dtelecom_network.content_distribution 	client-29 	4
scalar dtelecom_network.content_distribution 	client-30 	31
scalar dtelecom_network.content_distribution 	client-31 	9
scalar dtelecom_network.content_distribution 	repo-0_card 	6113
scalar dtelecom_network.content_distribution 	repo-0_price 	0
scalar dtelecom_network.content_distribution 	repo-1_card 	6293
scalar dtelecom_network.content_distribution 	repo-1_price 	0
scalar dtelecom_network.content_distribution 	repo-2_card 	6315
scalar dtelecom_network.content_distribution 	repo-2_price 	0
scalar dtelecom_network.content_distribution 	repo-3_card 	6168
scalar dtelecom_network.content_distribution 	repo-3_price 	0
scalar dtelecom_network.content_distribution 	repo-4_card 	6306
scalar dtelecom_network.content_distribution 	repo-4_price 	0
scalar dtelecom_network.content_distribution 	repo-5_card 	6220
scalar dtelecom_network.content_distribution 	repo-5_price 	0
scalar dtelecom_network.content_distribution 	repo-6_card 	6389
scalar dtelecom_network.content_distribution 	repo-6_price 	0
scalar dtelecom_network.content_distribution 	repo-7_card 	6228
scalar dtelecom_network.content_distribution 	repo-7_price 	0
scalar dtelecom_network.content_distribution 	repo-8_card 	6293
scalar dtelecom_network.content_distribution 	repo-8_price 	0
scalar dtelecom_network.content_distribution 	repo-9_card 	6212
scalar dtelecom_network.content_distribution 	repo-9_price 	0
scalar dtelecom_network.content_distribution 	repo-10_card 	6329
scalar dtelecom_network.content_distribution 	repo-10_price 	0
scalar dtelecom_network.content_distribution 	repo-11_card 	6232
scalar dtelecom_network.content_distribution 	repo-11_price 	0
scalar dtelecom_network.content_distribution 	repo-12_card 	6164
scalar dtelecom_network.content_distribution 	repo-12_price 	0
scalar dtelecom_network.content_distribution 	repo-13_card 	6137
scalar dtelecom_network.content_distribution 	repo-13_price 	0
scalar dtelecom_network.content_distribution 	repo-14_card 	6293
scalar dtelecom_network.content_distribution 	repo-14_price 	0
scalar dtelecom_network.content_distribution 	repo-15_card 	6308
scalar dtelecom_network.content_distribution 	repo-15_price 	0
scalar dtelecom_network.statistics 	stabilization_time 	5209
scalar dtelecom_network.statistics 	p_hit 	0.28726746906832
scalar dtelecom_network.statistics 	interests 	12913.176470588
scalar dtelecom_network.statistics 	data 	7275.3970588235
scalar dtelecom_network.statistics 	hdistance 	1.7760998732296
scalar dtelecom_network.statistics 	avg_time 	0.023407054726
scalar dtelecom_network.statistics 	downloads 	383333
scalar dtelecom_network.statistics 	total_cost 	0
scalar dtelecom_network.statistics 	total_replicas 	100000
scalar dtelecom_network.statistics 	inner_hit 	0.51455262135011
scalar dtelecom_network.node[0].core_layer 	interests[0] 	0
scalar dtelecom_network.node[0].core_layer 	data[0] 	0
scalar dtelecom_network.node[0].core_layer 	repo_int[0] 	186088
scalar dtelecom_network.node[0].content_store 	p_hit[0] 	-nan
scalar dtelecom_network.node[0].content_store 	hits[0] 	0
scalar dtelecom_network.node[0].content_store 	misses[0] 	0
scalar dtelecom_network.node[0].content_store 	decision_yes[0] 	0
scalar dtelecom_network.node[0].content_store 	decision_no[0] 	0
scalar dtelecom_network.node[0].content_store 	decision_ratio[0] 	0
scalar dtelecom_network.node[1].core_layer 	interests[1] 	188967
scalar dtelecom_network.node[1].core_layer 	repo_load[1] 	15221
scalar dtelecom_network.node[1].core_layer 	data[1] 	165085
scalar dtelecom_network.node[1].content_store 	p_hit[1] 	0.045669349674811
scalar dtelecom_network.node[1].content_store 	hits[1] 	8630
scalar dtelecom_network.node[1].content_store 	misses[1] 	180337
scalar dtelecom_network.node[1].content_store 	decision_yes[1] 	252
scalar dtelecom_network.node[1].content_store 	decision_no[1] 	180054
scalar dtelecom_network.node[1].content_store 	decision_ratio[1] 	0.0013976240391335
scalar dtelecom_network.node[2].core_layer 	interests[2] 	16801
scalar dtelecom_network.node[2].core_layer 	repo_load[2] 	10951
scalar dtelecom_network.node[2].core_layer 	data[2] 	3123
scalar dtelecom_network.node[2].content_store 	p_hit[2] 	0.16231176715672
scalar dtelecom_network.node[2].content_store 	hits[2] 	2727
scalar dtelecom_network.node[2].content_store 	misses[2] 	14074
scalar dtelecom_network.node[2].content_store 	decision_yes[2] 	74
scalar dtelecom_network.node[2].content_store 	decision_no[2] 	14000
scalar dtelecom_network.node[2].content_store 	decision_ratio[2] 	0.0052579224101179
scalar dtelecom_network.node[3].core_layer 	interests[3] 	21731
scalar dtelecom_network.node[3].core_layer 	data[3] 	9213
scalar dtelecom_network.node[3].content_store 	p_hit[3] 	0.57599742303622
scalar dtelecom_network.node[3].content_store 	hits[3] 	12517
scalar dtelecom_network.node[3].content_store 	misses[3] 	9214
scalar dtelecom_network.node[3].content_store 	decision_yes[3] 	68
scalar dtelecom_network.node[3].content_store 	decision_no[3] 	9145
scalar dtelecom_network.node[3].content_store 	decision_ratio[3] 	0.0073808748507544
scalar dtelecom_network.node[4].core_layer 	interests[4] 	53316
scalar dtelecom_network.node[4].core_layer 	data[4] 	39701
scalar dtelecom_network.node[4].content_store 	p_hit[4] 	0.2548203166029
scalar dtelecom_network.node[4].content_store 	hits[4] 	13586
scalar dtelecom_network.node[4].content_store 	misses[4] 	39730
scalar dtelecom_network.node[4].content_store 	decision_yes[4] 	152
scalar dtelecom_network.node[4].content_store 	decision_no[4] 	39549
scalar dtelecom_network.node[4].content_store 	decision_ratio[4] 	0.0038286189264754
scalar dtelecom_network.node[5].core_layer 	interests[5] 	0
scalar dtelecom_network.node[5].core_layer 	data[5] 	0
scalar dtelecom_network.node[5].content_store 	p_hit[5] 	-nan
scalar dtelecom_network.node[5].content_store 	hits[5] 	0
scalar dtelecom_network.node[5].content_store 	misses[5] 	0
scalar dtelecom_network.node[5].content_store 	decision_yes[5] 	0
scalar dtelecom_network.node[5].content_store 	decision_no[5] 	0
scalar dtelecom_network.node[5].content_store 	decision_ratio[5] 	0
scalar dtelecom_network.node[6].core_layer 	interests[6] 	0
scalar dtelecom_network.node[6].core_layer 	data[6] 	0
scalar dtelecom_network.node[6].content_store 	p_hit[6] 	-nan
scalar dtelecom_network.node[6].content_store 	hits[6] 	0
scalar dtelecom_network.node[6].content_store 	misses[6] 	0
scalar dtelecom_network.node[6].content_store 	decision_yes[6] 	0
scalar dtelecom_network.node[6].content_store 	decision_no[6] 	0
scalar dtelecom_network.node[6].content_store 	decision_ratio[6] 	0
scalar dtelecom_network.node[7].core_layer 	interests[7] 	0
scalar dtelecom_network.node[7].core_layer 	data[7] 	0
scalar dtelecom_network.node[7].content_store 	p_hit[7] 	-nan
scalar dtelecom_network.node[7].content_store 	hits[7] 	0
scalar dtelecom_network.node[7].content_store 	misses[7] 	0
scalar dtelecom_network.node[7].content_store 	decision_yes[7] 	0
scalar dtelecom_network.node[7].content_store 	decision_no[7] 	0
scalar dtelecom_network.node[7].content_store 	decision_ratio[7] 	0
scalar dtelecom_network.node[8].core_layer 	interests[8] 	13476
scalar dtelecom_network.node[8].core_layer 	data[8] 	8967
scalar dtelecom_network.node[8].content_store 	p_hit[8] 	0.33459483526269
scalar dtelecom_network.node[8].content_store 	hits[8] 	4509
scalar dtelecom_network.node[8].content_store 	misses[8] 	8967
scalar dtelecom_network.node[8].content_store 	decision_yes[8] 	23
scalar dtelecom_network.node[8].content_store 	decision_no[8] 	8944
scalar dtelecom_network.node[8].content_store 	decision_ratio[8] 	0.0025649604103937
scalar dtelecom_network.node[9].core_layer 	interests[9] 	14349
scalar dtelecom_network.node[9].core_layer 	data[9] 	9329
scalar dtelecom_network.node[9].content_store 	p_hit[9] 	0.34957139870374
scalar dtelecom_network.node[9].content_store 	hits[9] 	5016
scalar dtelecom_network.node[9].content_store 	misses[9] 	9333
scalar dtelecom_network.node[9].content_store 	decision_yes[9] 	30
scalar dtelecom_network.node[9].content_store 	decision_no[9] 	9299
scalar dtelecom_network.node[9].content_store 	decision_ratio[9] 	0.0032157787544217
scalar dtelecom_network.node[10].core_layer 	interests[10] 	0
scalar dtelecom_network.node[10].core_layer 	data[10] 	0
scalar dtelecom_network.node[10].content_store 	p_hit[10] 	-nan
scalar dtelecom_network.node[10].content_store 	hits[10] 	0
scalar dtelecom_network.node[10].content_store 	misses[10] 	0
scalar dtelecom_network.node[10].content_store 	decision_yes[10] 	0
scalar dtelecom_network.node[10].content_store 	decision_no[10] 	0
scalar dtelecom_network.node[10].content_store 	decision_ratio[10] 	0
scalar dtelecom_network.node[11].core_layer 	interests[11] 	12895
scalar dtelecom_network.node[11].core_layer 	repo_load[11] 	10649
scalar dtelecom_network.node[11].core_layer 	data[11] 	0
scalar dtelecom_network.node[11].content_store 	p_hit[11] 	0.17417603722373
scalar dtelecom_network.node[11].content_store 	hits[11] 	2246
scalar dtelecom_network.node[11].content_store 	misses[11] 	10649
scalar dtelecom_network.node[11].content_store 	decision_yes[11] 	112
scalar dtelecom_network.node[11].content_store 	decision_no[11] 	10537
scalar dtelecom_network.node[11].content_store 	decision_ratio[11] 	0.010517419476007
scalar dtelecom_network.node[12].core_layer 	interests[12] 	0
scalar dtelecom_network.node[12].core_layer 	data[12] 	0
scalar dtelecom_network.node[12].content_store 	p_hit[12] 	-nan
scalar dtelecom_network.node[12].content_store 	hits[12] 	0
scalar dtelecom_network.node[12].content_store 	misses[12] 	0
scalar dtelecom_network.node[12].content_store 	decision_yes[12] 	0
scalar dtelecom_network.node[12].content_store 	decision_no[12] 	0
scalar dtelecom_network.node[12].content_store 	decision_ratio[12] 	0
scalar dtelecom_network.node[13].core_layer 	interests[13] 	0
scalar dtelecom_network.node[13].core_layer 	data[13] 	0
scalar dtelecom_network.node[13].content_store 	p_hit[13] 	-nan
scalar dtelecom_network.node[13].content_store 	hits[13] 	0
scalar dtelecom_network.node[13].content_store 	misses[13] 	0
scalar dtelecom_network.node[13].content_store 	decision_yes[13] 	0
scalar dtelecom_network.node[13].content_store 	decision_no[13] 	0
scalar dtelecom_network.node[13].content_store 	decision_ratio[13] 	0
scalar dtelecom_network.node[14].core_layer 	interests[14] 	0
scalar dtelecom_network.node[14].core_layer 	data[14] 	0
scalar dtelecom_network.node[14].content_store 	p_hit[14] 	-nan
scalar dtelecom_network.node[14].content_store 	hits[14] 	0
scalar dtelecom_network.node[14].content_store 	misses[14] 	0
scalar dtelecom_network.node[14].content_store 	decision_yes[14] 	0
scalar dtelecom_network.node[14].content_store 	decision_no[14] 	0
scalar dtelecom_network.node[14].content_store 	decision_ratio[14] 	0
scalar dtelecom_network.node[15].core_layer 	interests[15] 	0
scalar dtelecom_network.node[15].core_layer 	data[15] 	0
scalar dtelecom_network.node[15].content_store 	p_hit[15] 	-nan
scalar dtelecom_network.node[15].content_store 	hits[15] 	0
scalar dtelecom_network.node[15].content_store 	misses[15] 	0
scalar dtelecom_network.node[15].content_store 	decision_yes[15] 	0
scalar dtelecom_network.node[15].content_store 	decision_no[15] 	0
scalar dtelecom_network.node[15].content_store 	decision_ratio[15] 	0
scalar dtelecom_network.node[16].core_layer 	interests[16] 	13610
scalar dtelecom_network.node[16].core_layer 	repo_load[16] 	11427
scalar dtelecom_network.node[16].core_layer 	data[16] 	0
scalar dtelecom_network.node[16].content_store 	p_hit[16] 	0.16039676708303
scalar dtelecom_network.node[16].content_store 	hits[16] 	2183
scalar dtelecom_network.node[16].content_store 	misses[16] 	11427
scalar dtelecom_network.node[16].content_store 	decision_yes[16] 	101
scalar dtelecom_network.node[16].content_store 	decision_no[16] 	11326
scalar dtelecom_network.node[16].content_store 	decision_ratio[16] 	0.008838715323357
scalar dtelecom_network.node[17].core_layer 	interests[17] 	14016
scalar dtelecom_network.node[17].core_layer 	data[17] 	9563
scalar dtelecom_network.node[17].content_store 	p_hit[17] 	0.31763698630137
scalar dtelecom_network.node[17].content_store 	hits[17] 	4452
scalar dtelecom_network.node[17].content_store 	misses[17] 	9564
scalar dtelecom_network.node[17].content_store 	decision_yes[17] 	31
scalar dtelecom_network.node[17].content_store 	decision_no[17] 	9532
scalar dtelecom_network.node[17].content_store 	decision_ratio[17] 	0.0032416605667678
scalar dtelecom_network.node[18].core_layer 	interests[18] 	14109
scalar dtelecom_network.node[18].core_layer 	repo_load[18] 	11420
scalar dtelecom_network.node[18].core_layer 	data[18] 	0
scalar dtelecom_network.node[18].content_store 	p_hit[18] 	0.19058756821887
scalar dtelecom_network.node[18].content_store 	hits[18] 	2689
scalar dtelecom_network.node[18].content_store 	misses[18] 	11420
scalar dtelecom_network.node[18].content_store 	decision_yes[18] 	119
scalar dtelecom_network.node[18].content_store 	decision_no[18] 	11301
scalar dtelecom_network.node[18].content_store 	decision_ratio[18] 	0.010420315236427
scalar dtelecom_network.node[19].core_layer 	interests[19] 	13311
scalar dtelecom_network.node[19].core_layer 	repo_load[19] 	10948
scalar dtelecom_network.node[19].core_layer 	data[19] 	0
scalar dtelecom_network.node[19].content_store 	p_hit[19] 	0.17752234993614
scalar dtelecom_network.node[19].content_store 	hits[19] 	2363
scalar dtelecom_network.node[19].content_store 	misses[19] 	10948
scalar dtelecom_network.node[19].content_store 	decision_yes[19] 	97
scalar dtelecom_network.node[19].content_store 	decision_no[19] 	10851
scalar dtelecom_network.node[19].content_store 	decision_ratio[19] 	0.0088600657654366
scalar dtelecom_network.node[20].core_layer 	interests[20] 	0
scalar dtelecom_network.node[20].core_layer 	data[20] 	0
scalar dtelecom_network.node[20].content_store 	p_hit[20] 	-nan
scalar dtelecom_network.node[20].content_store 	hits[20] 	0
scalar dtelecom_network.node[20].content_store 	misses[20] 	0
scalar dtelecom_network.node[20].content_store 	decision_yes[20] 	0
scalar dtelecom_network.node[20].content_store 	decision_no[20] 	0
scalar dtelecom_network.node[20].content_store 	decision_ratio[20] 	0
scalar dtelecom_network.node[21].core_layer 	interests[21] 	13088
scalar dtelecom_network.node[21].core_layer 	repo_load[21] 	10514
scalar dtelecom_network.node[21].core_layer 	data[21] 	0
scalar dtelecom_network.node[21].content_store 	p_hit[21] 	0.19666870415648
scalar dtelecom_network.node[21].content_store 	hits[21] 	2574
scalar dtelecom_network.node[21].content_store 	misses[21] 	10514
scalar dtelecom_network.node[21].content_store 	decision_yes[21] 	100
scalar dtelecom_network.node[21].content_store 	decision_no[21] 	10414
scalar dtelecom_network.node[21].content_store 	decision_ratio[21] 	0.0095111280197831
scalar dtelecom_network.node[22].core_layer 	interests[22] 	13275
scalar dtelecom_network.node[22].core_layer 	data[22] 	8745
scalar dtelecom_network.node[22].content_store 	p_hit[22] 	0.3410922787194
scalar dtelecom_network.node[22].content_store 	hits[22] 	4528
scalar dtelecom_network.node[22].content_store 	misses[22] 	8747
scalar dtelecom_network.node[22].content_store 	decision_yes[22] 	32
scalar dtelecom_network.node[22].content_store 	decision_no[22] 	8713
scalar dtelecom_network.node[22].content_store 	decision_ratio[22] 	0.0036592338479131
scalar dtelecom_network.node[23].core_layer 	interests[23] 	25533
scalar dtelecom_network.node[23].core_layer 	data[23] 	18536
scalar dtelecom_network.node[23].content_store 	p_hit[23] 	0.27399835506991
scalar dtelecom_network.node[23].content_store 	hits[23] 	6996
scalar dtelecom_network.node[23].content_store 	misses[23] 	18537
scalar dtelecom_network.node[23].content_store 	decision_yes[23] 	71
scalar dtelecom_network.node[23].content_store 	decision_no[23] 	18465
scalar dtelecom_network.node[23].content_store 	decision_ratio[23] 	0.0038303841173932
scalar dtelecom_network.node[24].core_layer 	interests[24] 	0
scalar dtelecom_network.node[24].core_layer 	data[24] 	0
scalar dtelecom_network.node[24].content_store 	p_hit[24] 	-nan
scalar dtelecom_network.node[24].content_store 	hits[24] 	0
scalar dtelecom_network.node[24].content_store 	misses[24] 	0
scalar dtelecom_network.node[24].content_store 	decision_yes[24] 	0
scalar dtelecom_network.node[24].content_store 	decision_no[24] 	0
scalar dtelecom_network.node[24].content_store 	decision_ratio[24] 	0
scalar dtelecom_network.node[25].core_layer 	interests[25] 	13365
scalar dtelecom_network.node[25].core_layer 	repo_load[25] 	11257
scalar dtelecom_network.node[25].core_layer 	data[25] 	0
scalar dtelecom_network.node[25].content_store 	p_hit[25] 	0.15772540216985
scalar dtelecom_network.node[25].content_store 	hits[25] 	2108
scalar dtelecom_network.node[25].content_store 	misses[25] 	11257
scalar dtelecom_network.node[25].content_store 	decision_yes[25] 	91
scalar dtelecom_network.node[25].content_store 	decision_no[25] 	11166
scalar dtelecom_network.node[25].content_store 	decision_ratio[25] 	0.00808385893222
scalar dtelecom_network.node[26].core_layer 	interests[26] 	13730
scalar dtelecom_network.node[26].core_layer 	repo_load[26] 	10986
scalar dtelecom_network.node[26].core_layer 	data[26] 	403
scalar dtelecom_network.node[26].content_store 	p_hit[26] 	0.17050254916242
scalar dtelecom_network.node[26].content_store 	hits[26] 	2341
scalar dtelecom_network.node[26].content_store 	misses[26] 	11389
scalar dtelecom_network.node[26].content_store 	decision_yes[26] 	84
scalar dtelecom_network.node[26].content_store 	decision_no[26] 	11305
scalar dtelecom_network.node[26].content_store 	decision_ratio[26] 	0.0073755377996312
scalar dtelecom_network.node[27].core_layer 	interests[27] 	0
scalar dtelecom_network.node[27].core_layer 	data[27] 	0
scalar dtelecom_network.node[27].content_store 	p_hit[27] 	-nan
scalar dtelecom_network.node[27].content_store 	hits[27] 	0
scalar dtelecom_network.node[27].content_store 	misses[27] 	0
scalar dtelecom_network.node[27].content_store 	decision_yes[27] 	0
scalar dtelecom_network.node[27].content_store 	decision_no[27] 	0
scalar dtelecom_network.node[27].content_store 	decision_ratio[27] 	0
scalar dtelecom_network.node[28].core_layer 	interests[28] 	13708
scalar dtelecom_network.node[28].core_layer 	data[28] 	8997
scalar dtelecom_network.node[28].content_store 	p_hit[28] 	0.34359498103297
scalar dtelecom_network.node[28].content_store 	hits[28] 	4710
scalar dtelecom_network.node[28].content_store 	misses[28] 	8998
scalar dtelecom_network.node[28].content_store 	decision_yes[28] 	33
scalar dtelecom_network.node[28].content_store 	decision_no[28] 	8964
scalar dtelecom_network.node[28].content_store 	decision_ratio[28] 	0.0036678892964321
scalar dtelecom_network.node[29].core_layer 	interests[29] 	0
scalar dtelecom_network.node[29].core_layer 	data[29] 	0
scalar dtelecom_network.node[29].content_store 	p_hit[29] 	-nan
scalar dtelecom_network.node[29].content_store 	hits[29] 	0
scalar dtelecom_network.node[29].content_store 	misses[29] 	0
scalar dtelecom_network.node[29].content_store 	decision_yes[29] 	0
scalar dtelecom_network.node[29].content_store 	decision_no[29] 	0
scalar dtelecom_network.node[29].content_store 	decision_ratio[29] 	0
scalar dtelecom_network.node[30].core_layer 	interests[30] 	12896
scalar dtelecom_network.node[30].core_layer 	data[30] 	8874
scalar dtelecom_network.node[30].content_store 	p_hit[30] 	0.31180210918114
scalar dtelecom_network.node[30].content_store 	hits[30] 	4021
scalar dtelecom_network.node[30].content_store 	misses[30] 	8875
scalar dtelecom_network.node[30].content_store 	decision_yes[30] 	34
scalar dtelecom_network.node[30].content_store 	decision_no[30] 	8840
scalar dtelecom_network.node[30].content_store 	decision_ratio[30] 	0.0038314176245211
scalar dtelecom_network.node[31].core_layer 	interests[31] 	13209
scalar dtelecom_network.node[31].core_layer 	data[31] 	8775
scalar dtelecom_network.node[31].content_store 	p_hit[31] 	0.3356045120751
scalar dtelecom_network.node[31].content_store 	hits[31] 	4433
scalar dtelecom_network.node[31].content_store 	misses[31] 	8776
scalar dtelecom_network.node[31].content_store 	decision_yes[31] 	26
scalar dtelecom_network.node[31].content_store 	decision_no[31] 	8749
scalar dtelecom_network.node[31].content_store 	decision_ratio[31] 	0.002962962962963
scalar dtelecom_network.node[32].core_layer 	interests[32] 	25530
scalar dtelecom_network.node[32].core_layer 	repo_load[32] 	12163
scalar dtelecom_network.node[32].core_layer 	data[32] 	8914
scalar dtelecom_network.node[32].content_store 	p_hit[32] 	0.17442224833529
scalar dtelecom_network.node[32].content_store 	hits[32] 	4453
scalar dtelecom_network.node[32].content_store 	misses[32] 	21077
scalar dtelecom_network.node[32].content_store 	decision_yes[32] 	118
scalar dtelecom_network.node[32].content_store 	decision_no[32] 	20959
scalar dtelecom_network.node[32].content_store 	decision_ratio[32] 	0.0055985197134317
scalar dtelecom_network.node[33].core_layer 	interests[33] 	13939
scalar dtelecom_network.node[33].core_layer 	data[33] 	8908
scalar dtelecom_network.node[33].content_store 	p_hit[33] 	0.36085802424851
scalar dtelecom_network.node[33].content_store 	hits[33] 	5030
scalar dtelecom_network.node[33].content_store 	misses[33] 	8909
scalar dtelecom_network.node[33].content_store 	decision_yes[33] 	29
scalar dtelecom_network.node[33].content_store 	decision_no[33] 	8879
scalar dtelecom_network.node[33].content_store 	decision_ratio[33] 	0.0032555006735519
scalar dtelecom_network.node[34].core_layer 	interests[34] 	0
scalar dtelecom_network.node[34].core_layer 	data[34] 	0
scalar dtelecom_network.node[34].content_store 	p_hit[34] 	-nan
scalar dtelecom_network.node[34].content_store 	hits[34] 	0
scalar dtelecom_network.node[34].content_store 	misses[34] 	0
scalar dtelecom_network.node[34].content_store 	decision_yes[34] 	0
scalar dtelecom_network.node[34].content_store 	decision_no[34] 	0
scalar dtelecom_network.node[34].content_store 	decision_ratio[34] 	0
scalar dtelecom_network.node[35].core_layer 	interests[35] 	0
scalar dtelecom_network.node[35].core_layer 	data[35] 	0
scalar dtelecom_network.node[35].content_store 	p_hit[35] 	-nan
scalar dtelecom_network.node[35].content_store 	hits[35] 	0
scalar dtelecom_network.node[35].content_store 	misses[35] 	0
scalar dtelecom_network.node[35].content_store 	decision_yes[35] 	0
scalar dtelecom_network.node[35].content_store 	decision_no[35] 	0
scalar dtelecom_network.node[35].content_store 	decision_ratio[35] 	0
scalar dtelecom_network.node[36].core_layer 	interests[36] 	13444
scalar dtelecom_network.node[36].core_layer 	data[36] 	8934
scalar dtelecom_network.node[36].content_store 	p_hit[36] 	0.33539125260339
scalar dtelecom_network.node[36].content_store 	hits[36] 	4509
scalar dtelecom_network.node[36].content_store 	misses[36] 	8935
scalar dtelecom_network.node[36].content_store 	decision_yes[36] 	27
scalar dtelecom_network.node[36].content_store 	decision_no[36] 	8907
scalar dtelecom_network.node[36].content_store 	decision_ratio[36] 	0.0030221625251847
scalar dtelecom_network.node[37].core_layer 	interests[37] 	13514
scalar dtelecom_network.node[37].core_layer 	data[37] 	9008
scalar dtelecom_network.node[37].content_store 	p_hit[37] 	0.33328400177594
scalar dtelecom_network.node[37].content_store 	hits[37] 	4504
scalar dtelecom_network.node[37].content_store 	misses[37] 	9010
scalar dtelecom_network.node[37].content_store 	decision_yes[37] 	39
scalar dtelecom_network.node[37].content_store 	decision_no[37] 	8969
scalar dtelecom_network.node[37].content_store 	decision_ratio[37] 	0.0043294849023091
scalar dtelecom_network.node[38].core_layer 	interests[38] 	0
scalar dtelecom_network.node[38].core_layer 	data[38] 	0
scalar dtelecom_network.node[38].content_store 	p_hit[38] 	-nan
scalar dtelecom_network.node[38].content_store 	hits[38] 	0
scalar dtelecom_network.node[38].content_store 	misses[38] 	0
scalar dtelecom_network.node[38].content_store 	decision_yes[38] 	0
scalar dtelecom_network.node[38].content_store 	decision_no[38] 	0
scalar dtelecom_network.node[38].content_store 	decision_ratio[38] 	0
scalar dtelecom_network.node[39].core_layer 	interests[39] 	0
scalar dtelecom_network.node[39].core_layer 	data[39] 	0
scalar dtelecom_network.node[39].content_store 	p_hit[39] 	-nan
scalar dtelecom_network.node[39].content_store 	hits[39] 	0
scalar dtelecom_network.node[39].content_store 	misses[39] 	0
scalar dtelecom_network.node[39].content_store 	decision_yes[39] 	0
scalar dtelecom_network.node[39].content_store 	decision_no[39] 	0
scalar dtelecom_network.node[39].content_store 	decision_ratio[39] 	0
scalar dtelecom_network.node[40].core_layer 	interests[40] 	14539
scalar dtelecom_network.node[40].core_layer 	data[40] 	8983
scalar dtelecom_network.node[40].content_store 	p_hit[40] 	0.38214457665589
scalar dtelecom_network.node[40].content_store 	hits[40] 	5556
scalar dtelecom_network.node[40].content_store 	misses[40] 	8983
scalar dtelecom_network.node[40].content_store 	decision_yes[40] 	32
scalar dtelecom_network.node[40].content_store 	decision_no[40] 	8951
scalar dtelecom_network.node[40].content_store 	decision_ratio[40] 	0.0035622843148169
scalar dtelecom_network.node[41].core_layer 	interests[41] 	0
scalar dtelecom_network.node[41].core_layer 	data[41] 	0
scalar dtelecom_network.node[41].content_store 	p_hit[41] 	-nan
scalar dtelecom_network.node[41].content_store 	hits[41] 	0
scalar dtelecom_network.node[41].content_store 	misses[41] 	0
scalar dtelecom_network.node[41].content_store 	decision_yes[41] 	0
scalar dtelecom_network.node[41].content_store 	decision_no[41] 	0
scalar dtelecom_network.node[41].content_store 	decision_ratio[41] 	0
scalar dtelecom_network.node[42].core_layer 	interests[42] 	13304
scalar dtelecom_network.node[42].core_layer 	data[42] 	8755
scalar dtelecom_network.node[42].content_store 	p_hit[42] 	0.34177690920024
scalar dtelecom_network.node[42].content_store 	hits[42] 	4547
scalar dtelecom_network.node[42].content_store 	misses[42] 	8757
scalar dtelecom_network.node[42].content_store 	decision_yes[42] 	24
scalar dtelecom_network.node[42].content_store 	decision_no[42] 	8731
scalar dtelecom_network.node[42].content_store 	decision_ratio[42] 	0.0027412906910337
scalar dtelecom_network.node[43].core_layer 	interests[43] 	0
scalar dtelecom_network.node[43].core_layer 	data[43] 	0
scalar dtelecom_network.node[43].content_store 	p_hit[43] 	-nan
scalar dtelecom_network.node[43].content_store 	hits[43] 	0
scalar dtelecom_network.node[43].content_store 	misses[43] 	0
scalar dtelecom_network.node[43].content_store 	decision_yes[43] 	0
scalar dtelecom_network.node[43].content_store 	decision_no[43] 	0
scalar dtelecom_network.node[43].content_store 	decision_ratio[43] 	0
scalar dtelecom_network.node[44].core_layer 	interests[44] 	0
scalar dtelecom_network.node[44].core_layer 	data[44] 	0
scalar dtelecom_network.node[44].content_store 	p_hit[44] 	-nan
scalar dtelecom_network.node[44].content_store 	hits[44] 	0
scalar dtelecom_network.node[44].content_store 	misses[44] 	0
scalar dtelecom_network.node[44].content_store 	decision_yes[44] 	0
scalar dtelecom_network.node[44].content_store 	decision_no[44] 	0
scalar dtelecom_network.node[44].content_store 	decision_ratio[44] 	0
scalar dtelecom_network.node[45].core_layer 	interests[45] 	13859
scalar dtelecom_network.node[45].core_layer 	data[45] 	8928
scalar dtelecom_network.node[45].content_store 	p_hit[45] 	0.35579767660004
scalar dtelecom_network.node[45].content_store 	hits[45] 	4931
scalar dtelecom_network.node[45].content_store 	misses[45] 	8928
scalar dtelecom_network.node[45].content_store 	decision_yes[45] 	37
scalar dtelecom_network.node[45].content_store 	decision_no[45] 	8891
scalar dtelecom_network.node[45].content_store 	decision_ratio[45] 	0.0041442652329749
scalar dtelecom_network.node[46].core_layer 	interests[46] 	25535
scalar dtelecom_network.node[46].core_layer 	repo_load[46] 	12202
scalar dtelecom_network.node[46].core_layer 	data[46] 	8742
scalar dtelecom_network.node[46].content_store 	p_hit[46] 	0.17975327981202
scalar dtelecom_network.node[46].content_store 	hits[46] 	4590
scalar dtelecom_network.node[46].content_store 	misses[46] 	20945
scalar dtelecom_network.node[46].content_store 	decision_yes[46] 	83
scalar dtelecom_network.node[46].content_store 	decision_no[46] 	20861
scalar dtelecom_network.node[46].content_store 	decision_ratio[46] 	0.00396294881589
scalar dtelecom_network.node[47].core_layer 	interests[47] 	0
scalar dtelecom_network.node[47].core_layer 	data[47] 	0
scalar dtelecom_network.node[47].content_store 	p_hit[47] 	-nan
scalar dtelecom_network.node[47].content_store 	hits[47] 	0
scalar dtelecom_network.node[47].content_store 	misses[47] 	0
scalar dtelecom_network.node[47].content_store 	decision_yes[47] 	0
scalar dtelecom_network.node[47].content_store 	decision_no[47] 	0
scalar dtelecom_network.node[47].content_store 	decision_ratio[47] 	0
scalar dtelecom_network.node[48].core_layer 	interests[48] 	24491
scalar dtelecom_network.node[48].core_layer 	repo_load[48] 	11486
scalar dtelecom_network.node[48].core_layer 	data[48] 	8719
scalar dtelecom_network.node[48].content_store 	p_hit[48] 	0.17492139969785
scalar dtelecom_network.node[48].content_store 	hits[48] 	4284
scalar dtelecom_network.node[48].content_store 	misses[48] 	20207
scalar dtelecom_network.node[48].content_store 	decision_yes[48] 	87
scalar dtelecom_network.node[48].content_store 	decision_no[48] 	20118
scalar dtelecom_network.node[48].content_store 	decision_ratio[48] 	0.0043058648849295
scalar dtelecom_network.node[49].core_layer 	interests[49] 	13352
scalar dtelecom_network.node[49].core_layer 	data[49] 	8822
scalar dtelecom_network.node[49].content_store 	p_hit[49] 	0.33927501497903
scalar dtelecom_network.node[49].content_store 	hits[49] 	4530
scalar dtelecom_network.node[49].content_store 	misses[49] 	8822
scalar dtelecom_network.node[49].content_store 	decision_yes[49] 	35
scalar dtelecom_network.node[49].content_store 	decision_no[49] 	8787
scalar dtelecom_network.node[49].content_store 	decision_ratio[49] 	0.0039673543414192
scalar dtelecom_network.node[50].core_layer 	interests[50] 	13152
scalar dtelecom_network.node[50].core_layer 	data[50] 	8856
scalar dtelecom_network.node[50].content_store 	p_hit[50] 	0.32664233576642
scalar dtelecom_network.node[50].content_store 	hits[50] 	4296
scalar dtelecom_network.node[50].content_store 	misses[50] 	8856
scalar dtelecom_network.node[50].content_store 	decision_yes[50] 	37
scalar dtelecom_network.node[50].content_store 	decision_no[50] 	8819
scalar dtelecom_network.node[50].content_store 	decision_ratio[50] 	0.0041779584462511
scalar dtelecom_network.node[51].core_layer 	interests[51] 	13506
scalar dtelecom_network.node[51].core_layer 	data[51] 	8727
scalar dtelecom_network.node[51].content_store 	p_hit[51] 	0.35384273656153
scalar dtelecom_network.node[51].content_store 	hits[51] 	4779
scalar dtelecom_network.node[51].content_store 	misses[51] 	8727
scalar dtelecom_network.node[51].content_store 	decision_yes[51] 	42
scalar dtelecom_network.node[51].content_store 	decision_no[51] 	8685
scalar dtelecom_network.node[51].content_store 	decision_ratio[51] 	0.0048126503953249
scalar dtelecom_network.node[52].core_layer 	interests[52] 	13853
scalar dtelecom_network.node[52].core_layer 	repo_load[52] 	11277
scalar dtelecom_network.node[52].core_layer 	data[52] 	0
scalar dtelecom_network.node[52].content_store 	p_hit[52] 	0.18595250126326
scalar dtelecom_network.node[52].content_store 	hits[52] 	2576
scalar dtelecom_network.node[52].content_store 	misses[52] 	11277
scalar dtelecom_network.node[52].content_store 	decision_yes[52] 	128
scalar dtelecom_network.node[52].content_store 	decision_no[52] 	11149
scalar dtelecom_network.node[52].content_store 	decision_ratio[52] 	0.011350536490201
scalar dtelecom_network.node[53].core_layer 	interests[53] 	13411
scalar dtelecom_network.node[53].core_layer 	data[53] 	8908
scalar dtelecom_network.node[53].content_store 	p_hit[53] 	0.33576914473194
scalar dtelecom_network.node[53].content_store 	hits[53] 	4503
scalar dtelecom_network.node[53].content_store 	misses[53] 	8908
scalar dtelecom_network.node[53].content_store 	decision_yes[53] 	31
scalar dtelecom_network.node[53].content_store 	decision_no[53] 	8877
scalar dtelecom_network.node[53].content_store 	decision_ratio[53] 	0.003480017961383
scalar dtelecom_network.node[54].core_layer 	interests[54] 	25168
scalar dtelecom_network.node[54].core_layer 	repo_load[54] 	11845
scalar dtelecom_network.node[54].core_layer 	data[54] 	8790
scalar dtelecom_network.node[54].content_store 	p_hit[54] 	0.18006993006993
scalar dtelecom_network.node[54].content_store 	hits[54] 	4532
scalar dtelecom_network.node[54].content_store 	misses[54] 	20636
scalar dtelecom_network.node[54].content_store 	decision_yes[54] 	92
scalar dtelecom_network.node[54].content_store 	decision_no[54] 	20543
scalar dtelecom_network.node[54].content_store 	decision_ratio[54] 	0.0044584443905985
scalar dtelecom_network.node[55].core_layer 	interests[55] 	13329
scalar dtelecom_network.node[55].core_layer 	data[55] 	8857
scalar dtelecom_network.node[55].content_store 	p_hit[55] 	0.33535899167229
scalar dtelecom_network.node[55].content_store 	hits[55] 	4470
scalar dtelecom_network.node[55].content_store 	misses[55] 	8859
scalar dtelecom_network.node[55].content_store 	decision_yes[55] 	35
scalar dtelecom_network.node[55].content_store 	decision_no[55] 	8822
scalar dtelecom_network.node[55].content_store 	decision_ratio[55] 	0.0039516766399458
scalar dtelecom_network.node[56].core_layer 	interests[56] 	13441
scalar dtelecom_network.node[56].core_layer 	data[56] 	8935
scalar dtelecom_network.node[56].content_store 	p_hit[56] 	0.3352429134737
scalar dtelecom_network.node[56].content_store 	hits[56] 	4506
scalar dtelecom_network.node[56].content_store 	misses[56] 	8935
scalar dtelecom_network.node[56].content_store 	decision_yes[56] 	28
scalar dtelecom_network.node[56].content_store 	decision_no[56] 	8907
scalar dtelecom_network.node[56].content_store 	decision_ratio[56] 	0.0031337437045327
scalar dtelecom_network.node[57].core_layer 	interests[57] 	12845
scalar dtelecom_network.node[57].core_layer 	data[57] 	8851
scalar dtelecom_network.node[57].content_store 	p_hit[57] 	0.31093810821331
scalar dtelecom_network.node[57].content_store 	hits[57] 	3994
scalar dtelecom_network.node[57].content_store 	misses[57] 	8851
scalar dtelecom_network.node[57].content_store 	decision_yes[57] 	25
scalar dtelecom_network.node[57].content_store 	decision_no[57] 	8826
scalar dtelecom_network.node[57].content_store 	decision_ratio[57] 	0.0028245396000452
scalar dtelecom_network.node[58].core_layer 	interests[58] 	25433
scalar dtelecom_network.node[58].core_layer 	repo_load[58] 	11993
scalar dtelecom_network.node[58].core_layer 	data[58] 	8806
scalar dtelecom_network.node[58].content_store 	p_hit[58] 	0.18216490386506
scalar dtelecom_network.node[58].content_store 	hits[58] 	4633
scalar dtelecom_network.node[58].content_store 	misses[58] 	20800
scalar dtelecom_network.node[58].content_store 	decision_yes[58] 	114
scalar dtelecom_network.node[58].content_store 	decision_no[58] 	20685
scalar dtelecom_network.node[58].content_store 	decision_ratio[58] 	0.0054810327419587
scalar dtelecom_network.node[59].core_layer 	interests[59] 	14844
scalar dtelecom_network.node[59].core_layer 	data[59] 	9005
scalar dtelecom_network.node[59].content_store 	p_hit[59] 	0.39349232012935
scalar dtelecom_network.node[59].content_store 	hits[59] 	5841
scalar dtelecom_network.node[59].content_store 	misses[59] 	9003
scalar dtelecom_network.node[59].content_store 	decision_yes[59] 	42
scalar dtelecom_network.node[59].content_store 	decision_no[59] 	8963
scalar dtelecom_network.node[59].content_store 	decision_ratio[59] 	0.0046640755136036
scalar dtelecom_network.node[60].core_layer 	interests[60] 	0
scalar dtelecom_network.node[60].core_layer 	data[60] 	0
scalar dtelecom_network.node[60].content_store 	p_hit[60] 	-nan
scalar dtelecom_network.node[60].content_store 	hits[60] 	0
scalar dtelecom_network.node[60].content_store 	misses[60] 	0
scalar dtelecom_network.node[60].content_store 	decision_yes[60] 	0
scalar dtelecom_network.node[60].content_store 	decision_no[60] 	0
scalar dtelecom_network.node[60].content_store 	decision_ratio[60] 	0
scalar dtelecom_network.node[61].core_layer 	interests[61] 	0
scalar dtelecom_network.node[61].core_layer 	data[61] 	0
scalar dtelecom_network.node[61].content_store 	p_hit[61] 	-nan
scalar dtelecom_network.node[61].content_store 	hits[61] 	0
scalar dtelecom_network.node[61].content_store 	misses[61] 	0
scalar dtelecom_network.node[61].content_store 	decision_yes[61] 	0
scalar dtelecom_network.node[61].content_store 	decision_no[61] 	0
scalar dtelecom_network.node[61].content_store 	decision_ratio[61] 	0
scalar dtelecom_network.node[62].core_layer 	interests[62] 	12508
scalar dtelecom_network.node[62].core_layer 	data[62] 	8761
scalar dtelecom_network.node[62].content_store 	p_hit[62] 	0.29940837863767
scalar dtelecom_network.node[62].content_store 	hits[62] 	3745
scalar dtelecom_network.node[62].content_store 	misses[62] 	8763
scalar dtelecom_network.node[62].content_store 	decision_yes[62] 	25
scalar dtelecom_network.node[62].content_store 	decision_no[62] 	8736
scalar dtelecom_network.node[62].content_store 	decision_ratio[62] 	0.0028535555301906
scalar dtelecom_network.node[63].core_layer 	interests[63] 	0
scalar dtelecom_network.node[63].core_layer 	data[63] 	0
scalar dtelecom_network.node[63].content_store 	p_hit[63] 	-nan
scalar dtelecom_network.node[63].content_store 	hits[63] 	0
scalar dtelecom_network.node[63].content_store 	misses[63] 	0
scalar dtelecom_network.node[63].content_store 	decision_yes[63] 	0
scalar dtelecom_network.node[63].content_store 	decision_no[63] 	0
scalar dtelecom_network.node[63].content_store 	decision_ratio[63] 	0
scalar dtelecom_network.node[64].core_layer 	interests[64] 	0
scalar dtelecom_network.node[64].core_layer 	data[64] 	0
scalar dtelecom_network.node[64].content_store 	p_hit[64] 	-nan
scalar dtelecom_network.node[64].content_store 	hits[64] 	0
scalar dtelecom_network.node[64].content_store 	misses[64] 	0
scalar dtelecom_network.node[64].content_store 	decision_yes[64] 	0
scalar dtelecom_network.node[64].content_store 	decision_no[64] 	0
scalar dtelecom_network.node[64].content_store 	decision_ratio[64] 	0
scalar dtelecom_network.node[65].core_layer 	interests[65] 	1923
scalar dtelecom_network.node[65].core_layer 	data[65] 	424
scalar dtelecom_network.node[65].content_store 	p_hit[65] 	0.77951118044722
scalar dtelecom_network.node[65].content_store 	hits[65] 	1499
scalar dtelecom_network.node[65].content_store 	misses[65] 	424
scalar dtelecom_network.node[65].content_store 	decision_yes[65] 	5
scalar dtelecom_network.node[65].content_store 	decision_no[65] 	419
scalar dtelecom_network.node[65].content_store 	decision_ratio[65] 	0.011792452830189
scalar dtelecom_network.node[66].core_layer 	interests[66] 	25113
scalar dtelecom_network.node[66].core_layer 	repo_load[66] 	11749
scalar dtelecom_network.node[66].core_layer 	data[66] 	9031
scalar dtelecom_network.node[66].content_store 	p_hit[66] 	0.17246047863656
scalar dtelecom_network.node[66].content_store 	hits[66] 	4331
scalar dtelecom_network.node[66].content_store 	misses[66] 	20782
scalar dtelecom_network.node[66].content_store 	decision_yes[66] 	88
scalar dtelecom_network.node[66].content_store 	decision_no[66] 	20692
scalar dtelecom_network.node[66].content_store 	decision_ratio[66] 	0.0042348411934552
scalar dtelecom_network.node[67].core_layer 	interests[67] 	12678
scalar dtelecom_network.node[67].core_layer 	data[67] 	8752
scalar dtelecom_network.node[67].content_store 	p_hit[67] 	0.30974917179366
scalar dtelecom_network.node[67].content_store 	hits[67] 	3927
scalar dtelecom_network.node[67].content_store 	misses[67] 	8751
scalar dtelecom_network.node[67].content_store 	decision_yes[67] 	30
scalar dtelecom_network.node[67].content_store 	decision_no[67] 	8722
scalar dtelecom_network.node[67].content_store 	decision_ratio[67] 	0.0034277879341865
scalar dtelecom_network.client[3] 	hdistance[3] 	1.2902334923425
scalar dtelecom_network.client[3] 	downloads[3] 	11949
scalar dtelecom_network.client[3] 	avg_time[3] 	0.011868982437
scalar dtelecom_network.client[4] 	hdistance[4] 	1.2813612652149
scalar dtelecom_network.client[4] 	downloads[4] 	12077
scalar dtelecom_network.client[4] 	avg_time[4] 	0.050763800391
scalar dtelecom_network.client[8] 	hdistance[8] 	1.8133939644481
scalar dtelecom_network.client[8] 	downloads[8] 	12095
scalar dtelecom_network.client[8] 	avg_time[8] 	0.016468722867
scalar dtelecom_network.client[9] 	hdistance[9] 	1.726005542027
scalar dtelecom_network.client[9] 	downloads[9] 	11909
scalar dtelecom_network.client[9] 	avg_time[9] 	0.015848841569
scalar dtelecom_network.client[17] 	hdistance[17] 	1.7130094443972
scalar dtelecom_network.client[17] 	downloads[17] 	11753
scalar dtelecom_network.client[17] 	avg_time[17] 	0.014439583649
scalar dtelecom_network.client[22] 	hdistance[22] 	1.7882313551519
scalar dtelecom_network.client[22] 	downloads[22] 	11947
scalar dtelecom_network.client[22] 	avg_time[22] 	0.014786455948
scalar dtelecom_network.client[23] 	hdistance[23] 	1.6850255294216
scalar dtelecom_network.client[23] 	downloads[23] 	11947
scalar dtelecom_network.client[23] 	avg_time[23] 	0.013589490493
scalar dtelecom_network.client[28] 	hdistance[28] 	1.8114646547482
scalar dtelecom_network.client[28] 	downloads[28] 	12194
scalar dtelecom_network.client[28] 	avg_time[28] 	0.017535950361
scalar dtelecom_network.client[30] 	hdistance[30] 	1.8368172623061
scalar dtelecom_network.client[30] 	downloads[30] 	11864
scalar dtelecom_network.client[30] 	avg_time[30] 	0.015535126241
scalar dtelecom_network.client[31] 	hdistance[31] 	1.7842839036755
scalar dtelecom_network.client[31] 	downloads[31] 	11835
scalar dtelecom_network.client[31] 	avg_time[31] 	0.017381535676
scalar dtelecom_network.client[32] 	hdistance[32] 	1.7638762886598
scalar dtelecom_network.client[32] 	downloads[32] 	12125
scalar dtelecom_network.client[32] 	avg_time[32] 	0.014604064802
scalar dtelecom_network.client[33] 	hdistance[33] 	1.7209880636605
scalar dtelecom_network.client[33] 	downloads[33] 	12064
scalar dtelecom_network.client[33] 	avg_time[33] 	0.01491431416
scalar dtelecom_network.client[36] 	hdistance[36] 	1.8251584918252
scalar dtelecom_network.client[36] 	downloads[36] 	11988
scalar dtelecom_network.client[36] 	avg_time[36] 	0.015595240216
scalar dtelecom_network.client[37] 	hdistance[37] 	1.8326506729081
scalar dtelecom_network.client[37] 	downloads[37] 	11963
scalar dtelecom_network.client[37] 	avg_time[37] 	0.015580503407
scalar dtelecom_network.client[40] 	hdistance[40] 	1.7539358600583
scalar dtelecom_network.client[40] 	downloads[40] 	12005
scalar dtelecom_network.client[40] 	avg_time[40] 	0.0162447183
scalar dtelecom_network.client[42] 	hdistance[42] 	1.7728876196876
scalar dtelecom_network.client[42] 	downloads[42] 	11906
scalar dtelecom_network.client[42] 	avg_time[42] 	0.016567870021
scalar dtelecom_network.client[45] 	hdistance[45] 	1.7701502448742
scalar dtelecom_network.client[45] 	downloads[45] 	12047
scalar dtelecom_network.client[45] 	avg_time[45] 	0.015515376401
scalar dtelecom_network.client[46] 	hdistance[46] 	1.778555944639
scalar dtelecom_network.client[46] 	downloads[46] 	11994
scalar dtelecom_network.client[46] 	avg_time[46] 	0.016756936282
scalar dtelecom_network.client[48] 	hdistance[48] 	1.7809708410585
scalar dtelecom_network.client[48] 	downloads[48] 	11866
scalar dtelecom_network.client[48] 	avg_time[48] 	0.015647581363
scalar dtelecom_network.client[49] 	hdistance[49] 	1.8170055452865
scalar dtelecom_network.client[49] 	downloads[49] 	11902
scalar dtelecom_network.client[49] 	avg_time[49] 	0.014940362111
scalar dtelecom_network.client[50] 	hdistance[50] 	1.7949362843729
scalar dtelecom_network.client[50] 	downloads[50] 	11928
scalar dtelecom_network.client[50] 	avg_time[50] 	0.013913842559
scalar dtelecom_network.client[51] 	hdistance[51] 	1.7814083080041
scalar dtelecom_network.client[51] 	downloads[51] 	11844
scalar dtelecom_network.client[51] 	avg_time[51] 	0.015251234852
scalar dtelecom_network.client[53] 	hdistance[53] 	1.8321530939133
scalar dtelecom_network.client[53] 	downloads[53] 	11862
scalar dtelecom_network.client[53] 	avg_time[53] 	0.014830326678
scalar dtelecom_network.client[54] 	hdistance[54] 	1.7800549862534
scalar dtelecom_network.client[54] 	downloads[54] 	12003
scalar dtelecom_network.client[54] 	avg_time[54] 	0.016158263465
scalar dtelecom_network.client[55] 	hdistance[55] 	1.789381270903
scalar dtelecom_network.client[55] 	downloads[55] 	11960
scalar dtelecom_network.client[55] 	avg_time[55] 	0.019209340761
scalar dtelecom_network.client[56] 	hdistance[56] 	1.8197105329206
scalar dtelecom_network.client[56] 	downloads[56] 	11953
scalar dtelecom_network.client[56] 	avg_time[56] 	0.014763373586
scalar dtelecom_network.client[57] 	hdistance[57] 	1.7857739886326
scalar dtelecom_network.client[57] 	downloads[57] 	11964
scalar dtelecom_network.client[57] 	avg_time[57] 	0.013685054333
scalar dtelecom_network.client[58] 	hdistance[58] 	1.7688808007279
scalar dtelecom_network.client[58] 	downloads[58] 	12089
scalar dtelecom_network.client[58] 	avg_time[58] 	0.017692797863
scalar dtelecom_network.client[59] 	hdistance[59] 	1.861021969884
scalar dtelecom_network.client[59] 	downloads[59] 	12153
scalar dtelecom_network.client[59] 	avg_time[59] 	0.058437631862
scalar dtelecom_network.client[62] 	hdistance[62] 	2.2871722535679
scalar dtelecom_network.client[62] 	downloads[62] 	12052
scalar dtelecom_network.client[62] 	avg_time[62] 	0.058930162906
scalar dtelecom_network.client[66] 	hdistance[66] 	1.9083509685821
scalar dtelecom_network.client[66] 	downloads[66] 	12286
scalar dtelecom_network.client[66] 	avg_time[66] 	0.088825028944
scalar dtelecom_network.client[67] 	hdistance[67] 	1.8803454991955
scalar dtelecom_network.client[67] 	downloads[67] 	11809
scalar dtelecom_network.client[67] 	avg_time[67] 	0.072743236753
