version 2
run General-138-20160820-16:07:56-2644
attr a 0.9
attr cd lce
attr configname General
attr cr lru
attr datetime 20160820-16:07:56
attr experiment General
attr fsize 1
attr inifile hw5115/scenario_A/SPR-LCE.ini
attr iterationvars "$name=tree_4_3, $un=06, $rep=19, $cd=lce, $cr=lru, $fsize=1, $a=0.9, $sl=spr, $ttl=1000, $variance=0.05"
attr iterationvars2 "$name=tree_4_3, $un=06, $rep=19, $cd=lce, $cr=lru, $fsize=1, $a=0.9, $sl=spr, $ttl=1000, $variance=0.05, $repetition=0"
attr measurement "$name=tree_4_3, $un=06, $rep=19, $cd=lce, $cr=lru, $fsize=1, $a=0.9, $sl=spr, $ttl=1000, $variance=0.05"
attr name tree_4_3
attr network networks.${name}_u${un}_r${rep}_network
attr processid 2644
attr rep 19
attr repetition 0
attr replication #0
attr resultdir results
attr runnumber 138
attr seedset 19
attr sl spr
attr ttl 1000
attr un 06
attr variance 0.05

scalar . 	a 	0.9
scalar . 	fsize 	1
scalar . 	rep 	19
scalar . 	ttl 	1000
scalar . 	un 	06
scalar . 	variance 	0.05
scalar tree_4_3_u06_r19_network.content_distribution 	repo-0 	0
scalar tree_4_3_u06_r19_network.content_distribution 	client-0 	13
scalar tree_4_3_u06_r19_network.content_distribution 	client-1 	14
scalar tree_4_3_u06_r19_network.content_distribution 	client-2 	15
scalar tree_4_3_u06_r19_network.content_distribution 	client-3 	16
scalar tree_4_3_u06_r19_network.content_distribution 	client-4 	17
scalar tree_4_3_u06_r19_network.content_distribution 	client-5 	18
scalar tree_4_3_u06_r19_network.content_distribution 	client-6 	19
scalar tree_4_3_u06_r19_network.content_distribution 	client-7 	20
scalar tree_4_3_u06_r19_network.content_distribution 	client-8 	21
scalar tree_4_3_u06_r19_network.content_distribution 	client-9 	22
scalar tree_4_3_u06_r19_network.content_distribution 	client-10 	23
scalar tree_4_3_u06_r19_network.content_distribution 	client-11 	24
scalar tree_4_3_u06_r19_network.content_distribution 	client-12 	25
scalar tree_4_3_u06_r19_network.content_distribution 	client-13 	26
scalar tree_4_3_u06_r19_network.content_distribution 	client-14 	27
scalar tree_4_3_u06_r19_network.content_distribution 	client-15 	28
scalar tree_4_3_u06_r19_network.content_distribution 	client-16 	29
scalar tree_4_3_u06_r19_network.content_distribution 	client-17 	30
scalar tree_4_3_u06_r19_network.content_distribution 	client-18 	31
scalar tree_4_3_u06_r19_network.content_distribution 	client-19 	32
scalar tree_4_3_u06_r19_network.content_distribution 	client-20 	33
scalar tree_4_3_u06_r19_network.content_distribution 	client-21 	34
scalar tree_4_3_u06_r19_network.content_distribution 	client-22 	35
scalar tree_4_3_u06_r19_network.content_distribution 	client-23 	36
scalar tree_4_3_u06_r19_network.content_distribution 	client-24 	37
scalar tree_4_3_u06_r19_network.content_distribution 	client-25 	38
scalar tree_4_3_u06_r19_network.content_distribution 	client-26 	39
scalar tree_4_3_u06_r19_network.content_distribution 	repo-0_card 	100000
scalar tree_4_3_u06_r19_network.content_distribution 	repo-0_price 	0
scalar tree_4_3_u06_r19_network.statistics 	stabilization_time 	562.6
scalar tree_4_3_u06_r19_network.statistics 	p_hit 	0.11230586258691
scalar tree_4_3_u06_r19_network.statistics 	interests 	28062.55
scalar tree_4_3_u06_r19_network.statistics 	data 	19967.225
scalar tree_4_3_u06_r19_network.statistics 	hdistance 	3.2551164458101
scalar tree_4_3_u06_r19_network.statistics 	avg_time 	0.00493329862
scalar tree_4_3_u06_r19_network.statistics 	downloads 	323796
scalar tree_4_3_u06_r19_network.statistics 	total_cost 	0
scalar tree_4_3_u06_r19_network.statistics 	total_replicas 	100000
scalar tree_4_3_u06_r19_network.statistics 	inner_hit 	0.21179693387194
scalar tree_4_3_u06_r19_network.node[0].core_layer 	interests[0] 	259856
scalar tree_4_3_u06_r19_network.node[0].core_layer 	repo_load[0] 	255217
scalar tree_4_3_u06_r19_network.node[0].core_layer 	data[0] 	0
scalar tree_4_3_u06_r19_network.node[0].core_layer 	repo_int[0] 	255217
scalar tree_4_3_u06_r19_network.node[0].content_store 	p_hit[0] 	0.01785219506188
scalar tree_4_3_u06_r19_network.node[0].content_store 	hits[0] 	4639
scalar tree_4_3_u06_r19_network.node[0].content_store 	misses[0] 	255217
scalar tree_4_3_u06_r19_network.node[0].content_store 	decision_yes[0] 	255217
scalar tree_4_3_u06_r19_network.node[0].content_store 	decision_no[0] 	0
scalar tree_4_3_u06_r19_network.node[0].content_store 	decision_ratio[0] 	1
scalar tree_4_3_u06_r19_network.node[1].core_layer 	interests[1] 	137446
scalar tree_4_3_u06_r19_network.node[1].core_layer 	data[1] 	134204
scalar tree_4_3_u06_r19_network.node[1].content_store 	p_hit[1] 	0.023471035897734
scalar tree_4_3_u06_r19_network.node[1].content_store 	hits[1] 	3226
scalar tree_4_3_u06_r19_network.node[1].content_store 	misses[1] 	134220
scalar tree_4_3_u06_r19_network.node[1].content_store 	decision_yes[1] 	134204
scalar tree_4_3_u06_r19_network.node[1].content_store 	decision_no[1] 	0
scalar tree_4_3_u06_r19_network.node[1].content_store 	decision_ratio[1] 	1
scalar tree_4_3_u06_r19_network.node[2].core_layer 	interests[2] 	78587
scalar tree_4_3_u06_r19_network.node[2].core_layer 	data[2] 	76873
scalar tree_4_3_u06_r19_network.node[2].content_store 	p_hit[2] 	0.021759324061232
scalar tree_4_3_u06_r19_network.node[2].content_store 	hits[2] 	1710
scalar tree_4_3_u06_r19_network.node[2].content_store 	misses[2] 	76877
scalar tree_4_3_u06_r19_network.node[2].content_store 	decision_yes[2] 	76873
scalar tree_4_3_u06_r19_network.node[2].content_store 	decision_no[2] 	0
scalar tree_4_3_u06_r19_network.node[2].content_store 	decision_ratio[2] 	1
scalar tree_4_3_u06_r19_network.node[3].core_layer 	interests[3] 	49418
scalar tree_4_3_u06_r19_network.node[3].core_layer 	data[3] 	48779
scalar tree_4_3_u06_r19_network.node[3].content_store 	p_hit[3] 	0.012910275608078
scalar tree_4_3_u06_r19_network.node[3].content_store 	hits[3] 	638
scalar tree_4_3_u06_r19_network.node[3].content_store 	misses[3] 	48780
scalar tree_4_3_u06_r19_network.node[3].content_store 	decision_yes[3] 	48779
scalar tree_4_3_u06_r19_network.node[3].content_store 	decision_no[3] 	0
scalar tree_4_3_u06_r19_network.node[3].content_store 	decision_ratio[3] 	1
scalar tree_4_3_u06_r19_network.node[4].core_layer 	interests[4] 	40476
scalar tree_4_3_u06_r19_network.node[4].core_layer 	data[4] 	39201
scalar tree_4_3_u06_r19_network.node[4].content_store 	p_hit[4] 	0.031450736238759
scalar tree_4_3_u06_r19_network.node[4].content_store 	hits[4] 	1273
scalar tree_4_3_u06_r19_network.node[4].content_store 	misses[4] 	39203
scalar tree_4_3_u06_r19_network.node[4].content_store 	decision_yes[4] 	39201
scalar tree_4_3_u06_r19_network.node[4].content_store 	decision_no[4] 	0
scalar tree_4_3_u06_r19_network.node[4].content_store 	decision_ratio[4] 	1
scalar tree_4_3_u06_r19_network.node[5].core_layer 	interests[5] 	40263
scalar tree_4_3_u06_r19_network.node[5].core_layer 	data[5] 	38912
scalar tree_4_3_u06_r19_network.node[5].content_store 	p_hit[5] 	0.033579216650523
scalar tree_4_3_u06_r19_network.node[5].content_store 	hits[5] 	1352
scalar tree_4_3_u06_r19_network.node[5].content_store 	misses[5] 	38911
scalar tree_4_3_u06_r19_network.node[5].content_store 	decision_yes[5] 	38912
scalar tree_4_3_u06_r19_network.node[5].content_store 	decision_no[5] 	0
scalar tree_4_3_u06_r19_network.node[5].content_store 	decision_ratio[5] 	1
scalar tree_4_3_u06_r19_network.node[6].core_layer 	interests[6] 	10238
scalar tree_4_3_u06_r19_network.node[6].core_layer 	data[6] 	10230
scalar tree_4_3_u06_r19_network.node[6].content_store 	p_hit[6] 	0.00078140261769877
scalar tree_4_3_u06_r19_network.node[6].content_store 	hits[6] 	8
scalar tree_4_3_u06_r19_network.node[6].content_store 	misses[6] 	10230
scalar tree_4_3_u06_r19_network.node[6].content_store 	decision_yes[6] 	10230
scalar tree_4_3_u06_r19_network.node[6].content_store 	decision_no[6] 	0
scalar tree_4_3_u06_r19_network.node[6].content_store 	decision_ratio[6] 	1
scalar tree_4_3_u06_r19_network.node[7].core_layer 	interests[7] 	50859
scalar tree_4_3_u06_r19_network.node[7].core_layer 	data[7] 	49104
scalar tree_4_3_u06_r19_network.node[7].content_store 	p_hit[7] 	0.034389193653041
scalar tree_4_3_u06_r19_network.node[7].content_store 	hits[7] 	1749
scalar tree_4_3_u06_r19_network.node[7].content_store 	misses[7] 	49110
scalar tree_4_3_u06_r19_network.node[7].content_store 	decision_yes[7] 	49104
scalar tree_4_3_u06_r19_network.node[7].content_store 	decision_no[7] 	0
scalar tree_4_3_u06_r19_network.node[7].content_store 	decision_ratio[7] 	1
scalar tree_4_3_u06_r19_network.node[8].core_layer 	interests[8] 	20139
scalar tree_4_3_u06_r19_network.node[8].core_layer 	data[8] 	19669
scalar tree_4_3_u06_r19_network.node[8].content_store 	p_hit[8] 	0.023288147375739
scalar tree_4_3_u06_r19_network.node[8].content_store 	hits[8] 	469
scalar tree_4_3_u06_r19_network.node[8].content_store 	misses[8] 	19670
scalar tree_4_3_u06_r19_network.node[8].content_store 	decision_yes[8] 	19669
scalar tree_4_3_u06_r19_network.node[8].content_store 	decision_no[8] 	0
scalar tree_4_3_u06_r19_network.node[8].content_store 	decision_ratio[8] 	1
scalar tree_4_3_u06_r19_network.node[9].core_layer 	interests[9] 	20299
scalar tree_4_3_u06_r19_network.node[9].core_layer 	data[9] 	19840
scalar tree_4_3_u06_r19_network.node[9].content_store 	p_hit[9] 	0.022611951327652
scalar tree_4_3_u06_r19_network.node[9].content_store 	hits[9] 	459
scalar tree_4_3_u06_r19_network.node[9].content_store 	misses[9] 	19840
scalar tree_4_3_u06_r19_network.node[9].content_store 	decision_yes[9] 	19840
scalar tree_4_3_u06_r19_network.node[9].content_store 	decision_no[9] 	0
scalar tree_4_3_u06_r19_network.node[9].content_store 	decision_ratio[9] 	1
scalar tree_4_3_u06_r19_network.node[10].core_layer 	interests[10] 	40590
scalar tree_4_3_u06_r19_network.node[10].core_layer 	data[10] 	39262
scalar tree_4_3_u06_r19_network.node[10].content_store 	p_hit[10] 	0.032643508253264
scalar tree_4_3_u06_r19_network.node[10].content_store 	hits[10] 	1325
scalar tree_4_3_u06_r19_network.node[10].content_store 	misses[10] 	39265
scalar tree_4_3_u06_r19_network.node[10].content_store 	decision_yes[10] 	39262
scalar tree_4_3_u06_r19_network.node[10].content_store 	decision_no[10] 	0
scalar tree_4_3_u06_r19_network.node[10].content_store 	decision_ratio[10] 	1
scalar tree_4_3_u06_r19_network.node[11].core_layer 	interests[11] 	40333
scalar tree_4_3_u06_r19_network.node[11].core_layer 	data[11] 	39078
scalar tree_4_3_u06_r19_network.node[11].content_store 	p_hit[11] 	0.030942404482682
scalar tree_4_3_u06_r19_network.node[11].content_store 	hits[11] 	1248
scalar tree_4_3_u06_r19_network.node[11].content_store 	misses[11] 	39085
scalar tree_4_3_u06_r19_network.node[11].content_store 	decision_yes[11] 	39078
scalar tree_4_3_u06_r19_network.node[11].content_store 	decision_no[11] 	0
scalar tree_4_3_u06_r19_network.node[11].content_store 	decision_ratio[11] 	1
scalar tree_4_3_u06_r19_network.node[12].core_layer 	interests[12] 	10184
scalar tree_4_3_u06_r19_network.node[12].core_layer 	data[12] 	10156
scalar tree_4_3_u06_r19_network.node[12].content_store 	p_hit[12] 	0.0027494108405342
scalar tree_4_3_u06_r19_network.node[12].content_store 	hits[12] 	28
scalar tree_4_3_u06_r19_network.node[12].content_store 	misses[12] 	10156
scalar tree_4_3_u06_r19_network.node[12].content_store 	decision_yes[12] 	10156
scalar tree_4_3_u06_r19_network.node[12].content_store 	decision_no[12] 	0
scalar tree_4_3_u06_r19_network.node[12].content_store 	decision_ratio[12] 	1
scalar tree_4_3_u06_r19_network.node[13].core_layer 	interests[13] 	12001
scalar tree_4_3_u06_r19_network.node[13].core_layer 	data[13] 	10106
scalar tree_4_3_u06_r19_network.node[13].content_store 	p_hit[13] 	0.15782018165153
scalar tree_4_3_u06_r19_network.node[13].content_store 	hits[13] 	1894
scalar tree_4_3_u06_r19_network.node[13].content_store 	misses[13] 	10107
scalar tree_4_3_u06_r19_network.node[13].content_store 	decision_yes[13] 	10106
scalar tree_4_3_u06_r19_network.node[13].content_store 	decision_no[13] 	0
scalar tree_4_3_u06_r19_network.node[13].content_store 	decision_ratio[13] 	1
scalar tree_4_3_u06_r19_network.node[14].core_layer 	interests[14] 	11844
scalar tree_4_3_u06_r19_network.node[14].core_layer 	data[14] 	9989
scalar tree_4_3_u06_r19_network.node[14].content_store 	p_hit[14] 	0.15661938534279
scalar tree_4_3_u06_r19_network.node[14].content_store 	hits[14] 	1855
scalar tree_4_3_u06_r19_network.node[14].content_store 	misses[14] 	9989
scalar tree_4_3_u06_r19_network.node[14].content_store 	decision_yes[14] 	9989
scalar tree_4_3_u06_r19_network.node[14].content_store 	decision_no[14] 	0
scalar tree_4_3_u06_r19_network.node[14].content_store 	decision_ratio[14] 	1
scalar tree_4_3_u06_r19_network.node[15].core_layer 	interests[15] 	12017
scalar tree_4_3_u06_r19_network.node[15].core_layer 	data[15] 	10228
scalar tree_4_3_u06_r19_network.node[15].content_store 	p_hit[15] 	0.14878921527836
scalar tree_4_3_u06_r19_network.node[15].content_store 	hits[15] 	1788
scalar tree_4_3_u06_r19_network.node[15].content_store 	misses[15] 	10229
scalar tree_4_3_u06_r19_network.node[15].content_store 	decision_yes[15] 	10228
scalar tree_4_3_u06_r19_network.node[15].content_store 	decision_no[15] 	0
scalar tree_4_3_u06_r19_network.node[15].content_store 	decision_ratio[15] 	1
scalar tree_4_3_u06_r19_network.node[16].core_layer 	interests[16] 	12100
scalar tree_4_3_u06_r19_network.node[16].core_layer 	data[16] 	10237
scalar tree_4_3_u06_r19_network.node[16].content_store 	p_hit[16] 	0.15388429752066
scalar tree_4_3_u06_r19_network.node[16].content_store 	hits[16] 	1862
scalar tree_4_3_u06_r19_network.node[16].content_store 	misses[16] 	10238
scalar tree_4_3_u06_r19_network.node[16].content_store 	decision_yes[16] 	10237
scalar tree_4_3_u06_r19_network.node[16].content_store 	decision_no[16] 	0
scalar tree_4_3_u06_r19_network.node[16].content_store 	decision_ratio[16] 	1
scalar tree_4_3_u06_r19_network.node[17].core_layer 	interests[17] 	11965
scalar tree_4_3_u06_r19_network.node[17].core_layer 	data[17] 	10040
scalar tree_4_3_u06_r19_network.node[17].content_store 	p_hit[17] 	0.1608023401588
scalar tree_4_3_u06_r19_network.node[17].content_store 	hits[17] 	1924
scalar tree_4_3_u06_r19_network.node[17].content_store 	misses[17] 	10041
scalar tree_4_3_u06_r19_network.node[17].content_store 	decision_yes[17] 	10040
scalar tree_4_3_u06_r19_network.node[17].content_store 	decision_no[17] 	0
scalar tree_4_3_u06_r19_network.node[17].content_store 	decision_ratio[17] 	1
scalar tree_4_3_u06_r19_network.node[18].core_layer 	interests[18] 	11742
scalar tree_4_3_u06_r19_network.node[18].core_layer 	data[18] 	9832
scalar tree_4_3_u06_r19_network.node[18].content_store 	p_hit[18] 	0.16249361267246
scalar tree_4_3_u06_r19_network.node[18].content_store 	hits[18] 	1908
scalar tree_4_3_u06_r19_network.node[18].content_store 	misses[18] 	9834
scalar tree_4_3_u06_r19_network.node[18].content_store 	decision_yes[18] 	9832
scalar tree_4_3_u06_r19_network.node[18].content_store 	decision_no[18] 	0
scalar tree_4_3_u06_r19_network.node[18].content_store 	decision_ratio[18] 	1
scalar tree_4_3_u06_r19_network.node[19].core_layer 	interests[19] 	12000
scalar tree_4_3_u06_r19_network.node[19].core_layer 	data[19] 	10153
scalar tree_4_3_u06_r19_network.node[19].content_store 	p_hit[19] 	0.15383333333333
scalar tree_4_3_u06_r19_network.node[19].content_store 	hits[19] 	1846
scalar tree_4_3_u06_r19_network.node[19].content_store 	misses[19] 	10154
scalar tree_4_3_u06_r19_network.node[19].content_store 	decision_yes[19] 	10153
scalar tree_4_3_u06_r19_network.node[19].content_store 	decision_no[19] 	0
scalar tree_4_3_u06_r19_network.node[19].content_store 	decision_ratio[19] 	1
scalar tree_4_3_u06_r19_network.node[20].core_layer 	interests[20] 	12023
scalar tree_4_3_u06_r19_network.node[20].core_layer 	data[20] 	10155
scalar tree_4_3_u06_r19_network.node[20].content_store 	p_hit[20] 	0.15528570240373
scalar tree_4_3_u06_r19_network.node[20].content_store 	hits[20] 	1867
scalar tree_4_3_u06_r19_network.node[20].content_store 	misses[20] 	10156
scalar tree_4_3_u06_r19_network.node[20].content_store 	decision_yes[20] 	10155
scalar tree_4_3_u06_r19_network.node[20].content_store 	decision_no[20] 	0
scalar tree_4_3_u06_r19_network.node[20].content_store 	decision_ratio[20] 	1
scalar tree_4_3_u06_r19_network.node[21].core_layer 	interests[21] 	12085
scalar tree_4_3_u06_r19_network.node[21].core_layer 	data[21] 	10238
scalar tree_4_3_u06_r19_network.node[21].content_store 	p_hit[21] 	0.15275134464212
scalar tree_4_3_u06_r19_network.node[21].content_store 	hits[21] 	1846
scalar tree_4_3_u06_r19_network.node[21].content_store 	misses[21] 	10239
scalar tree_4_3_u06_r19_network.node[21].content_store 	decision_yes[21] 	10238
scalar tree_4_3_u06_r19_network.node[21].content_store 	decision_no[21] 	0
scalar tree_4_3_u06_r19_network.node[21].content_store 	decision_ratio[21] 	1
scalar tree_4_3_u06_r19_network.node[22].core_layer 	interests[22] 	11892
scalar tree_4_3_u06_r19_network.node[22].core_layer 	data[22] 	10005
scalar tree_4_3_u06_r19_network.node[22].content_store 	p_hit[22] 	0.1585940127817
scalar tree_4_3_u06_r19_network.node[22].content_store 	hits[22] 	1886
scalar tree_4_3_u06_r19_network.node[22].content_store 	misses[22] 	10006
scalar tree_4_3_u06_r19_network.node[22].content_store 	decision_yes[22] 	10005
scalar tree_4_3_u06_r19_network.node[22].content_store 	decision_no[22] 	0
scalar tree_4_3_u06_r19_network.node[22].content_store 	decision_ratio[22] 	1
scalar tree_4_3_u06_r19_network.node[23].core_layer 	interests[23] 	12119
scalar tree_4_3_u06_r19_network.node[23].core_layer 	data[23] 	10224
scalar tree_4_3_u06_r19_network.node[23].content_store 	p_hit[23] 	0.15628352174272
scalar tree_4_3_u06_r19_network.node[23].content_store 	hits[23] 	1894
scalar tree_4_3_u06_r19_network.node[23].content_store 	misses[23] 	10225
scalar tree_4_3_u06_r19_network.node[23].content_store 	decision_yes[23] 	10224
scalar tree_4_3_u06_r19_network.node[23].content_store 	decision_no[23] 	0
scalar tree_4_3_u06_r19_network.node[23].content_store 	decision_ratio[23] 	1
scalar tree_4_3_u06_r19_network.node[24].core_layer 	interests[24] 	12064
scalar tree_4_3_u06_r19_network.node[24].core_layer 	data[24] 	10223
scalar tree_4_3_u06_r19_network.node[24].content_store 	p_hit[24] 	0.15260278514589
scalar tree_4_3_u06_r19_network.node[24].content_store 	hits[24] 	1841
scalar tree_4_3_u06_r19_network.node[24].content_store 	misses[24] 	10223
scalar tree_4_3_u06_r19_network.node[24].content_store 	decision_yes[24] 	10223
scalar tree_4_3_u06_r19_network.node[24].content_store 	decision_no[24] 	0
scalar tree_4_3_u06_r19_network.node[24].content_store 	decision_ratio[24] 	1
scalar tree_4_3_u06_r19_network.node[25].core_layer 	interests[25] 	12218
scalar tree_4_3_u06_r19_network.node[25].core_layer 	data[25] 	10238
scalar tree_4_3_u06_r19_network.node[25].content_store 	p_hit[25] 	0.16189229006384
scalar tree_4_3_u06_r19_network.node[25].content_store 	hits[25] 	1978
scalar tree_4_3_u06_r19_network.node[25].content_store 	misses[25] 	10240
scalar tree_4_3_u06_r19_network.node[25].content_store 	decision_yes[25] 	10238
scalar tree_4_3_u06_r19_network.node[25].content_store 	decision_no[25] 	0
scalar tree_4_3_u06_r19_network.node[25].content_store 	decision_ratio[25] 	1
scalar tree_4_3_u06_r19_network.node[26].core_layer 	interests[26] 	12028
scalar tree_4_3_u06_r19_network.node[26].core_layer 	data[26] 	10177
scalar tree_4_3_u06_r19_network.node[26].content_store 	p_hit[26] 	0.1538909211839
scalar tree_4_3_u06_r19_network.node[26].content_store 	hits[26] 	1851
scalar tree_4_3_u06_r19_network.node[26].content_store 	misses[26] 	10177
scalar tree_4_3_u06_r19_network.node[26].content_store 	decision_yes[26] 	10177
scalar tree_4_3_u06_r19_network.node[26].content_store 	decision_no[26] 	0
scalar tree_4_3_u06_r19_network.node[26].content_store 	decision_ratio[26] 	1
scalar tree_4_3_u06_r19_network.node[27].core_layer 	interests[27] 	11924
scalar tree_4_3_u06_r19_network.node[27].core_layer 	data[27] 	9962
scalar tree_4_3_u06_r19_network.node[27].content_store 	p_hit[27] 	0.16454209996645
scalar tree_4_3_u06_r19_network.node[27].content_store 	hits[27] 	1962
scalar tree_4_3_u06_r19_network.node[27].content_store 	misses[27] 	9962
scalar tree_4_3_u06_r19_network.node[27].content_store 	decision_yes[27] 	9962
scalar tree_4_3_u06_r19_network.node[27].content_store 	decision_no[27] 	0
scalar tree_4_3_u06_r19_network.node[27].content_store 	decision_ratio[27] 	1
scalar tree_4_3_u06_r19_network.node[28].core_layer 	interests[28] 	12068
scalar tree_4_3_u06_r19_network.node[28].core_layer 	data[28] 	10169
scalar tree_4_3_u06_r19_network.node[28].content_store 	p_hit[28] 	0.15735830294995
scalar tree_4_3_u06_r19_network.node[28].content_store 	hits[28] 	1899
scalar tree_4_3_u06_r19_network.node[28].content_store 	misses[28] 	10169
scalar tree_4_3_u06_r19_network.node[28].content_store 	decision_yes[28] 	10169
scalar tree_4_3_u06_r19_network.node[28].content_store 	decision_no[28] 	0
scalar tree_4_3_u06_r19_network.node[28].content_store 	decision_ratio[28] 	1
scalar tree_4_3_u06_r19_network.node[29].core_layer 	interests[29] 	11979
scalar tree_4_3_u06_r19_network.node[29].core_layer 	data[29] 	10150
scalar tree_4_3_u06_r19_network.node[29].content_store 	p_hit[29] 	0.15260038400534
scalar tree_4_3_u06_r19_network.node[29].content_store 	hits[29] 	1828
scalar tree_4_3_u06_r19_network.node[29].content_store 	misses[29] 	10151
scalar tree_4_3_u06_r19_network.node[29].content_store 	decision_yes[29] 	10150
scalar tree_4_3_u06_r19_network.node[29].content_store 	decision_no[29] 	0
scalar tree_4_3_u06_r19_network.node[29].content_store 	decision_ratio[29] 	1
scalar tree_4_3_u06_r19_network.node[30].core_layer 	interests[30] 	12006
scalar tree_4_3_u06_r19_network.node[30].core_layer 	data[30] 	10149
scalar tree_4_3_u06_r19_network.node[30].content_store 	p_hit[30] 	0.15458937198068
scalar tree_4_3_u06_r19_network.node[30].content_store 	hits[30] 	1856
scalar tree_4_3_u06_r19_network.node[30].content_store 	misses[30] 	10150
scalar tree_4_3_u06_r19_network.node[30].content_store 	decision_yes[30] 	10149
scalar tree_4_3_u06_r19_network.node[30].content_store 	decision_no[30] 	0
scalar tree_4_3_u06_r19_network.node[30].content_store 	decision_ratio[30] 	1
scalar tree_4_3_u06_r19_network.node[31].core_layer 	interests[31] 	12026
scalar tree_4_3_u06_r19_network.node[31].core_layer 	data[31] 	10172
scalar tree_4_3_u06_r19_network.node[31].content_store 	p_hit[31] 	0.15408282055546
scalar tree_4_3_u06_r19_network.node[31].content_store 	hits[31] 	1853
scalar tree_4_3_u06_r19_network.node[31].content_store 	misses[31] 	10173
scalar tree_4_3_u06_r19_network.node[31].content_store 	decision_yes[31] 	10172
scalar tree_4_3_u06_r19_network.node[31].content_store 	decision_no[31] 	0
scalar tree_4_3_u06_r19_network.node[31].content_store 	decision_ratio[31] 	1
scalar tree_4_3_u06_r19_network.node[32].core_layer 	interests[32] 	12043
scalar tree_4_3_u06_r19_network.node[32].core_layer 	data[32] 	10160
scalar tree_4_3_u06_r19_network.node[32].content_store 	p_hit[32] 	0.15635638960392
scalar tree_4_3_u06_r19_network.node[32].content_store 	hits[32] 	1883
scalar tree_4_3_u06_r19_network.node[32].content_store 	misses[32] 	10160
scalar tree_4_3_u06_r19_network.node[32].content_store 	decision_yes[32] 	10160
scalar tree_4_3_u06_r19_network.node[32].content_store 	decision_no[32] 	0
scalar tree_4_3_u06_r19_network.node[32].content_store 	decision_ratio[32] 	1
scalar tree_4_3_u06_r19_network.node[33].core_layer 	interests[33] 	11972
scalar tree_4_3_u06_r19_network.node[33].core_layer 	data[33] 	10096
scalar tree_4_3_u06_r19_network.node[33].content_store 	p_hit[33] 	0.15669896424992
scalar tree_4_3_u06_r19_network.node[33].content_store 	hits[33] 	1876
scalar tree_4_3_u06_r19_network.node[33].content_store 	misses[33] 	10096
scalar tree_4_3_u06_r19_network.node[33].content_store 	decision_yes[33] 	10096
scalar tree_4_3_u06_r19_network.node[33].content_store 	decision_no[33] 	0
scalar tree_4_3_u06_r19_network.node[33].content_store 	decision_ratio[33] 	1
scalar tree_4_3_u06_r19_network.node[34].core_layer 	interests[34] 	11963
scalar tree_4_3_u06_r19_network.node[34].core_layer 	data[34] 	10157
scalar tree_4_3_u06_r19_network.node[34].content_store 	p_hit[34] 	0.15096547688707
scalar tree_4_3_u06_r19_network.node[34].content_store 	hits[34] 	1806
scalar tree_4_3_u06_r19_network.node[34].content_store 	misses[34] 	10157
scalar tree_4_3_u06_r19_network.node[34].content_store 	decision_yes[34] 	10157
scalar tree_4_3_u06_r19_network.node[34].content_store 	decision_no[34] 	0
scalar tree_4_3_u06_r19_network.node[34].content_store 	decision_ratio[34] 	1
scalar tree_4_3_u06_r19_network.node[35].core_layer 	interests[35] 	11899
scalar tree_4_3_u06_r19_network.node[35].core_layer 	data[35] 	9985
scalar tree_4_3_u06_r19_network.node[35].content_store 	p_hit[35] 	0.16085385326498
scalar tree_4_3_u06_r19_network.node[35].content_store 	hits[35] 	1914
scalar tree_4_3_u06_r19_network.node[35].content_store 	misses[35] 	9985
scalar tree_4_3_u06_r19_network.node[35].content_store 	decision_yes[35] 	9985
scalar tree_4_3_u06_r19_network.node[35].content_store 	decision_no[35] 	0
scalar tree_4_3_u06_r19_network.node[35].content_store 	decision_ratio[35] 	1
scalar tree_4_3_u06_r19_network.node[36].core_layer 	interests[36] 	12028
scalar tree_4_3_u06_r19_network.node[36].core_layer 	data[36] 	10123
scalar tree_4_3_u06_r19_network.node[36].content_store 	p_hit[36] 	0.15838044562687
scalar tree_4_3_u06_r19_network.node[36].content_store 	hits[36] 	1905
scalar tree_4_3_u06_r19_network.node[36].content_store 	misses[36] 	10123
scalar tree_4_3_u06_r19_network.node[36].content_store 	decision_yes[36] 	10123
scalar tree_4_3_u06_r19_network.node[36].content_store 	decision_no[36] 	0
scalar tree_4_3_u06_r19_network.node[36].content_store 	decision_ratio[36] 	1
scalar tree_4_3_u06_r19_network.node[37].core_layer 	interests[37] 	11976
scalar tree_4_3_u06_r19_network.node[37].core_layer 	data[37] 	10161
scalar tree_4_3_u06_r19_network.node[37].content_store 	p_hit[37] 	0.15146960587842
scalar tree_4_3_u06_r19_network.node[37].content_store 	hits[37] 	1814
scalar tree_4_3_u06_r19_network.node[37].content_store 	misses[37] 	10162
scalar tree_4_3_u06_r19_network.node[37].content_store 	decision_yes[37] 	10161
scalar tree_4_3_u06_r19_network.node[37].content_store 	decision_no[37] 	0
scalar tree_4_3_u06_r19_network.node[37].content_store 	decision_ratio[37] 	1
scalar tree_4_3_u06_r19_network.node[38].core_layer 	interests[38] 	11870
scalar tree_4_3_u06_r19_network.node[38].core_layer 	data[38] 	10068
scalar tree_4_3_u06_r19_network.node[38].content_store 	p_hit[38] 	0.15181128896377
scalar tree_4_3_u06_r19_network.node[38].content_store 	hits[38] 	1802
scalar tree_4_3_u06_r19_network.node[38].content_store 	misses[38] 	10068
scalar tree_4_3_u06_r19_network.node[38].content_store 	decision_yes[38] 	10068
scalar tree_4_3_u06_r19_network.node[38].content_store 	decision_no[38] 	0
scalar tree_4_3_u06_r19_network.node[38].content_store 	decision_ratio[38] 	1
scalar tree_4_3_u06_r19_network.node[39].core_layer 	interests[39] 	11962
scalar tree_4_3_u06_r19_network.node[39].core_layer 	data[39] 	10184
scalar tree_4_3_u06_r19_network.node[39].content_store 	p_hit[39] 	0.14855375355292
scalar tree_4_3_u06_r19_network.node[39].content_store 	hits[39] 	1777
scalar tree_4_3_u06_r19_network.node[39].content_store 	misses[39] 	10185
scalar tree_4_3_u06_r19_network.node[39].content_store 	decision_yes[39] 	10184
scalar tree_4_3_u06_r19_network.node[39].content_store 	decision_no[39] 	0
scalar tree_4_3_u06_r19_network.node[39].content_store 	decision_ratio[39] 	1
scalar tree_4_3_u06_r19_network.client[13] 	hdistance[13] 	3.2394166666667
scalar tree_4_3_u06_r19_network.client[13] 	downloads[13] 	12000
scalar tree_4_3_u06_r19_network.client[13] 	avg_time[13] 	0.004909254057
scalar tree_4_3_u06_r19_network.client[14] 	hdistance[14] 	3.2458628841608
scalar tree_4_3_u06_r19_network.client[14] 	downloads[14] 	11844
scalar tree_4_3_u06_r19_network.client[14] 	avg_time[14] 	0.004917075679
scalar tree_4_3_u06_r19_network.client[15] 	hdistance[15] 	3.2709720372836
scalar tree_4_3_u06_r19_network.client[15] 	downloads[15] 	12016
scalar tree_4_3_u06_r19_network.client[15] 	avg_time[15] 	0.004956561271
scalar tree_4_3_u06_r19_network.client[16] 	hdistance[16] 	3.2479543763947
scalar tree_4_3_u06_r19_network.client[16] 	downloads[16] 	12099
scalar tree_4_3_u06_r19_network.client[16] 	avg_time[16] 	0.004924676342
scalar tree_4_3_u06_r19_network.client[17] 	hdistance[17] 	3.2275994650619
scalar tree_4_3_u06_r19_network.client[17] 	downloads[17] 	11964
scalar tree_4_3_u06_r19_network.client[17] 	avg_time[17] 	0.004887922775
scalar tree_4_3_u06_r19_network.client[18] 	hdistance[18] 	3.2186541737649
scalar tree_4_3_u06_r19_network.client[18] 	downloads[18] 	11740
scalar tree_4_3_u06_r19_network.client[18] 	avg_time[18] 	0.004876064888
scalar tree_4_3_u06_r19_network.client[19] 	hdistance[19] 	3.2536878073173
scalar tree_4_3_u06_r19_network.client[19] 	downloads[19] 	11999
scalar tree_4_3_u06_r19_network.client[19] 	avg_time[19] 	0.00493065893
scalar tree_4_3_u06_r19_network.client[20] 	hdistance[20] 	3.2425553152554
scalar tree_4_3_u06_r19_network.client[20] 	downloads[20] 	12022
scalar tree_4_3_u06_r19_network.client[20] 	avg_time[20] 	0.004913572895
scalar tree_4_3_u06_r19_network.client[21] 	hdistance[21] 	3.31454816286
scalar tree_4_3_u06_r19_network.client[21] 	downloads[21] 	12084
scalar tree_4_3_u06_r19_network.client[21] 	avg_time[21] 	0.005020062825
scalar tree_4_3_u06_r19_network.client[22] 	hdistance[22] 	3.2355563030864
scalar tree_4_3_u06_r19_network.client[22] 	downloads[22] 	11891
scalar tree_4_3_u06_r19_network.client[22] 	avg_time[22] 	0.004900507572
scalar tree_4_3_u06_r19_network.client[23] 	hdistance[23] 	3.2521868295098
scalar tree_4_3_u06_r19_network.client[23] 	downloads[23] 	12118
scalar tree_4_3_u06_r19_network.client[23] 	avg_time[23] 	0.004922686055
scalar tree_4_3_u06_r19_network.client[24] 	hdistance[24] 	3.2601956233422
scalar tree_4_3_u06_r19_network.client[24] 	downloads[24] 	12064
scalar tree_4_3_u06_r19_network.client[24] 	avg_time[24] 	0.00493667781
scalar tree_4_3_u06_r19_network.client[25] 	hdistance[25] 	3.2116895874263
scalar tree_4_3_u06_r19_network.client[25] 	downloads[25] 	12216
scalar tree_4_3_u06_r19_network.client[25] 	avg_time[25] 	0.004865025385
scalar tree_4_3_u06_r19_network.client[26] 	hdistance[26] 	3.2649650814765
scalar tree_4_3_u06_r19_network.client[26] 	downloads[26] 	12028
scalar tree_4_3_u06_r19_network.client[26] 	avg_time[26] 	0.004956265707
scalar tree_4_3_u06_r19_network.client[27] 	hdistance[27] 	3.2184669573968
scalar tree_4_3_u06_r19_network.client[27] 	downloads[27] 	11924
scalar tree_4_3_u06_r19_network.client[27] 	avg_time[27] 	0.004887667138
scalar tree_4_3_u06_r19_network.client[28] 	hdistance[28] 	3.2342558833278
scalar tree_4_3_u06_r19_network.client[28] 	downloads[28] 	12068
scalar tree_4_3_u06_r19_network.client[28] 	avg_time[28] 	0.004901440181
scalar tree_4_3_u06_r19_network.client[29] 	hdistance[29] 	3.2800968442144
scalar tree_4_3_u06_r19_network.client[29] 	downloads[29] 	11978
scalar tree_4_3_u06_r19_network.client[29] 	avg_time[29] 	0.00497385761
scalar tree_4_3_u06_r19_network.client[30] 	hdistance[30] 	3.2583090379009
scalar tree_4_3_u06_r19_network.client[30] 	downloads[30] 	12005
scalar tree_4_3_u06_r19_network.client[30] 	avg_time[30] 	0.004944757612
scalar tree_4_3_u06_r19_network.client[31] 	hdistance[31] 	3.2639501039501
scalar tree_4_3_u06_r19_network.client[31] 	downloads[31] 	12025
scalar tree_4_3_u06_r19_network.client[31] 	avg_time[31] 	0.004946105131
scalar tree_4_3_u06_r19_network.client[32] 	hdistance[32] 	3.2628082703645
scalar tree_4_3_u06_r19_network.client[32] 	downloads[32] 	12043
scalar tree_4_3_u06_r19_network.client[32] 	avg_time[32] 	0.004942065245
scalar tree_4_3_u06_r19_network.client[33] 	hdistance[33] 	3.2531740728366
scalar tree_4_3_u06_r19_network.client[33] 	downloads[33] 	11972
scalar tree_4_3_u06_r19_network.client[33] 	avg_time[33] 	0.004929619353
scalar tree_4_3_u06_r19_network.client[34] 	hdistance[34] 	3.2735935802056
scalar tree_4_3_u06_r19_network.client[34] 	downloads[34] 	11963
scalar tree_4_3_u06_r19_network.client[34] 	avg_time[34] 	0.004962065221
scalar tree_4_3_u06_r19_network.client[35] 	hdistance[35] 	3.2306916547609
scalar tree_4_3_u06_r19_network.client[35] 	downloads[35] 	11899
scalar tree_4_3_u06_r19_network.client[35] 	avg_time[35] 	0.004898229833
scalar tree_4_3_u06_r19_network.client[36] 	hdistance[36] 	3.2437645493848
scalar tree_4_3_u06_r19_network.client[36] 	downloads[36] 	12028
scalar tree_4_3_u06_r19_network.client[36] 	avg_time[36] 	0.004916621395
scalar tree_4_3_u06_r19_network.client[37] 	hdistance[37] 	3.2820876826722
scalar tree_4_3_u06_r19_network.client[37] 	downloads[37] 	11975
scalar tree_4_3_u06_r19_network.client[37] 	avg_time[37] 	0.00497050017
scalar tree_4_3_u06_r19_network.client[38] 	hdistance[38] 	3.272198820556
scalar tree_4_3_u06_r19_network.client[38] 	downloads[38] 	11870
scalar tree_4_3_u06_r19_network.client[38] 	avg_time[38] 	0.00495890343
scalar tree_4_3_u06_r19_network.client[39] 	hdistance[39] 	3.3289022656969
scalar tree_4_3_u06_r19_network.client[39] 	downloads[39] 	11961
scalar tree_4_3_u06_r19_network.client[39] 	avg_time[39] 	0.005050218239
