version 2
run General-126-20160820-15:54:49-2644
attr a 0.9
attr cd lce
attr configname General
attr cr lru
attr datetime 20160820-15:54:49
attr experiment General
attr fsize 1
attr inifile hw5115/scenario_A/SPR-LCE.ini
attr iterationvars "$name=tree_4_3, $un=06, $rep=7, $cd=lce, $cr=lru, $fsize=1, $a=0.9, $sl=spr, $ttl=1000, $variance=0.05"
attr iterationvars2 "$name=tree_4_3, $un=06, $rep=7, $cd=lce, $cr=lru, $fsize=1, $a=0.9, $sl=spr, $ttl=1000, $variance=0.05, $repetition=0"
attr measurement "$name=tree_4_3, $un=06, $rep=7, $cd=lce, $cr=lru, $fsize=1, $a=0.9, $sl=spr, $ttl=1000, $variance=0.05"
attr name tree_4_3
attr network networks.${name}_u${un}_r${rep}_network
attr processid 2644
attr rep 7
attr repetition 0
attr replication #0
attr resultdir results
attr runnumber 126
attr seedset 7
attr sl spr
attr ttl 1000
attr un 06
attr variance 0.05

scalar . 	a 	0.9
scalar . 	fsize 	1
scalar . 	rep 	7
scalar . 	ttl 	1000
scalar . 	un 	06
scalar . 	variance 	0.05
scalar tree_4_3_u06_r7_network.content_distribution 	repo-0 	0
scalar tree_4_3_u06_r7_network.content_distribution 	client-0 	13
scalar tree_4_3_u06_r7_network.content_distribution 	client-1 	14
scalar tree_4_3_u06_r7_network.content_distribution 	client-2 	15
scalar tree_4_3_u06_r7_network.content_distribution 	client-3 	16
scalar tree_4_3_u06_r7_network.content_distribution 	client-4 	17
scalar tree_4_3_u06_r7_network.content_distribution 	client-5 	18
scalar tree_4_3_u06_r7_network.content_distribution 	client-6 	19
scalar tree_4_3_u06_r7_network.content_distribution 	client-7 	20
scalar tree_4_3_u06_r7_network.content_distribution 	client-8 	21
scalar tree_4_3_u06_r7_network.content_distribution 	client-9 	22
scalar tree_4_3_u06_r7_network.content_distribution 	client-10 	23
scalar tree_4_3_u06_r7_network.content_distribution 	client-11 	24
scalar tree_4_3_u06_r7_network.content_distribution 	client-12 	25
scalar tree_4_3_u06_r7_network.content_distribution 	client-13 	26
scalar tree_4_3_u06_r7_network.content_distribution 	client-14 	27
scalar tree_4_3_u06_r7_network.content_distribution 	client-15 	28
scalar tree_4_3_u06_r7_network.content_distribution 	client-16 	29
scalar tree_4_3_u06_r7_network.content_distribution 	client-17 	30
scalar tree_4_3_u06_r7_network.content_distribution 	client-18 	31
scalar tree_4_3_u06_r7_network.content_distribution 	client-19 	32
scalar tree_4_3_u06_r7_network.content_distribution 	client-20 	33
scalar tree_4_3_u06_r7_network.content_distribution 	client-21 	34
scalar tree_4_3_u06_r7_network.content_distribution 	client-22 	35
scalar tree_4_3_u06_r7_network.content_distribution 	client-23 	36
scalar tree_4_3_u06_r7_network.content_distribution 	client-24 	37
scalar tree_4_3_u06_r7_network.content_distribution 	client-25 	38
scalar tree_4_3_u06_r7_network.content_distribution 	client-26 	39
scalar tree_4_3_u06_r7_network.content_distribution 	repo-0_card 	100000
scalar tree_4_3_u06_r7_network.content_distribution 	repo-0_price 	0
scalar tree_4_3_u06_r7_network.statistics 	stabilization_time 	557.7
scalar tree_4_3_u06_r7_network.statistics 	p_hit 	0.111620180493
scalar tree_4_3_u06_r7_network.statistics 	interests 	28071.125
scalar tree_4_3_u06_r7_network.statistics 	data 	19971.2
scalar tree_4_3_u06_r7_network.statistics 	hdistance 	3.255352112373
scalar tree_4_3_u06_r7_network.statistics 	avg_time 	0.004931690684
scalar tree_4_3_u06_r7_network.statistics 	downloads 	323974
scalar tree_4_3_u06_r7_network.statistics 	total_cost 	0
scalar tree_4_3_u06_r7_network.statistics 	total_replicas 	100000
scalar tree_4_3_u06_r7_network.statistics 	inner_hit 	0.2108379067456
scalar tree_4_3_u06_r7_network.node[0].core_layer 	interests[0] 	259608
scalar tree_4_3_u06_r7_network.node[0].core_layer 	repo_load[0] 	255668
scalar tree_4_3_u06_r7_network.node[0].core_layer 	data[0] 	0
scalar tree_4_3_u06_r7_network.node[0].core_layer 	repo_int[0] 	255668
scalar tree_4_3_u06_r7_network.node[0].content_store 	p_hit[0] 	0.015176727989892
scalar tree_4_3_u06_r7_network.node[0].content_store 	hits[0] 	3940
scalar tree_4_3_u06_r7_network.node[0].content_store 	misses[0] 	255668
scalar tree_4_3_u06_r7_network.node[0].content_store 	decision_yes[0] 	255668
scalar tree_4_3_u06_r7_network.node[0].content_store 	decision_no[0] 	0
scalar tree_4_3_u06_r7_network.node[0].content_store 	decision_ratio[0] 	1
scalar tree_4_3_u06_r7_network.node[1].core_layer 	interests[1] 	137814
scalar tree_4_3_u06_r7_network.node[1].core_layer 	data[1] 	134477
scalar tree_4_3_u06_r7_network.node[1].content_store 	p_hit[1] 	0.024061416111571
scalar tree_4_3_u06_r7_network.node[1].content_store 	hits[1] 	3316
scalar tree_4_3_u06_r7_network.node[1].content_store 	misses[1] 	134498
scalar tree_4_3_u06_r7_network.node[1].content_store 	decision_yes[1] 	134477
scalar tree_4_3_u06_r7_network.node[1].content_store 	decision_no[1] 	0
scalar tree_4_3_u06_r7_network.node[1].content_store 	decision_ratio[1] 	1
scalar tree_4_3_u06_r7_network.node[2].core_layer 	interests[2] 	117912
scalar tree_4_3_u06_r7_network.node[2].core_layer 	data[2] 	115114
scalar tree_4_3_u06_r7_network.node[2].content_store 	p_hit[2] 	0.023585385711378
scalar tree_4_3_u06_r7_network.node[2].content_store 	hits[2] 	2781
scalar tree_4_3_u06_r7_network.node[2].content_store 	misses[2] 	115131
scalar tree_4_3_u06_r7_network.node[2].content_store 	decision_yes[2] 	115114
scalar tree_4_3_u06_r7_network.node[2].content_store 	decision_no[2] 	0
scalar tree_4_3_u06_r7_network.node[2].content_store 	decision_ratio[2] 	1
scalar tree_4_3_u06_r7_network.node[3].core_layer 	interests[3] 	10017
scalar tree_4_3_u06_r7_network.node[3].core_layer 	data[3] 	10016
scalar tree_4_3_u06_r7_network.node[3].content_store 	p_hit[3] 	9.9830288509534e-05
scalar tree_4_3_u06_r7_network.node[3].content_store 	hits[3] 	1
scalar tree_4_3_u06_r7_network.node[3].content_store 	misses[3] 	10016
scalar tree_4_3_u06_r7_network.node[3].content_store 	decision_yes[3] 	10016
scalar tree_4_3_u06_r7_network.node[3].content_store 	decision_no[3] 	0
scalar tree_4_3_u06_r7_network.node[3].content_store 	decision_ratio[3] 	1
scalar tree_4_3_u06_r7_network.node[4].core_layer 	interests[4] 	50762
scalar tree_4_3_u06_r7_network.node[4].core_layer 	data[4] 	49148
scalar tree_4_3_u06_r7_network.node[4].content_store 	p_hit[4] 	0.031696938654899
scalar tree_4_3_u06_r7_network.node[4].content_store 	hits[4] 	1609
scalar tree_4_3_u06_r7_network.node[4].content_store 	misses[4] 	49153
scalar tree_4_3_u06_r7_network.node[4].content_store 	decision_yes[4] 	49148
scalar tree_4_3_u06_r7_network.node[4].content_store 	decision_no[4] 	0
scalar tree_4_3_u06_r7_network.node[4].content_store 	decision_ratio[4] 	1
scalar tree_4_3_u06_r7_network.node[5].core_layer 	interests[5] 	30389
scalar tree_4_3_u06_r7_network.node[5].core_layer 	data[5] 	29477
scalar tree_4_3_u06_r7_network.node[5].content_store 	p_hit[5] 	0.029945045904768
scalar tree_4_3_u06_r7_network.node[5].content_store 	hits[5] 	910
scalar tree_4_3_u06_r7_network.node[5].content_store 	misses[5] 	29479
scalar tree_4_3_u06_r7_network.node[5].content_store 	decision_yes[5] 	29477
scalar tree_4_3_u06_r7_network.node[5].content_store 	decision_no[5] 	0
scalar tree_4_3_u06_r7_network.node[5].content_store 	decision_ratio[5] 	1
scalar tree_4_3_u06_r7_network.node[6].core_layer 	interests[6] 	10054
scalar tree_4_3_u06_r7_network.node[6].core_layer 	data[6] 	10034
scalar tree_4_3_u06_r7_network.node[6].content_store 	p_hit[6] 	0.0019892580067635
scalar tree_4_3_u06_r7_network.node[6].content_store 	hits[6] 	20
scalar tree_4_3_u06_r7_network.node[6].content_store 	misses[6] 	10034
scalar tree_4_3_u06_r7_network.node[6].content_store 	decision_yes[6] 	10034
scalar tree_4_3_u06_r7_network.node[6].content_store 	decision_no[6] 	0
scalar tree_4_3_u06_r7_network.node[6].content_store 	decision_ratio[6] 	1
scalar tree_4_3_u06_r7_network.node[7].core_layer 	interests[7] 	40482
scalar tree_4_3_u06_r7_network.node[7].core_layer 	data[7] 	39176
scalar tree_4_3_u06_r7_network.node[7].content_store 	p_hit[7] 	0.032187144903908
scalar tree_4_3_u06_r7_network.node[7].content_store 	hits[7] 	1303
scalar tree_4_3_u06_r7_network.node[7].content_store 	misses[7] 	39179
scalar tree_4_3_u06_r7_network.node[7].content_store 	decision_yes[7] 	39176
scalar tree_4_3_u06_r7_network.node[7].content_store 	decision_no[7] 	0
scalar tree_4_3_u06_r7_network.node[7].content_store 	decision_ratio[7] 	1
scalar tree_4_3_u06_r7_network.node[8].core_layer 	interests[8] 	40575
scalar tree_4_3_u06_r7_network.node[8].core_layer 	data[8] 	39282
scalar tree_4_3_u06_r7_network.node[8].content_store 	p_hit[8] 	0.031817621688232
scalar tree_4_3_u06_r7_network.node[8].content_store 	hits[8] 	1291
scalar tree_4_3_u06_r7_network.node[8].content_store 	misses[8] 	39284
scalar tree_4_3_u06_r7_network.node[8].content_store 	decision_yes[8] 	39282
scalar tree_4_3_u06_r7_network.node[8].content_store 	decision_no[8] 	0
scalar tree_4_3_u06_r7_network.node[8].content_store 	decision_ratio[8] 	1
scalar tree_4_3_u06_r7_network.node[9].core_layer 	interests[9] 	10029
scalar tree_4_3_u06_r7_network.node[9].core_layer 	data[9] 	10007
scalar tree_4_3_u06_r7_network.node[9].content_store 	p_hit[9] 	0.0021936384484994
scalar tree_4_3_u06_r7_network.node[9].content_store 	hits[9] 	22
scalar tree_4_3_u06_r7_network.node[9].content_store 	misses[9] 	10007
scalar tree_4_3_u06_r7_network.node[9].content_store 	decision_yes[9] 	10007
scalar tree_4_3_u06_r7_network.node[9].content_store 	decision_no[9] 	0
scalar tree_4_3_u06_r7_network.node[9].content_store 	decision_ratio[9] 	1
scalar tree_4_3_u06_r7_network.node[10].core_layer 	interests[10] 	50809
scalar tree_4_3_u06_r7_network.node[10].core_layer 	data[10] 	49154
scalar tree_4_3_u06_r7_network.node[10].content_store 	p_hit[10] 	0.032454880040938
scalar tree_4_3_u06_r7_network.node[10].content_store 	hits[10] 	1649
scalar tree_4_3_u06_r7_network.node[10].content_store 	misses[10] 	49160
scalar tree_4_3_u06_r7_network.node[10].content_store 	decision_yes[10] 	49154
scalar tree_4_3_u06_r7_network.node[10].content_store 	decision_no[10] 	0
scalar tree_4_3_u06_r7_network.node[10].content_store 	decision_ratio[10] 	1
scalar tree_4_3_u06_r7_network.node[11].core_layer 	interests[11] 	30345
scalar tree_4_3_u06_r7_network.node[11].core_layer 	data[11] 	29447
scalar tree_4_3_u06_r7_network.node[11].content_store 	p_hit[11] 	0.029593013676059
scalar tree_4_3_u06_r7_network.node[11].content_store 	hits[11] 	898
scalar tree_4_3_u06_r7_network.node[11].content_store 	misses[11] 	29447
scalar tree_4_3_u06_r7_network.node[11].content_store 	decision_yes[11] 	29447
scalar tree_4_3_u06_r7_network.node[11].content_store 	decision_no[11] 	0
scalar tree_4_3_u06_r7_network.node[11].content_store 	decision_ratio[11] 	1
scalar tree_4_3_u06_r7_network.node[12].core_layer 	interests[12] 	10055
scalar tree_4_3_u06_r7_network.node[12].core_layer 	data[12] 	10017
scalar tree_4_3_u06_r7_network.node[12].content_store 	p_hit[12] 	0.0037792143212332
scalar tree_4_3_u06_r7_network.node[12].content_store 	hits[12] 	38
scalar tree_4_3_u06_r7_network.node[12].content_store 	misses[12] 	10017
scalar tree_4_3_u06_r7_network.node[12].content_store 	decision_yes[12] 	10017
scalar tree_4_3_u06_r7_network.node[12].content_store 	decision_no[12] 	0
scalar tree_4_3_u06_r7_network.node[12].content_store 	decision_ratio[12] 	1
scalar tree_4_3_u06_r7_network.node[13].core_layer 	interests[13] 	12048
scalar tree_4_3_u06_r7_network.node[13].core_layer 	data[13] 	10221
scalar tree_4_3_u06_r7_network.node[13].content_store 	p_hit[13] 	0.15164342629482
scalar tree_4_3_u06_r7_network.node[13].content_store 	hits[13] 	1827
scalar tree_4_3_u06_r7_network.node[13].content_store 	misses[13] 	10221
scalar tree_4_3_u06_r7_network.node[13].content_store 	decision_yes[13] 	10221
scalar tree_4_3_u06_r7_network.node[13].content_store 	decision_no[13] 	0
scalar tree_4_3_u06_r7_network.node[13].content_store 	decision_ratio[13] 	1
scalar tree_4_3_u06_r7_network.node[14].core_layer 	interests[14] 	11952
scalar tree_4_3_u06_r7_network.node[14].core_layer 	data[14] 	10094
scalar tree_4_3_u06_r7_network.node[14].content_store 	p_hit[14] 	0.15545515394913
scalar tree_4_3_u06_r7_network.node[14].content_store 	hits[14] 	1858
scalar tree_4_3_u06_r7_network.node[14].content_store 	misses[14] 	10094
scalar tree_4_3_u06_r7_network.node[14].content_store 	decision_yes[14] 	10094
scalar tree_4_3_u06_r7_network.node[14].content_store 	decision_no[14] 	0
scalar tree_4_3_u06_r7_network.node[14].content_store 	decision_ratio[14] 	1
scalar tree_4_3_u06_r7_network.node[15].core_layer 	interests[15] 	12089
scalar tree_4_3_u06_r7_network.node[15].core_layer 	data[15] 	10207
scalar tree_4_3_u06_r7_network.node[15].content_store 	p_hit[15] 	0.15567871618827
scalar tree_4_3_u06_r7_network.node[15].content_store 	hits[15] 	1882
scalar tree_4_3_u06_r7_network.node[15].content_store 	misses[15] 	10207
scalar tree_4_3_u06_r7_network.node[15].content_store 	decision_yes[15] 	10207
scalar tree_4_3_u06_r7_network.node[15].content_store 	decision_no[15] 	0
scalar tree_4_3_u06_r7_network.node[15].content_store 	decision_ratio[15] 	1
scalar tree_4_3_u06_r7_network.node[16].core_layer 	interests[16] 	11826
scalar tree_4_3_u06_r7_network.node[16].core_layer 	data[16] 	10070
scalar tree_4_3_u06_r7_network.node[16].content_store 	p_hit[16] 	0.14831726703873
scalar tree_4_3_u06_r7_network.node[16].content_store 	hits[16] 	1754
scalar tree_4_3_u06_r7_network.node[16].content_store 	misses[16] 	10072
scalar tree_4_3_u06_r7_network.node[16].content_store 	decision_yes[16] 	10070
scalar tree_4_3_u06_r7_network.node[16].content_store 	decision_no[16] 	0
scalar tree_4_3_u06_r7_network.node[16].content_store 	decision_ratio[16] 	1
scalar tree_4_3_u06_r7_network.node[17].core_layer 	interests[17] 	12151
scalar tree_4_3_u06_r7_network.node[17].core_layer 	data[17] 	10262
scalar tree_4_3_u06_r7_network.node[17].content_store 	p_hit[17] 	0.15537815817628
scalar tree_4_3_u06_r7_network.node[17].content_store 	hits[17] 	1888
scalar tree_4_3_u06_r7_network.node[17].content_store 	misses[17] 	10263
scalar tree_4_3_u06_r7_network.node[17].content_store 	decision_yes[17] 	10262
scalar tree_4_3_u06_r7_network.node[17].content_store 	decision_no[17] 	0
scalar tree_4_3_u06_r7_network.node[17].content_store 	decision_ratio[17] 	1
scalar tree_4_3_u06_r7_network.node[18].core_layer 	interests[18] 	11941
scalar tree_4_3_u06_r7_network.node[18].core_layer 	data[18] 	10088
scalar tree_4_3_u06_r7_network.node[18].content_store 	p_hit[18] 	0.15509588811657
scalar tree_4_3_u06_r7_network.node[18].content_store 	hits[18] 	1852
scalar tree_4_3_u06_r7_network.node[18].content_store 	misses[18] 	10089
scalar tree_4_3_u06_r7_network.node[18].content_store 	decision_yes[18] 	10088
scalar tree_4_3_u06_r7_network.node[18].content_store 	decision_no[18] 	0
scalar tree_4_3_u06_r7_network.node[18].content_store 	decision_ratio[18] 	1
scalar tree_4_3_u06_r7_network.node[19].core_layer 	interests[19] 	12085
scalar tree_4_3_u06_r7_network.node[19].core_layer 	data[19] 	10170
scalar tree_4_3_u06_r7_network.node[19].content_store 	p_hit[19] 	0.15837815473728
scalar tree_4_3_u06_r7_network.node[19].content_store 	hits[19] 	1914
scalar tree_4_3_u06_r7_network.node[19].content_store 	misses[19] 	10171
scalar tree_4_3_u06_r7_network.node[19].content_store 	decision_yes[19] 	10170
scalar tree_4_3_u06_r7_network.node[19].content_store 	decision_no[19] 	0
scalar tree_4_3_u06_r7_network.node[19].content_store 	decision_ratio[19] 	1
scalar tree_4_3_u06_r7_network.node[20].core_layer 	interests[20] 	11801
scalar tree_4_3_u06_r7_network.node[20].core_layer 	data[20] 	10038
scalar tree_4_3_u06_r7_network.node[20].content_store 	p_hit[20] 	0.14939411914245
scalar tree_4_3_u06_r7_network.node[20].content_store 	hits[20] 	1763
scalar tree_4_3_u06_r7_network.node[20].content_store 	misses[20] 	10038
scalar tree_4_3_u06_r7_network.node[20].content_store 	decision_yes[20] 	10038
scalar tree_4_3_u06_r7_network.node[20].content_store 	decision_no[20] 	0
scalar tree_4_3_u06_r7_network.node[20].content_store 	decision_ratio[20] 	1
scalar tree_4_3_u06_r7_network.node[21].core_layer 	interests[21] 	11982
scalar tree_4_3_u06_r7_network.node[21].core_layer 	data[21] 	10053
scalar tree_4_3_u06_r7_network.node[21].content_store 	p_hit[21] 	0.16082457018862
scalar tree_4_3_u06_r7_network.node[21].content_store 	hits[21] 	1927
scalar tree_4_3_u06_r7_network.node[21].content_store 	misses[21] 	10055
scalar tree_4_3_u06_r7_network.node[21].content_store 	decision_yes[21] 	10053
scalar tree_4_3_u06_r7_network.node[21].content_store 	decision_no[21] 	0
scalar tree_4_3_u06_r7_network.node[21].content_store 	decision_ratio[21] 	1
scalar tree_4_3_u06_r7_network.node[22].core_layer 	interests[22] 	11995
scalar tree_4_3_u06_r7_network.node[22].core_layer 	data[22] 	10068
scalar tree_4_3_u06_r7_network.node[22].content_store 	p_hit[22] 	0.16065027094623
scalar tree_4_3_u06_r7_network.node[22].content_store 	hits[22] 	1927
scalar tree_4_3_u06_r7_network.node[22].content_store 	misses[22] 	10068
scalar tree_4_3_u06_r7_network.node[22].content_store 	decision_yes[22] 	10068
scalar tree_4_3_u06_r7_network.node[22].content_store 	decision_no[22] 	0
scalar tree_4_3_u06_r7_network.node[22].content_store 	decision_ratio[22] 	1
scalar tree_4_3_u06_r7_network.node[23].core_layer 	interests[23] 	11998
scalar tree_4_3_u06_r7_network.node[23].core_layer 	data[23] 	10091
scalar tree_4_3_u06_r7_network.node[23].content_store 	p_hit[23] 	0.15869311551925
scalar tree_4_3_u06_r7_network.node[23].content_store 	hits[23] 	1904
scalar tree_4_3_u06_r7_network.node[23].content_store 	misses[23] 	10094
scalar tree_4_3_u06_r7_network.node[23].content_store 	decision_yes[23] 	10091
scalar tree_4_3_u06_r7_network.node[23].content_store 	decision_no[23] 	0
scalar tree_4_3_u06_r7_network.node[23].content_store 	decision_ratio[23] 	1
scalar tree_4_3_u06_r7_network.node[24].core_layer 	interests[24] 	12167
scalar tree_4_3_u06_r7_network.node[24].core_layer 	data[24] 	10235
scalar tree_4_3_u06_r7_network.node[24].content_store 	p_hit[24] 	0.15879017013233
scalar tree_4_3_u06_r7_network.node[24].content_store 	hits[24] 	1932
scalar tree_4_3_u06_r7_network.node[24].content_store 	misses[24] 	10235
scalar tree_4_3_u06_r7_network.node[24].content_store 	decision_yes[24] 	10235
scalar tree_4_3_u06_r7_network.node[24].content_store 	decision_no[24] 	0
scalar tree_4_3_u06_r7_network.node[24].content_store 	decision_ratio[24] 	1
scalar tree_4_3_u06_r7_network.node[25].core_layer 	interests[25] 	11921
scalar tree_4_3_u06_r7_network.node[25].core_layer 	data[25] 	10114
scalar tree_4_3_u06_r7_network.node[25].content_store 	p_hit[25] 	0.1515812431843
scalar tree_4_3_u06_r7_network.node[25].content_store 	hits[25] 	1807
scalar tree_4_3_u06_r7_network.node[25].content_store 	misses[25] 	10114
scalar tree_4_3_u06_r7_network.node[25].content_store 	decision_yes[25] 	10114
scalar tree_4_3_u06_r7_network.node[25].content_store 	decision_no[25] 	0
scalar tree_4_3_u06_r7_network.node[25].content_store 	decision_ratio[25] 	1
scalar tree_4_3_u06_r7_network.node[26].core_layer 	interests[26] 	11988
scalar tree_4_3_u06_r7_network.node[26].core_layer 	data[26] 	10063
scalar tree_4_3_u06_r7_network.node[26].content_store 	p_hit[26] 	0.16041041041041
scalar tree_4_3_u06_r7_network.node[26].content_store 	hits[26] 	1923
scalar tree_4_3_u06_r7_network.node[26].content_store 	misses[26] 	10065
scalar tree_4_3_u06_r7_network.node[26].content_store 	decision_yes[26] 	10063
scalar tree_4_3_u06_r7_network.node[26].content_store 	decision_no[26] 	0
scalar tree_4_3_u06_r7_network.node[26].content_store 	decision_ratio[26] 	1
scalar tree_4_3_u06_r7_network.node[27].core_layer 	interests[27] 	12127
scalar tree_4_3_u06_r7_network.node[27].core_layer 	data[27] 	10326
scalar tree_4_3_u06_r7_network.node[27].content_store 	p_hit[27] 	0.14826420384267
scalar tree_4_3_u06_r7_network.node[27].content_store 	hits[27] 	1798
scalar tree_4_3_u06_r7_network.node[27].content_store 	misses[27] 	10329
scalar tree_4_3_u06_r7_network.node[27].content_store 	decision_yes[27] 	10326
scalar tree_4_3_u06_r7_network.node[27].content_store 	decision_no[27] 	0
scalar tree_4_3_u06_r7_network.node[27].content_store 	decision_ratio[27] 	1
scalar tree_4_3_u06_r7_network.node[28].core_layer 	interests[28] 	12013
scalar tree_4_3_u06_r7_network.node[28].core_layer 	data[28] 	10088
scalar tree_4_3_u06_r7_network.node[28].content_store 	p_hit[28] 	0.16032631316074
scalar tree_4_3_u06_r7_network.node[28].content_store 	hits[28] 	1926
scalar tree_4_3_u06_r7_network.node[28].content_store 	misses[28] 	10087
scalar tree_4_3_u06_r7_network.node[28].content_store 	decision_yes[28] 	10088
scalar tree_4_3_u06_r7_network.node[28].content_store 	decision_no[28] 	0
scalar tree_4_3_u06_r7_network.node[28].content_store 	decision_ratio[28] 	1
scalar tree_4_3_u06_r7_network.node[29].core_layer 	interests[29] 	11988
scalar tree_4_3_u06_r7_network.node[29].core_layer 	data[29] 	10072
scalar tree_4_3_u06_r7_network.node[29].content_store 	p_hit[29] 	0.15982649315983
scalar tree_4_3_u06_r7_network.node[29].content_store 	hits[29] 	1916
scalar tree_4_3_u06_r7_network.node[29].content_store 	misses[29] 	10072
scalar tree_4_3_u06_r7_network.node[29].content_store 	decision_yes[29] 	10072
scalar tree_4_3_u06_r7_network.node[29].content_store 	decision_no[29] 	0
scalar tree_4_3_u06_r7_network.node[29].content_store 	decision_ratio[29] 	1
scalar tree_4_3_u06_r7_network.node[30].core_layer 	interests[30] 	11920
scalar tree_4_3_u06_r7_network.node[30].core_layer 	data[30] 	10029
scalar tree_4_3_u06_r7_network.node[30].content_store 	p_hit[30] 	0.15864093959732
scalar tree_4_3_u06_r7_network.node[30].content_store 	hits[30] 	1891
scalar tree_4_3_u06_r7_network.node[30].content_store 	misses[30] 	10029
scalar tree_4_3_u06_r7_network.node[30].content_store 	decision_yes[30] 	10029
scalar tree_4_3_u06_r7_network.node[30].content_store 	decision_no[30] 	0
scalar tree_4_3_u06_r7_network.node[30].content_store 	decision_ratio[30] 	1
scalar tree_4_3_u06_r7_network.node[31].core_layer 	interests[31] 	11920
scalar tree_4_3_u06_r7_network.node[31].core_layer 	data[31] 	10072
scalar tree_4_3_u06_r7_network.node[31].content_store 	p_hit[31] 	0.15503355704698
scalar tree_4_3_u06_r7_network.node[31].content_store 	hits[31] 	1848
scalar tree_4_3_u06_r7_network.node[31].content_store 	misses[31] 	10072
scalar tree_4_3_u06_r7_network.node[31].content_store 	decision_yes[31] 	10072
scalar tree_4_3_u06_r7_network.node[31].content_store 	decision_no[31] 	0
scalar tree_4_3_u06_r7_network.node[31].content_store 	decision_ratio[31] 	1
scalar tree_4_3_u06_r7_network.node[32].core_layer 	interests[32] 	11917
scalar tree_4_3_u06_r7_network.node[32].core_layer 	data[32] 	10028
scalar tree_4_3_u06_r7_network.node[32].content_store 	p_hit[32] 	0.15842913484937
scalar tree_4_3_u06_r7_network.node[32].content_store 	hits[32] 	1888
scalar tree_4_3_u06_r7_network.node[32].content_store 	misses[32] 	10029
scalar tree_4_3_u06_r7_network.node[32].content_store 	decision_yes[32] 	10028
scalar tree_4_3_u06_r7_network.node[32].content_store 	decision_no[32] 	0
scalar tree_4_3_u06_r7_network.node[32].content_store 	decision_ratio[32] 	1
scalar tree_4_3_u06_r7_network.node[33].core_layer 	interests[33] 	12119
scalar tree_4_3_u06_r7_network.node[33].core_layer 	data[33] 	10206
scalar tree_4_3_u06_r7_network.node[33].content_store 	p_hit[33] 	0.15785130786369
scalar tree_4_3_u06_r7_network.node[33].content_store 	hits[33] 	1913
scalar tree_4_3_u06_r7_network.node[33].content_store 	misses[33] 	10206
scalar tree_4_3_u06_r7_network.node[33].content_store 	decision_yes[33] 	10206
scalar tree_4_3_u06_r7_network.node[33].content_store 	decision_no[33] 	0
scalar tree_4_3_u06_r7_network.node[33].content_store 	decision_ratio[33] 	1
scalar tree_4_3_u06_r7_network.node[34].core_layer 	interests[34] 	11996
scalar tree_4_3_u06_r7_network.node[34].core_layer 	data[34] 	10209
scalar tree_4_3_u06_r7_network.node[34].content_store 	p_hit[34] 	0.148882960987
scalar tree_4_3_u06_r7_network.node[34].content_store 	hits[34] 	1786
scalar tree_4_3_u06_r7_network.node[34].content_store 	misses[34] 	10210
scalar tree_4_3_u06_r7_network.node[34].content_store 	decision_yes[34] 	10209
scalar tree_4_3_u06_r7_network.node[34].content_store 	decision_no[34] 	0
scalar tree_4_3_u06_r7_network.node[34].content_store 	decision_ratio[34] 	1
scalar tree_4_3_u06_r7_network.node[35].core_layer 	interests[35] 	12064
scalar tree_4_3_u06_r7_network.node[35].core_layer 	data[35] 	10207
scalar tree_4_3_u06_r7_network.node[35].content_store 	p_hit[35] 	0.15384615384615
scalar tree_4_3_u06_r7_network.node[35].content_store 	hits[35] 	1856
scalar tree_4_3_u06_r7_network.node[35].content_store 	misses[35] 	10208
scalar tree_4_3_u06_r7_network.node[35].content_store 	decision_yes[35] 	10207
scalar tree_4_3_u06_r7_network.node[35].content_store 	decision_no[35] 	0
scalar tree_4_3_u06_r7_network.node[35].content_store 	decision_ratio[35] 	1
scalar tree_4_3_u06_r7_network.node[36].core_layer 	interests[36] 	12011
scalar tree_4_3_u06_r7_network.node[36].core_layer 	data[36] 	10084
scalar tree_4_3_u06_r7_network.node[36].content_store 	p_hit[36] 	0.16035300974107
scalar tree_4_3_u06_r7_network.node[36].content_store 	hits[36] 	1926
scalar tree_4_3_u06_r7_network.node[36].content_store 	misses[36] 	10085
scalar tree_4_3_u06_r7_network.node[36].content_store 	decision_yes[36] 	10084
scalar tree_4_3_u06_r7_network.node[36].content_store 	decision_no[36] 	0
scalar tree_4_3_u06_r7_network.node[36].content_store 	decision_ratio[36] 	1
scalar tree_4_3_u06_r7_network.node[37].core_layer 	interests[37] 	12069
scalar tree_4_3_u06_r7_network.node[37].core_layer 	data[37] 	10295
scalar tree_4_3_u06_r7_network.node[37].content_store 	p_hit[37] 	0.1469052945563
scalar tree_4_3_u06_r7_network.node[37].content_store 	hits[37] 	1773
scalar tree_4_3_u06_r7_network.node[37].content_store 	misses[37] 	10296
scalar tree_4_3_u06_r7_network.node[37].content_store 	decision_yes[37] 	10295
scalar tree_4_3_u06_r7_network.node[37].content_store 	decision_no[37] 	0
scalar tree_4_3_u06_r7_network.node[37].content_store 	decision_ratio[37] 	1
scalar tree_4_3_u06_r7_network.node[38].core_layer 	interests[38] 	11950
scalar tree_4_3_u06_r7_network.node[38].core_layer 	data[38] 	10054
scalar tree_4_3_u06_r7_network.node[38].content_store 	p_hit[38] 	0.15857740585774
scalar tree_4_3_u06_r7_network.node[38].content_store 	hits[38] 	1895
scalar tree_4_3_u06_r7_network.node[38].content_store 	misses[38] 	10055
scalar tree_4_3_u06_r7_network.node[38].content_store 	decision_yes[38] 	10054
scalar tree_4_3_u06_r7_network.node[38].content_store 	decision_no[38] 	0
scalar tree_4_3_u06_r7_network.node[38].content_store 	decision_ratio[38] 	1
scalar tree_4_3_u06_r7_network.node[39].core_layer 	interests[39] 	11956
scalar tree_4_3_u06_r7_network.node[39].core_layer 	data[39] 	10055
scalar tree_4_3_u06_r7_network.node[39].content_store 	p_hit[39] 	0.15899966543995
scalar tree_4_3_u06_r7_network.node[39].content_store 	hits[39] 	1901
scalar tree_4_3_u06_r7_network.node[39].content_store 	misses[39] 	10055
scalar tree_4_3_u06_r7_network.node[39].content_store 	decision_yes[39] 	10055
scalar tree_4_3_u06_r7_network.node[39].content_store 	decision_no[39] 	0
scalar tree_4_3_u06_r7_network.node[39].content_store 	decision_ratio[39] 	1
scalar tree_4_3_u06_r7_network.client[13] 	hdistance[13] 	3.2679282868526
scalar tree_4_3_u06_r7_network.client[13] 	downloads[13] 	12048
scalar tree_4_3_u06_r7_network.client[13] 	avg_time[13] 	0.00494816251
scalar tree_4_3_u06_r7_network.client[14] 	hdistance[14] 	3.2551037483266
scalar tree_4_3_u06_r7_network.client[14] 	downloads[14] 	11952
scalar tree_4_3_u06_r7_network.client[14] 	avg_time[14] 	0.00493191592
scalar tree_4_3_u06_r7_network.client[15] 	hdistance[15] 	3.2487385226239
scalar tree_4_3_u06_r7_network.client[15] 	downloads[15] 	12089
scalar tree_4_3_u06_r7_network.client[15] 	avg_time[15] 	0.00492124165
scalar tree_4_3_u06_r7_network.client[16] 	hdistance[16] 	3.2774864682003
scalar tree_4_3_u06_r7_network.client[16] 	downloads[16] 	11824
scalar tree_4_3_u06_r7_network.client[16] 	avg_time[16] 	0.004963355264
scalar tree_4_3_u06_r7_network.client[17] 	hdistance[17] 	3.24329218107
scalar tree_4_3_u06_r7_network.client[17] 	downloads[17] 	12150
scalar tree_4_3_u06_r7_network.client[17] 	avg_time[17] 	0.004917473531
scalar tree_4_3_u06_r7_network.client[18] 	hdistance[18] 	3.2532663316583
scalar tree_4_3_u06_r7_network.client[18] 	downloads[18] 	11940
scalar tree_4_3_u06_r7_network.client[18] 	avg_time[18] 	0.004930513692
scalar tree_4_3_u06_r7_network.client[19] 	hdistance[19] 	3.2336974511751
scalar tree_4_3_u06_r7_network.client[19] 	downloads[19] 	12084
scalar tree_4_3_u06_r7_network.client[19] 	avg_time[19] 	0.004896576789
scalar tree_4_3_u06_r7_network.client[20] 	hdistance[20] 	3.270146597746
scalar tree_4_3_u06_r7_network.client[20] 	downloads[20] 	11801
scalar tree_4_3_u06_r7_network.client[20] 	avg_time[20] 	0.004957159107
scalar tree_4_3_u06_r7_network.client[21] 	hdistance[21] 	3.2765442404007
scalar tree_4_3_u06_r7_network.client[21] 	downloads[21] 	11980
scalar tree_4_3_u06_r7_network.client[21] 	avg_time[21] 	0.004966398879
scalar tree_4_3_u06_r7_network.client[22] 	hdistance[22] 	3.2267611504794
scalar tree_4_3_u06_r7_network.client[22] 	downloads[22] 	11995
scalar tree_4_3_u06_r7_network.client[22] 	avg_time[22] 	0.004887602851
scalar tree_4_3_u06_r7_network.client[23] 	hdistance[23] 	3.2394330971238
scalar tree_4_3_u06_r7_network.client[23] 	downloads[23] 	11995
scalar tree_4_3_u06_r7_network.client[23] 	avg_time[23] 	0.004906763271
scalar tree_4_3_u06_r7_network.client[24] 	hdistance[24] 	3.2377743075532
scalar tree_4_3_u06_r7_network.client[24] 	downloads[24] 	12167
scalar tree_4_3_u06_r7_network.client[24] 	avg_time[24] 	0.004905536793
scalar tree_4_3_u06_r7_network.client[25] 	hdistance[25] 	3.273215334284
scalar tree_4_3_u06_r7_network.client[25] 	downloads[25] 	11921
scalar tree_4_3_u06_r7_network.client[25] 	avg_time[25] 	0.004957635901
scalar tree_4_3_u06_r7_network.client[26] 	hdistance[26] 	3.2370265309528
scalar tree_4_3_u06_r7_network.client[26] 	downloads[26] 	11986
scalar tree_4_3_u06_r7_network.client[26] 	avg_time[26] 	0.004901716525
scalar tree_4_3_u06_r7_network.client[27] 	hdistance[27] 	3.2744143846915
scalar tree_4_3_u06_r7_network.client[27] 	downloads[27] 	12124
scalar tree_4_3_u06_r7_network.client[27] 	avg_time[27] 	0.004963067321
scalar tree_4_3_u06_r7_network.client[28] 	hdistance[28] 	3.2303146329283
scalar tree_4_3_u06_r7_network.client[28] 	downloads[28] 	12014
scalar tree_4_3_u06_r7_network.client[28] 	avg_time[28] 	0.004892960413
scalar tree_4_3_u06_r7_network.client[29] 	hdistance[29] 	3.2221388054721
scalar tree_4_3_u06_r7_network.client[29] 	downloads[29] 	11988
scalar tree_4_3_u06_r7_network.client[29] 	avg_time[29] 	0.004883658267
scalar tree_4_3_u06_r7_network.client[30] 	hdistance[30] 	3.2924496644295
scalar tree_4_3_u06_r7_network.client[30] 	downloads[30] 	11920
scalar tree_4_3_u06_r7_network.client[30] 	avg_time[30] 	0.004986238653
scalar tree_4_3_u06_r7_network.client[31] 	hdistance[31] 	3.2539429530201
scalar tree_4_3_u06_r7_network.client[31] 	downloads[31] 	11920
scalar tree_4_3_u06_r7_network.client[31] 	avg_time[31] 	0.004927854803
scalar tree_4_3_u06_r7_network.client[32] 	hdistance[32] 	3.2385028533065
scalar tree_4_3_u06_r7_network.client[32] 	downloads[32] 	11916
scalar tree_4_3_u06_r7_network.client[32] 	avg_time[32] 	0.004904791805
scalar tree_4_3_u06_r7_network.client[33] 	hdistance[33] 	3.2333525868471
scalar tree_4_3_u06_r7_network.client[33] 	downloads[33] 	12119
scalar tree_4_3_u06_r7_network.client[33] 	avg_time[33] 	0.004899423417
scalar tree_4_3_u06_r7_network.client[34] 	hdistance[34] 	3.2678616090038
scalar tree_4_3_u06_r7_network.client[34] 	downloads[34] 	11995
scalar tree_4_3_u06_r7_network.client[34] 	avg_time[34] 	0.004952771969
scalar tree_4_3_u06_r7_network.client[35] 	hdistance[35] 	3.2538340379673
scalar tree_4_3_u06_r7_network.client[35] 	downloads[35] 	12063
scalar tree_4_3_u06_r7_network.client[35] 	avg_time[35] 	0.004935589486
scalar tree_4_3_u06_r7_network.client[36] 	hdistance[36] 	3.2284762697752
scalar tree_4_3_u06_r7_network.client[36] 	downloads[36] 	12010
scalar tree_4_3_u06_r7_network.client[36] 	avg_time[36] 	0.004894498207
scalar tree_4_3_u06_r7_network.client[37] 	hdistance[37] 	3.2926748425588
scalar tree_4_3_u06_r7_network.client[37] 	downloads[37] 	12068
scalar tree_4_3_u06_r7_network.client[37] 	avg_time[37] 	0.004982705996
scalar tree_4_3_u06_r7_network.client[38] 	hdistance[38] 	3.2360030128044
scalar tree_4_3_u06_r7_network.client[38] 	downloads[38] 	11949
scalar tree_4_3_u06_r7_network.client[38] 	avg_time[38] 	0.004906917023
scalar tree_4_3_u06_r7_network.client[39] 	hdistance[39] 	3.3301271328203
scalar tree_4_3_u06_r7_network.client[39] 	downloads[39] 	11956
scalar tree_4_3_u06_r7_network.client[39] 	avg_time[39] 	0.005033118451
