version 2
run General-120-20160820-15:48:29-2644
attr a 0.9
attr cd lce
attr configname General
attr cr lru
attr datetime 20160820-15:48:29
attr experiment General
attr fsize 1
attr inifile hw5115/scenario_A/SPR-LCE.ini
attr iterationvars "$name=tree_4_3, $un=06, $rep=1, $cd=lce, $cr=lru, $fsize=1, $a=0.9, $sl=spr, $ttl=1000, $variance=0.05"
attr iterationvars2 "$name=tree_4_3, $un=06, $rep=1, $cd=lce, $cr=lru, $fsize=1, $a=0.9, $sl=spr, $ttl=1000, $variance=0.05, $repetition=0"
attr measurement "$name=tree_4_3, $un=06, $rep=1, $cd=lce, $cr=lru, $fsize=1, $a=0.9, $sl=spr, $ttl=1000, $variance=0.05"
attr name tree_4_3
attr network networks.${name}_u${un}_r${rep}_network
attr processid 2644
attr rep 1
attr repetition 0
attr replication #0
attr resultdir results
attr runnumber 120
attr seedset 1
attr sl spr
attr ttl 1000
attr un 06
attr variance 0.05

scalar . 	a 	0.9
scalar . 	fsize 	1
scalar . 	rep 	1
scalar . 	ttl 	1000
scalar . 	un 	06
scalar . 	variance 	0.05
scalar tree_4_3_u06_r1_network.content_distribution 	repo-0 	0
scalar tree_4_3_u06_r1_network.content_distribution 	client-0 	13
scalar tree_4_3_u06_r1_network.content_distribution 	client-1 	14
scalar tree_4_3_u06_r1_network.content_distribution 	client-2 	15
scalar tree_4_3_u06_r1_network.content_distribution 	client-3 	16
scalar tree_4_3_u06_r1_network.content_distribution 	client-4 	17
scalar tree_4_3_u06_r1_network.content_distribution 	client-5 	18
scalar tree_4_3_u06_r1_network.content_distribution 	client-6 	19
scalar tree_4_3_u06_r1_network.content_distribution 	client-7 	20
scalar tree_4_3_u06_r1_network.content_distribution 	client-8 	21
scalar tree_4_3_u06_r1_network.content_distribution 	client-9 	22
scalar tree_4_3_u06_r1_network.content_distribution 	client-10 	23
scalar tree_4_3_u06_r1_network.content_distribution 	client-11 	24
scalar tree_4_3_u06_r1_network.content_distribution 	client-12 	25
scalar tree_4_3_u06_r1_network.content_distribution 	client-13 	26
scalar tree_4_3_u06_r1_network.content_distribution 	client-14 	27
scalar tree_4_3_u06_r1_network.content_distribution 	client-15 	28
scalar tree_4_3_u06_r1_network.content_distribution 	client-16 	29
scalar tree_4_3_u06_r1_network.content_distribution 	client-17 	30
scalar tree_4_3_u06_r1_network.content_distribution 	client-18 	31
scalar tree_4_3_u06_r1_network.content_distribution 	client-19 	32
scalar tree_4_3_u06_r1_network.content_distribution 	client-20 	33
scalar tree_4_3_u06_r1_network.content_distribution 	client-21 	34
scalar tree_4_3_u06_r1_network.content_distribution 	client-22 	35
scalar tree_4_3_u06_r1_network.content_distribution 	client-23 	36
scalar tree_4_3_u06_r1_network.content_distribution 	client-24 	37
scalar tree_4_3_u06_r1_network.content_distribution 	client-25 	38
scalar tree_4_3_u06_r1_network.content_distribution 	client-26 	39
scalar tree_4_3_u06_r1_network.content_distribution 	repo-0_card 	100000
scalar tree_4_3_u06_r1_network.content_distribution 	repo-0_price 	0
scalar tree_4_3_u06_r1_network.statistics 	stabilization_time 	490.4
scalar tree_4_3_u06_r1_network.statistics 	p_hit 	0.11436230345043
scalar tree_4_3_u06_r1_network.statistics 	interests 	28040.375
scalar tree_4_3_u06_r1_network.statistics 	data 	19936.35
scalar tree_4_3_u06_r1_network.statistics 	hdistance 	3.2462367921202
scalar tree_4_3_u06_r1_network.statistics 	avg_time 	0.004920442245
scalar tree_4_3_u06_r1_network.statistics 	downloads 	324143
scalar tree_4_3_u06_r1_network.statistics 	total_cost 	0
scalar tree_4_3_u06_r1_network.statistics 	total_replicas 	100000
scalar tree_4_3_u06_r1_network.statistics 	inner_hit 	0.21423569227162
scalar tree_4_3_u06_r1_network.node[0].core_layer 	interests[0] 	259308
scalar tree_4_3_u06_r1_network.node[0].core_layer 	repo_load[0] 	254700
scalar tree_4_3_u06_r1_network.node[0].core_layer 	data[0] 	0
scalar tree_4_3_u06_r1_network.node[0].core_layer 	repo_int[0] 	254700
scalar tree_4_3_u06_r1_network.node[0].content_store 	p_hit[0] 	0.017770373455505
scalar tree_4_3_u06_r1_network.node[0].content_store 	hits[0] 	4608
scalar tree_4_3_u06_r1_network.node[0].content_store 	misses[0] 	254700
scalar tree_4_3_u06_r1_network.node[0].content_store 	decision_yes[0] 	254700
scalar tree_4_3_u06_r1_network.node[0].content_store 	decision_no[0] 	0
scalar tree_4_3_u06_r1_network.node[0].content_store 	decision_ratio[0] 	1
scalar tree_4_3_u06_r1_network.node[1].core_layer 	interests[1] 	127722
scalar tree_4_3_u06_r1_network.node[1].core_layer 	data[1] 	124630
scalar tree_4_3_u06_r1_network.node[1].content_store 	p_hit[1] 	0.024138363007156
scalar tree_4_3_u06_r1_network.node[1].content_store 	hits[1] 	3083
scalar tree_4_3_u06_r1_network.node[1].content_store 	misses[1] 	124639
scalar tree_4_3_u06_r1_network.node[1].content_store 	decision_yes[1] 	124630
scalar tree_4_3_u06_r1_network.node[1].content_store 	decision_no[1] 	0
scalar tree_4_3_u06_r1_network.node[1].content_store 	decision_ratio[1] 	1
scalar tree_4_3_u06_r1_network.node[2].core_layer 	interests[2] 	88167
scalar tree_4_3_u06_r1_network.node[2].core_layer 	data[2] 	86208
scalar tree_4_3_u06_r1_network.node[2].content_store 	p_hit[2] 	0.022185171322604
scalar tree_4_3_u06_r1_network.node[2].content_store 	hits[2] 	1956
scalar tree_4_3_u06_r1_network.node[2].content_store 	misses[2] 	86211
scalar tree_4_3_u06_r1_network.node[2].content_store 	decision_yes[2] 	86208
scalar tree_4_3_u06_r1_network.node[2].content_store 	decision_no[2] 	0
scalar tree_4_3_u06_r1_network.node[2].content_store 	decision_ratio[2] 	1
scalar tree_4_3_u06_r1_network.node[3].core_layer 	interests[3] 	49305
scalar tree_4_3_u06_r1_network.node[3].core_layer 	data[3] 	48472
scalar tree_4_3_u06_r1_network.node[3].content_store 	p_hit[3] 	0.01685427441436
scalar tree_4_3_u06_r1_network.node[3].content_store 	hits[3] 	831
scalar tree_4_3_u06_r1_network.node[3].content_store 	misses[3] 	48474
scalar tree_4_3_u06_r1_network.node[3].content_store 	decision_yes[3] 	48472
scalar tree_4_3_u06_r1_network.node[3].content_store 	decision_no[3] 	0
scalar tree_4_3_u06_r1_network.node[3].content_store 	decision_ratio[3] 	1
scalar tree_4_3_u06_r1_network.node[4].core_layer 	interests[4] 	50938
scalar tree_4_3_u06_r1_network.node[4].core_layer 	data[4] 	49261
scalar tree_4_3_u06_r1_network.node[4].content_store 	p_hit[4] 	0.032843849385528
scalar tree_4_3_u06_r1_network.node[4].content_store 	hits[4] 	1673
scalar tree_4_3_u06_r1_network.node[4].content_store 	misses[4] 	49265
scalar tree_4_3_u06_r1_network.node[4].content_store 	decision_yes[4] 	49261
scalar tree_4_3_u06_r1_network.node[4].content_store 	decision_no[4] 	0
scalar tree_4_3_u06_r1_network.node[4].content_store 	decision_ratio[4] 	1
scalar tree_4_3_u06_r1_network.node[5].core_layer 	interests[5] 	30322
scalar tree_4_3_u06_r1_network.node[5].core_layer 	data[5] 	29441
scalar tree_4_3_u06_r1_network.node[5].content_store 	p_hit[5] 	0.02902183233296
scalar tree_4_3_u06_r1_network.node[5].content_store 	hits[5] 	880
scalar tree_4_3_u06_r1_network.node[5].content_store 	misses[5] 	29442
scalar tree_4_3_u06_r1_network.node[5].content_store 	decision_yes[5] 	29441
scalar tree_4_3_u06_r1_network.node[5].content_store 	decision_no[5] 	0
scalar tree_4_3_u06_r1_network.node[5].content_store 	decision_ratio[5] 	1
scalar tree_4_3_u06_r1_network.node[6].core_layer 	interests[6] 	9840
scalar tree_4_3_u06_r1_network.node[6].core_layer 	data[6] 	9815
scalar tree_4_3_u06_r1_network.node[6].content_store 	p_hit[6] 	0.0025406504065041
scalar tree_4_3_u06_r1_network.node[6].content_store 	hits[6] 	25
scalar tree_4_3_u06_r1_network.node[6].content_store 	misses[6] 	9815
scalar tree_4_3_u06_r1_network.node[6].content_store 	decision_yes[6] 	9815
scalar tree_4_3_u06_r1_network.node[6].content_store 	decision_no[6] 	0
scalar tree_4_3_u06_r1_network.node[6].content_store 	decision_ratio[6] 	1
scalar tree_4_3_u06_r1_network.node[7].core_layer 	interests[7] 	40303
scalar tree_4_3_u06_r1_network.node[7].core_layer 	data[7] 	39056
scalar tree_4_3_u06_r1_network.node[7].content_store 	p_hit[7] 	0.030841376572464
scalar tree_4_3_u06_r1_network.node[7].content_store 	hits[7] 	1243
scalar tree_4_3_u06_r1_network.node[7].content_store 	misses[7] 	39060
scalar tree_4_3_u06_r1_network.node[7].content_store 	decision_yes[7] 	39056
scalar tree_4_3_u06_r1_network.node[7].content_store 	decision_no[7] 	0
scalar tree_4_3_u06_r1_network.node[7].content_store 	decision_ratio[7] 	1
scalar tree_4_3_u06_r1_network.node[8].core_layer 	interests[8] 	20071
scalar tree_4_3_u06_r1_network.node[8].core_layer 	data[8] 	19629
scalar tree_4_3_u06_r1_network.node[8].content_store 	p_hit[8] 	0.022021822530018
scalar tree_4_3_u06_r1_network.node[8].content_store 	hits[8] 	442
scalar tree_4_3_u06_r1_network.node[8].content_store 	misses[8] 	19629
scalar tree_4_3_u06_r1_network.node[8].content_store 	decision_yes[8] 	19629
scalar tree_4_3_u06_r1_network.node[8].content_store 	decision_no[8] 	0
scalar tree_4_3_u06_r1_network.node[8].content_store 	decision_ratio[8] 	1
scalar tree_4_3_u06_r1_network.node[9].core_layer 	interests[9] 	30344
scalar tree_4_3_u06_r1_network.node[9].core_layer 	data[9] 	29483
scalar tree_4_3_u06_r1_network.node[9].content_store 	p_hit[9] 	0.028407592934353
scalar tree_4_3_u06_r1_network.node[9].content_store 	hits[9] 	862
scalar tree_4_3_u06_r1_network.node[9].content_store 	misses[9] 	29482
scalar tree_4_3_u06_r1_network.node[9].content_store 	decision_yes[9] 	29483
scalar tree_4_3_u06_r1_network.node[9].content_store 	decision_no[9] 	0
scalar tree_4_3_u06_r1_network.node[9].content_store 	decision_ratio[9] 	1
scalar tree_4_3_u06_r1_network.node[10].core_layer 	interests[10] 	40443
scalar tree_4_3_u06_r1_network.node[10].core_layer 	data[10] 	39205
scalar tree_4_3_u06_r1_network.node[10].content_store 	p_hit[10] 	0.030536804885889
scalar tree_4_3_u06_r1_network.node[10].content_store 	hits[10] 	1235
scalar tree_4_3_u06_r1_network.node[10].content_store 	misses[10] 	39208
scalar tree_4_3_u06_r1_network.node[10].content_store 	decision_yes[10] 	39205
scalar tree_4_3_u06_r1_network.node[10].content_store 	decision_no[10] 	0
scalar tree_4_3_u06_r1_network.node[10].content_store 	decision_ratio[10] 	1
scalar tree_4_3_u06_r1_network.node[11].core_layer 	interests[11] 	30256
scalar tree_4_3_u06_r1_network.node[11].core_layer 	data[11] 	29371
scalar tree_4_3_u06_r1_network.node[11].content_store 	p_hit[11] 	0.029217345319937
scalar tree_4_3_u06_r1_network.node[11].content_store 	hits[11] 	884
scalar tree_4_3_u06_r1_network.node[11].content_store 	misses[11] 	29372
scalar tree_4_3_u06_r1_network.node[11].content_store 	decision_yes[11] 	29371
scalar tree_4_3_u06_r1_network.node[11].content_store 	decision_no[11] 	0
scalar tree_4_3_u06_r1_network.node[11].content_store 	decision_ratio[11] 	1
scalar tree_4_3_u06_r1_network.node[12].core_layer 	interests[12] 	20430
scalar tree_4_3_u06_r1_network.node[12].core_layer 	data[12] 	19935
scalar tree_4_3_u06_r1_network.node[12].content_store 	p_hit[12] 	0.024180127263828
scalar tree_4_3_u06_r1_network.node[12].content_store 	hits[12] 	494
scalar tree_4_3_u06_r1_network.node[12].content_store 	misses[12] 	19936
scalar tree_4_3_u06_r1_network.node[12].content_store 	decision_yes[12] 	19935
scalar tree_4_3_u06_r1_network.node[12].content_store 	decision_no[12] 	0
scalar tree_4_3_u06_r1_network.node[12].content_store 	decision_ratio[12] 	1
scalar tree_4_3_u06_r1_network.node[13].core_layer 	interests[13] 	12190
scalar tree_4_3_u06_r1_network.node[13].core_layer 	data[13] 	10185
scalar tree_4_3_u06_r1_network.node[13].content_store 	p_hit[13] 	0.16447908121411
scalar tree_4_3_u06_r1_network.node[13].content_store 	hits[13] 	2005
scalar tree_4_3_u06_r1_network.node[13].content_store 	misses[13] 	10185
scalar tree_4_3_u06_r1_network.node[13].content_store 	decision_yes[13] 	10185
scalar tree_4_3_u06_r1_network.node[13].content_store 	decision_no[13] 	0
scalar tree_4_3_u06_r1_network.node[13].content_store 	decision_ratio[13] 	1
scalar tree_4_3_u06_r1_network.node[14].core_layer 	interests[14] 	12090
scalar tree_4_3_u06_r1_network.node[14].core_layer 	data[14] 	10259
scalar tree_4_3_u06_r1_network.node[14].content_store 	p_hit[14] 	0.15144747725393
scalar tree_4_3_u06_r1_network.node[14].content_store 	hits[14] 	1831
scalar tree_4_3_u06_r1_network.node[14].content_store 	misses[14] 	10259
scalar tree_4_3_u06_r1_network.node[14].content_store 	decision_yes[14] 	10259
scalar tree_4_3_u06_r1_network.node[14].content_store 	decision_no[14] 	0
scalar tree_4_3_u06_r1_network.node[14].content_store 	decision_ratio[14] 	1
scalar tree_4_3_u06_r1_network.node[15].core_layer 	interests[15] 	12008
scalar tree_4_3_u06_r1_network.node[15].core_layer 	data[15] 	10116
scalar tree_4_3_u06_r1_network.node[15].content_store 	p_hit[15] 	0.15731179213857
scalar tree_4_3_u06_r1_network.node[15].content_store 	hits[15] 	1889
scalar tree_4_3_u06_r1_network.node[15].content_store 	misses[15] 	10119
scalar tree_4_3_u06_r1_network.node[15].content_store 	decision_yes[15] 	10116
scalar tree_4_3_u06_r1_network.node[15].content_store 	decision_no[15] 	0
scalar tree_4_3_u06_r1_network.node[15].content_store 	decision_ratio[15] 	1
scalar tree_4_3_u06_r1_network.node[16].core_layer 	interests[16] 	12149
scalar tree_4_3_u06_r1_network.node[16].core_layer 	data[16] 	10243
scalar tree_4_3_u06_r1_network.node[16].content_store 	p_hit[16] 	0.15680302905589
scalar tree_4_3_u06_r1_network.node[16].content_store 	hits[16] 	1905
scalar tree_4_3_u06_r1_network.node[16].content_store 	misses[16] 	10244
scalar tree_4_3_u06_r1_network.node[16].content_store 	decision_yes[16] 	10243
scalar tree_4_3_u06_r1_network.node[16].content_store 	decision_no[16] 	0
scalar tree_4_3_u06_r1_network.node[16].content_store 	decision_ratio[16] 	1
scalar tree_4_3_u06_r1_network.node[17].core_layer 	interests[17] 	12048
scalar tree_4_3_u06_r1_network.node[17].core_layer 	data[17] 	10033
scalar tree_4_3_u06_r1_network.node[17].content_store 	p_hit[17] 	0.16733067729084
scalar tree_4_3_u06_r1_network.node[17].content_store 	hits[17] 	2016
scalar tree_4_3_u06_r1_network.node[17].content_store 	misses[17] 	10032
scalar tree_4_3_u06_r1_network.node[17].content_store 	decision_yes[17] 	10033
scalar tree_4_3_u06_r1_network.node[17].content_store 	decision_no[17] 	0
scalar tree_4_3_u06_r1_network.node[17].content_store 	decision_ratio[17] 	1
scalar tree_4_3_u06_r1_network.node[18].core_layer 	interests[18] 	12049
scalar tree_4_3_u06_r1_network.node[18].core_layer 	data[18] 	10236
scalar tree_4_3_u06_r1_network.node[18].content_store 	p_hit[18] 	0.1506349074612
scalar tree_4_3_u06_r1_network.node[18].content_store 	hits[18] 	1815
scalar tree_4_3_u06_r1_network.node[18].content_store 	misses[18] 	10234
scalar tree_4_3_u06_r1_network.node[18].content_store 	decision_yes[18] 	10236
scalar tree_4_3_u06_r1_network.node[18].content_store 	decision_no[18] 	0
scalar tree_4_3_u06_r1_network.node[18].content_store 	decision_ratio[18] 	1
scalar tree_4_3_u06_r1_network.node[19].core_layer 	interests[19] 	12062
scalar tree_4_3_u06_r1_network.node[19].core_layer 	data[19] 	10133
scalar tree_4_3_u06_r1_network.node[19].content_store 	p_hit[19] 	0.15984082241751
scalar tree_4_3_u06_r1_network.node[19].content_store 	hits[19] 	1928
scalar tree_4_3_u06_r1_network.node[19].content_store 	misses[19] 	10134
scalar tree_4_3_u06_r1_network.node[19].content_store 	decision_yes[19] 	10133
scalar tree_4_3_u06_r1_network.node[19].content_store 	decision_no[19] 	0
scalar tree_4_3_u06_r1_network.node[19].content_store 	decision_ratio[19] 	1
scalar tree_4_3_u06_r1_network.node[20].core_layer 	interests[20] 	11969
scalar tree_4_3_u06_r1_network.node[20].core_layer 	data[20] 	10055
scalar tree_4_3_u06_r1_network.node[20].content_store 	p_hit[20] 	0.15982955969588
scalar tree_4_3_u06_r1_network.node[20].content_store 	hits[20] 	1913
scalar tree_4_3_u06_r1_network.node[20].content_store 	misses[20] 	10056
scalar tree_4_3_u06_r1_network.node[20].content_store 	decision_yes[20] 	10055
scalar tree_4_3_u06_r1_network.node[20].content_store 	decision_no[20] 	0
scalar tree_4_3_u06_r1_network.node[20].content_store 	decision_ratio[20] 	1
scalar tree_4_3_u06_r1_network.node[21].core_layer 	interests[21] 	11716
scalar tree_4_3_u06_r1_network.node[21].core_layer 	data[21] 	9840
scalar tree_4_3_u06_r1_network.node[21].content_store 	p_hit[21] 	0.16012290884261
scalar tree_4_3_u06_r1_network.node[21].content_store 	hits[21] 	1876
scalar tree_4_3_u06_r1_network.node[21].content_store 	misses[21] 	9840
scalar tree_4_3_u06_r1_network.node[21].content_store 	decision_yes[21] 	9840
scalar tree_4_3_u06_r1_network.node[21].content_store 	decision_no[21] 	0
scalar tree_4_3_u06_r1_network.node[21].content_store 	decision_ratio[21] 	1
scalar tree_4_3_u06_r1_network.node[22].core_layer 	interests[22] 	12037
scalar tree_4_3_u06_r1_network.node[22].core_layer 	data[22] 	10099
scalar tree_4_3_u06_r1_network.node[22].content_store 	p_hit[22] 	0.16100357231868
scalar tree_4_3_u06_r1_network.node[22].content_store 	hits[22] 	1938
scalar tree_4_3_u06_r1_network.node[22].content_store 	misses[22] 	10099
scalar tree_4_3_u06_r1_network.node[22].content_store 	decision_yes[22] 	10099
scalar tree_4_3_u06_r1_network.node[22].content_store 	decision_no[22] 	0
scalar tree_4_3_u06_r1_network.node[22].content_store 	decision_ratio[22] 	1
scalar tree_4_3_u06_r1_network.node[23].core_layer 	interests[23] 	11942
scalar tree_4_3_u06_r1_network.node[23].core_layer 	data[23] 	10125
scalar tree_4_3_u06_r1_network.node[23].content_store 	p_hit[23] 	0.15206833026294
scalar tree_4_3_u06_r1_network.node[23].content_store 	hits[23] 	1816
scalar tree_4_3_u06_r1_network.node[23].content_store 	misses[23] 	10126
scalar tree_4_3_u06_r1_network.node[23].content_store 	decision_yes[23] 	10125
scalar tree_4_3_u06_r1_network.node[23].content_store 	decision_no[23] 	0
scalar tree_4_3_u06_r1_network.node[23].content_store 	decision_ratio[23] 	1
scalar tree_4_3_u06_r1_network.node[24].core_layer 	interests[24] 	11916
scalar tree_4_3_u06_r1_network.node[24].core_layer 	data[24] 	10081
scalar tree_4_3_u06_r1_network.node[24].content_store 	p_hit[24] 	0.15399462907016
scalar tree_4_3_u06_r1_network.node[24].content_store 	hits[24] 	1835
scalar tree_4_3_u06_r1_network.node[24].content_store 	misses[24] 	10081
scalar tree_4_3_u06_r1_network.node[24].content_store 	decision_yes[24] 	10081
scalar tree_4_3_u06_r1_network.node[24].content_store 	decision_no[24] 	0
scalar tree_4_3_u06_r1_network.node[24].content_store 	decision_ratio[24] 	1
scalar tree_4_3_u06_r1_network.node[25].core_layer 	interests[25] 	11947
scalar tree_4_3_u06_r1_network.node[25].core_layer 	data[25] 	9998
scalar tree_4_3_u06_r1_network.node[25].content_store 	p_hit[25] 	0.16296978320917
scalar tree_4_3_u06_r1_network.node[25].content_store 	hits[25] 	1947
scalar tree_4_3_u06_r1_network.node[25].content_store 	misses[25] 	10000
scalar tree_4_3_u06_r1_network.node[25].content_store 	decision_yes[25] 	9998
scalar tree_4_3_u06_r1_network.node[25].content_store 	decision_no[25] 	0
scalar tree_4_3_u06_r1_network.node[25].content_store 	decision_ratio[25] 	1
scalar tree_4_3_u06_r1_network.node[26].core_layer 	interests[26] 	11858
scalar tree_4_3_u06_r1_network.node[26].core_layer 	data[26] 	9987
scalar tree_4_3_u06_r1_network.node[26].content_store 	p_hit[26] 	0.1575307809074
scalar tree_4_3_u06_r1_network.node[26].content_store 	hits[26] 	1868
scalar tree_4_3_u06_r1_network.node[26].content_store 	misses[26] 	9990
scalar tree_4_3_u06_r1_network.node[26].content_store 	decision_yes[26] 	9987
scalar tree_4_3_u06_r1_network.node[26].content_store 	decision_no[26] 	0
scalar tree_4_3_u06_r1_network.node[26].content_store 	decision_ratio[26] 	1
scalar tree_4_3_u06_r1_network.node[27].core_layer 	interests[27] 	11920
scalar tree_4_3_u06_r1_network.node[27].core_layer 	data[27] 	10084
scalar tree_4_3_u06_r1_network.node[27].content_store 	p_hit[27] 	0.15402684563758
scalar tree_4_3_u06_r1_network.node[27].content_store 	hits[27] 	1836
scalar tree_4_3_u06_r1_network.node[27].content_store 	misses[27] 	10084
scalar tree_4_3_u06_r1_network.node[27].content_store 	decision_yes[27] 	10084
scalar tree_4_3_u06_r1_network.node[27].content_store 	decision_no[27] 	0
scalar tree_4_3_u06_r1_network.node[27].content_store 	decision_ratio[27] 	1
scalar tree_4_3_u06_r1_network.node[28].core_layer 	interests[28] 	12082
scalar tree_4_3_u06_r1_network.node[28].core_layer 	data[28] 	10198
scalar tree_4_3_u06_r1_network.node[28].content_store 	p_hit[28] 	0.15593444793908
scalar tree_4_3_u06_r1_network.node[28].content_store 	hits[28] 	1884
scalar tree_4_3_u06_r1_network.node[28].content_store 	misses[28] 	10198
scalar tree_4_3_u06_r1_network.node[28].content_store 	decision_yes[28] 	10198
scalar tree_4_3_u06_r1_network.node[28].content_store 	decision_no[28] 	0
scalar tree_4_3_u06_r1_network.node[28].content_store 	decision_ratio[28] 	1
scalar tree_4_3_u06_r1_network.node[29].core_layer 	interests[29] 	12053
scalar tree_4_3_u06_r1_network.node[29].core_layer 	data[29] 	10083
scalar tree_4_3_u06_r1_network.node[29].content_store 	p_hit[29] 	0.16319588484195
scalar tree_4_3_u06_r1_network.node[29].content_store 	hits[29] 	1967
scalar tree_4_3_u06_r1_network.node[29].content_store 	misses[29] 	10086
scalar tree_4_3_u06_r1_network.node[29].content_store 	decision_yes[29] 	10083
scalar tree_4_3_u06_r1_network.node[29].content_store 	decision_no[29] 	0
scalar tree_4_3_u06_r1_network.node[29].content_store 	decision_ratio[29] 	1
scalar tree_4_3_u06_r1_network.node[30].core_layer 	interests[30] 	12044
scalar tree_4_3_u06_r1_network.node[30].core_layer 	data[30] 	10064
scalar tree_4_3_u06_r1_network.node[30].content_store 	p_hit[30] 	0.1643141813351
scalar tree_4_3_u06_r1_network.node[30].content_store 	hits[30] 	1979
scalar tree_4_3_u06_r1_network.node[30].content_store 	misses[30] 	10065
scalar tree_4_3_u06_r1_network.node[30].content_store 	decision_yes[30] 	10064
scalar tree_4_3_u06_r1_network.node[30].content_store 	decision_no[30] 	0
scalar tree_4_3_u06_r1_network.node[30].content_store 	decision_ratio[30] 	1
scalar tree_4_3_u06_r1_network.node[31].core_layer 	interests[31] 	12042
scalar tree_4_3_u06_r1_network.node[31].core_layer 	data[31] 	10107
scalar tree_4_3_u06_r1_network.node[31].content_store 	p_hit[31] 	0.16052150805514
scalar tree_4_3_u06_r1_network.node[31].content_store 	hits[31] 	1933
scalar tree_4_3_u06_r1_network.node[31].content_store 	misses[31] 	10109
scalar tree_4_3_u06_r1_network.node[31].content_store 	decision_yes[31] 	10107
scalar tree_4_3_u06_r1_network.node[31].content_store 	decision_no[31] 	0
scalar tree_4_3_u06_r1_network.node[31].content_store 	decision_ratio[31] 	1
scalar tree_4_3_u06_r1_network.node[32].core_layer 	interests[32] 	11871
scalar tree_4_3_u06_r1_network.node[32].core_layer 	data[32] 	10014
scalar tree_4_3_u06_r1_network.node[32].content_store 	p_hit[32] 	0.15626316232836
scalar tree_4_3_u06_r1_network.node[32].content_store 	hits[32] 	1855
scalar tree_4_3_u06_r1_network.node[32].content_store 	misses[32] 	10016
scalar tree_4_3_u06_r1_network.node[32].content_store 	decision_yes[32] 	10014
scalar tree_4_3_u06_r1_network.node[32].content_store 	decision_no[32] 	0
scalar tree_4_3_u06_r1_network.node[32].content_store 	decision_ratio[32] 	1
scalar tree_4_3_u06_r1_network.node[33].core_layer 	interests[33] 	12042
scalar tree_4_3_u06_r1_network.node[33].core_layer 	data[33] 	10170
scalar tree_4_3_u06_r1_network.node[33].content_store 	p_hit[33] 	0.15528981896695
scalar tree_4_3_u06_r1_network.node[33].content_store 	hits[33] 	1870
scalar tree_4_3_u06_r1_network.node[33].content_store 	misses[33] 	10172
scalar tree_4_3_u06_r1_network.node[33].content_store 	decision_yes[33] 	10170
scalar tree_4_3_u06_r1_network.node[33].content_store 	decision_no[33] 	0
scalar tree_4_3_u06_r1_network.node[33].content_store 	decision_ratio[33] 	1
scalar tree_4_3_u06_r1_network.node[34].core_layer 	interests[34] 	11985
scalar tree_4_3_u06_r1_network.node[34].core_layer 	data[34] 	10151
scalar tree_4_3_u06_r1_network.node[34].content_store 	p_hit[34] 	0.15302461410096
scalar tree_4_3_u06_r1_network.node[34].content_store 	hits[34] 	1834
scalar tree_4_3_u06_r1_network.node[34].content_store 	misses[34] 	10151
scalar tree_4_3_u06_r1_network.node[34].content_store 	decision_yes[34] 	10151
scalar tree_4_3_u06_r1_network.node[34].content_store 	decision_no[34] 	0
scalar tree_4_3_u06_r1_network.node[34].content_store 	decision_ratio[34] 	1
scalar tree_4_3_u06_r1_network.node[35].core_layer 	interests[35] 	11971
scalar tree_4_3_u06_r1_network.node[35].core_layer 	data[35] 	10112
scalar tree_4_3_u06_r1_network.node[35].content_store 	p_hit[35] 	0.15529195555927
scalar tree_4_3_u06_r1_network.node[35].content_store 	hits[35] 	1859
scalar tree_4_3_u06_r1_network.node[35].content_store 	misses[35] 	10112
scalar tree_4_3_u06_r1_network.node[35].content_store 	decision_yes[35] 	10112
scalar tree_4_3_u06_r1_network.node[35].content_store 	decision_no[35] 	0
scalar tree_4_3_u06_r1_network.node[35].content_store 	decision_ratio[35] 	1
scalar tree_4_3_u06_r1_network.node[36].core_layer 	interests[36] 	12068
scalar tree_4_3_u06_r1_network.node[36].core_layer 	data[36] 	10171
scalar tree_4_3_u06_r1_network.node[36].content_store 	p_hit[36] 	0.15710971163407
scalar tree_4_3_u06_r1_network.node[36].content_store 	hits[36] 	1896
scalar tree_4_3_u06_r1_network.node[36].content_store 	misses[36] 	10172
scalar tree_4_3_u06_r1_network.node[36].content_store 	decision_yes[36] 	10171
scalar tree_4_3_u06_r1_network.node[36].content_store 	decision_no[36] 	0
scalar tree_4_3_u06_r1_network.node[36].content_store 	decision_ratio[36] 	1
scalar tree_4_3_u06_r1_network.node[37].core_layer 	interests[37] 	12117
scalar tree_4_3_u06_r1_network.node[37].core_layer 	data[37] 	10220
scalar tree_4_3_u06_r1_network.node[37].content_store 	p_hit[37] 	0.15647437484526
scalar tree_4_3_u06_r1_network.node[37].content_store 	hits[37] 	1896
scalar tree_4_3_u06_r1_network.node[37].content_store 	misses[37] 	10221
scalar tree_4_3_u06_r1_network.node[37].content_store 	decision_yes[37] 	10220
scalar tree_4_3_u06_r1_network.node[37].content_store 	decision_no[37] 	0
scalar tree_4_3_u06_r1_network.node[37].content_store 	decision_ratio[37] 	1
scalar tree_4_3_u06_r1_network.node[38].core_layer 	interests[38] 	11847
scalar tree_4_3_u06_r1_network.node[38].core_layer 	data[38] 	9974
scalar tree_4_3_u06_r1_network.node[38].content_store 	p_hit[38] 	0.1580146872626
scalar tree_4_3_u06_r1_network.node[38].content_store 	hits[38] 	1872
scalar tree_4_3_u06_r1_network.node[38].content_store 	misses[38] 	9975
scalar tree_4_3_u06_r1_network.node[38].content_store 	decision_yes[38] 	9974
scalar tree_4_3_u06_r1_network.node[38].content_store 	decision_no[38] 	0
scalar tree_4_3_u06_r1_network.node[38].content_store 	decision_ratio[38] 	1
scalar tree_4_3_u06_r1_network.node[39].core_layer 	interests[39] 	12143
scalar tree_4_3_u06_r1_network.node[39].core_layer 	data[39] 	10210
scalar tree_4_3_u06_r1_network.node[39].content_store 	p_hit[39] 	0.15910401054105
scalar tree_4_3_u06_r1_network.node[39].content_store 	hits[39] 	1932
scalar tree_4_3_u06_r1_network.node[39].content_store 	misses[39] 	10211
scalar tree_4_3_u06_r1_network.node[39].content_store 	decision_yes[39] 	10210
scalar tree_4_3_u06_r1_network.node[39].content_store 	decision_no[39] 	0
scalar tree_4_3_u06_r1_network.node[39].content_store 	decision_ratio[39] 	1
scalar tree_4_3_u06_r1_network.client[13] 	hdistance[13] 	3.2164889253487
scalar tree_4_3_u06_r1_network.client[13] 	downloads[13] 	12190
scalar tree_4_3_u06_r1_network.client[13] 	avg_time[13] 	0.004873007624
scalar tree_4_3_u06_r1_network.client[14] 	hdistance[14] 	3.263523573201
scalar tree_4_3_u06_r1_network.client[14] 	downloads[14] 	12090
scalar tree_4_3_u06_r1_network.client[14] 	avg_time[14] 	0.0049445793
scalar tree_4_3_u06_r1_network.client[15] 	hdistance[15] 	3.2375676801333
scalar tree_4_3_u06_r1_network.client[15] 	downloads[15] 	12005
scalar tree_4_3_u06_r1_network.client[15] 	avg_time[15] 	0.0049063192
scalar tree_4_3_u06_r1_network.client[16] 	hdistance[16] 	3.2448139611459
scalar tree_4_3_u06_r1_network.client[16] 	downloads[16] 	12148
scalar tree_4_3_u06_r1_network.client[16] 	avg_time[16] 	0.004914550793
scalar tree_4_3_u06_r1_network.client[17] 	hdistance[17] 	3.2045812930534
scalar tree_4_3_u06_r1_network.client[17] 	downloads[17] 	12049
scalar tree_4_3_u06_r1_network.client[17] 	avg_time[17] 	0.004855666105
scalar tree_4_3_u06_r1_network.client[18] 	hdistance[18] 	3.2667828395984
scalar tree_4_3_u06_r1_network.client[18] 	downloads[18] 	12051
scalar tree_4_3_u06_r1_network.client[18] 	avg_time[18] 	0.004953825061
scalar tree_4_3_u06_r1_network.client[19] 	hdistance[19] 	3.2286709228091
scalar tree_4_3_u06_r1_network.client[19] 	downloads[19] 	12061
scalar tree_4_3_u06_r1_network.client[19] 	avg_time[19] 	0.004893062349
scalar tree_4_3_u06_r1_network.client[20] 	hdistance[20] 	3.2346256684492
scalar tree_4_3_u06_r1_network.client[20] 	downloads[20] 	11968
scalar tree_4_3_u06_r1_network.client[20] 	avg_time[20] 	0.004900661184
scalar tree_4_3_u06_r1_network.client[21] 	hdistance[21] 	3.2795322635712
scalar tree_4_3_u06_r1_network.client[21] 	downloads[21] 	11716
scalar tree_4_3_u06_r1_network.client[21] 	avg_time[21] 	0.004970816379
scalar tree_4_3_u06_r1_network.client[22] 	hdistance[22] 	3.2340284123951
scalar tree_4_3_u06_r1_network.client[22] 	downloads[22] 	12037
scalar tree_4_3_u06_r1_network.client[22] 	avg_time[22] 	0.004900524163
scalar tree_4_3_u06_r1_network.client[23] 	hdistance[23] 	3.2628758060464
scalar tree_4_3_u06_r1_network.client[23] 	downloads[23] 	11941
scalar tree_4_3_u06_r1_network.client[23] 	avg_time[23] 	0.00494554054
scalar tree_4_3_u06_r1_network.client[24] 	hdistance[24] 	3.2656931856328
scalar tree_4_3_u06_r1_network.client[24] 	downloads[24] 	11916
scalar tree_4_3_u06_r1_network.client[24] 	avg_time[24] 	0.004948637506
scalar tree_4_3_u06_r1_network.client[25] 	hdistance[25] 	3.2180828798661
scalar tree_4_3_u06_r1_network.client[25] 	downloads[25] 	11945
scalar tree_4_3_u06_r1_network.client[25] 	avg_time[25] 	0.004880448865
scalar tree_4_3_u06_r1_network.client[26] 	hdistance[26] 	3.2607338675664
scalar tree_4_3_u06_r1_network.client[26] 	downloads[26] 	11855
scalar tree_4_3_u06_r1_network.client[26] 	avg_time[26] 	0.004942546176
scalar tree_4_3_u06_r1_network.client[27] 	hdistance[27] 	3.2661073825503
scalar tree_4_3_u06_r1_network.client[27] 	downloads[27] 	11920
scalar tree_4_3_u06_r1_network.client[27] 	avg_time[27] 	0.004955030571
scalar tree_4_3_u06_r1_network.client[28] 	hdistance[28] 	3.2486343320642
scalar tree_4_3_u06_r1_network.client[28] 	downloads[28] 	12082
scalar tree_4_3_u06_r1_network.client[28] 	avg_time[28] 	0.004927489358
scalar tree_4_3_u06_r1_network.client[29] 	hdistance[29] 	3.2198340248963
scalar tree_4_3_u06_r1_network.client[29] 	downloads[29] 	12050
scalar tree_4_3_u06_r1_network.client[29] 	avg_time[29] 	0.004883162081
scalar tree_4_3_u06_r1_network.client[30] 	hdistance[30] 	3.2234493066512
scalar tree_4_3_u06_r1_network.client[30] 	downloads[30] 	12043
scalar tree_4_3_u06_r1_network.client[30] 	avg_time[30] 	0.004885677703
scalar tree_4_3_u06_r1_network.client[31] 	hdistance[31] 	3.2241694352159
scalar tree_4_3_u06_r1_network.client[31] 	downloads[31] 	12040
scalar tree_4_3_u06_r1_network.client[31] 	avg_time[31] 	0.004887665404
scalar tree_4_3_u06_r1_network.client[32] 	hdistance[32] 	3.2509057207852
scalar tree_4_3_u06_r1_network.client[32] 	downloads[32] 	11869
scalar tree_4_3_u06_r1_network.client[32] 	avg_time[32] 	0.004923945662
scalar tree_4_3_u06_r1_network.client[33] 	hdistance[33] 	3.2566445182724
scalar tree_4_3_u06_r1_network.client[33] 	downloads[33] 	12040
scalar tree_4_3_u06_r1_network.client[33] 	avg_time[33] 	0.004934531816
scalar tree_4_3_u06_r1_network.client[34] 	hdistance[34] 	3.2574050896954
scalar tree_4_3_u06_r1_network.client[34] 	downloads[34] 	11985
scalar tree_4_3_u06_r1_network.client[34] 	avg_time[34] 	0.004938623133
scalar tree_4_3_u06_r1_network.client[35] 	hdistance[35] 	3.2677303483418
scalar tree_4_3_u06_r1_network.client[35] 	downloads[35] 	11971
scalar tree_4_3_u06_r1_network.client[35] 	avg_time[35] 	0.004953094261
scalar tree_4_3_u06_r1_network.client[36] 	hdistance[36] 	3.2564846274965
scalar tree_4_3_u06_r1_network.client[36] 	downloads[36] 	12067
scalar tree_4_3_u06_r1_network.client[36] 	avg_time[36] 	0.004930554505
scalar tree_4_3_u06_r1_network.client[37] 	hdistance[37] 	3.2623803235391
scalar tree_4_3_u06_r1_network.client[37] 	downloads[37] 	12116
scalar tree_4_3_u06_r1_network.client[37] 	avg_time[37] 	0.004947828445
scalar tree_4_3_u06_r1_network.client[38] 	hdistance[38] 	3.247594124599
scalar tree_4_3_u06_r1_network.client[38] 	downloads[38] 	11846
scalar tree_4_3_u06_r1_network.client[38] 	avg_time[38] 	0.004924988741
scalar tree_4_3_u06_r1_network.client[39] 	hdistance[39] 	3.2490528743205
scalar tree_4_3_u06_r1_network.client[39] 	downloads[39] 	12142
scalar tree_4_3_u06_r1_network.client[39] 	avg_time[39] 	0.00492916371
