version 2
run General-139-20160820-16:09:01-2644
attr a 0.9
attr cd lce
attr configname General
attr cr lru
attr datetime 20160820-16:09:01
attr experiment General
attr fsize 1
attr inifile hw5115/scenario_A/SPR-LCE.ini
attr iterationvars "$name=tree_4_3, $un=06, $rep=20, $cd=lce, $cr=lru, $fsize=1, $a=0.9, $sl=spr, $ttl=1000, $variance=0.05"
attr iterationvars2 "$name=tree_4_3, $un=06, $rep=20, $cd=lce, $cr=lru, $fsize=1, $a=0.9, $sl=spr, $ttl=1000, $variance=0.05, $repetition=0"
attr measurement "$name=tree_4_3, $un=06, $rep=20, $cd=lce, $cr=lru, $fsize=1, $a=0.9, $sl=spr, $ttl=1000, $variance=0.05"
attr name tree_4_3
attr network networks.${name}_u${un}_r${rep}_network
attr processid 2644
attr rep 20
attr repetition 0
attr replication #0
attr resultdir results
attr runnumber 139
attr seedset 20
attr sl spr
attr ttl 1000
attr un 06
attr variance 0.05

scalar . 	a 	0.9
scalar . 	fsize 	1
scalar . 	rep 	20
scalar . 	ttl 	1000
scalar . 	un 	06
scalar . 	variance 	0.05
scalar tree_4_3_u06_r20_network.content_distribution 	repo-0 	0
scalar tree_4_3_u06_r20_network.content_distribution 	client-0 	13
scalar tree_4_3_u06_r20_network.content_distribution 	client-1 	14
scalar tree_4_3_u06_r20_network.content_distribution 	client-2 	15
scalar tree_4_3_u06_r20_network.content_distribution 	client-3 	16
scalar tree_4_3_u06_r20_network.content_distribution 	client-4 	17
scalar tree_4_3_u06_r20_network.content_distribution 	client-5 	18
scalar tree_4_3_u06_r20_network.content_distribution 	client-6 	19
scalar tree_4_3_u06_r20_network.content_distribution 	client-7 	20
scalar tree_4_3_u06_r20_network.content_distribution 	client-8 	21
scalar tree_4_3_u06_r20_network.content_distribution 	client-9 	22
scalar tree_4_3_u06_r20_network.content_distribution 	client-10 	23
scalar tree_4_3_u06_r20_network.content_distribution 	client-11 	24
scalar tree_4_3_u06_r20_network.content_distribution 	client-12 	25
scalar tree_4_3_u06_r20_network.content_distribution 	client-13 	26
scalar tree_4_3_u06_r20_network.content_distribution 	client-14 	27
scalar tree_4_3_u06_r20_network.content_distribution 	client-15 	28
scalar tree_4_3_u06_r20_network.content_distribution 	client-16 	29
scalar tree_4_3_u06_r20_network.content_distribution 	client-17 	30
scalar tree_4_3_u06_r20_network.content_distribution 	client-18 	31
scalar tree_4_3_u06_r20_network.content_distribution 	client-19 	32
scalar tree_4_3_u06_r20_network.content_distribution 	client-20 	33
scalar tree_4_3_u06_r20_network.content_distribution 	client-21 	34
scalar tree_4_3_u06_r20_network.content_distribution 	client-22 	35
scalar tree_4_3_u06_r20_network.content_distribution 	client-23 	36
scalar tree_4_3_u06_r20_network.content_distribution 	client-24 	37
scalar tree_4_3_u06_r20_network.content_distribution 	client-25 	38
scalar tree_4_3_u06_r20_network.content_distribution 	client-26 	39
scalar tree_4_3_u06_r20_network.content_distribution 	repo-0_card 	100000
scalar tree_4_3_u06_r20_network.content_distribution 	repo-0_price 	0
scalar tree_4_3_u06_r20_network.statistics 	stabilization_time 	565.4
scalar tree_4_3_u06_r20_network.statistics 	p_hit 	0.11302586222036
scalar tree_4_3_u06_r20_network.statistics 	interests 	28124.25
scalar tree_4_3_u06_r20_network.statistics 	data 	20001.85
scalar tree_4_3_u06_r20_network.statistics 	hdistance 	3.2526553586626
scalar tree_4_3_u06_r20_network.statistics 	avg_time 	0.004925473539
scalar tree_4_3_u06_r20_network.statistics 	downloads 	324886
scalar tree_4_3_u06_r20_network.statistics 	total_cost 	0
scalar tree_4_3_u06_r20_network.statistics 	total_replicas 	100000
scalar tree_4_3_u06_r20_network.statistics 	inner_hit 	0.21041226768774
scalar tree_4_3_u06_r20_network.node[0].core_layer 	interests[0] 	260005
scalar tree_4_3_u06_r20_network.node[0].core_layer 	repo_load[0] 	256526
scalar tree_4_3_u06_r20_network.node[0].core_layer 	data[0] 	0
scalar tree_4_3_u06_r20_network.node[0].core_layer 	repo_int[0] 	256526
scalar tree_4_3_u06_r20_network.node[0].content_store 	p_hit[0] 	0.013380511913232
scalar tree_4_3_u06_r20_network.node[0].content_store 	hits[0] 	3479
scalar tree_4_3_u06_r20_network.node[0].content_store 	misses[0] 	256526
scalar tree_4_3_u06_r20_network.node[0].content_store 	decision_yes[0] 	256526
scalar tree_4_3_u06_r20_network.node[0].content_store 	decision_no[0] 	0
scalar tree_4_3_u06_r20_network.node[0].content_store 	decision_ratio[0] 	1
scalar tree_4_3_u06_r20_network.node[1].core_layer 	interests[1] 	186570
scalar tree_4_3_u06_r20_network.node[1].core_layer 	data[1] 	181771
scalar tree_4_3_u06_r20_network.node[1].content_store 	p_hit[1] 	0.025566811384467
scalar tree_4_3_u06_r20_network.node[1].content_store 	hits[1] 	4770
scalar tree_4_3_u06_r20_network.node[1].content_store 	misses[1] 	181800
scalar tree_4_3_u06_r20_network.node[1].content_store 	decision_yes[1] 	181771
scalar tree_4_3_u06_r20_network.node[1].content_store 	decision_no[1] 	0
scalar tree_4_3_u06_r20_network.node[1].content_store 	decision_ratio[1] 	1
scalar tree_4_3_u06_r20_network.node[2].core_layer 	interests[2] 	59818
scalar tree_4_3_u06_r20_network.node[2].core_layer 	data[2] 	58485
scalar tree_4_3_u06_r20_network.node[2].content_store 	p_hit[2] 	0.022217392758033
scalar tree_4_3_u06_r20_network.node[2].content_store 	hits[2] 	1329
scalar tree_4_3_u06_r20_network.node[2].content_store 	misses[2] 	58489
scalar tree_4_3_u06_r20_network.node[2].content_store 	decision_yes[2] 	58485
scalar tree_4_3_u06_r20_network.node[2].content_store 	decision_no[2] 	0
scalar tree_4_3_u06_r20_network.node[2].content_store 	decision_ratio[2] 	1
scalar tree_4_3_u06_r20_network.node[3].core_layer 	interests[3] 	19759
scalar tree_4_3_u06_r20_network.node[3].core_layer 	data[3] 	19749
scalar tree_4_3_u06_r20_network.node[3].content_store 	p_hit[3] 	0.00050609848676552
scalar tree_4_3_u06_r20_network.node[3].content_store 	hits[3] 	10
scalar tree_4_3_u06_r20_network.node[3].content_store 	misses[3] 	19749
scalar tree_4_3_u06_r20_network.node[3].content_store 	decision_yes[3] 	19749
scalar tree_4_3_u06_r20_network.node[3].content_store 	decision_no[3] 	0
scalar tree_4_3_u06_r20_network.node[3].content_store 	decision_ratio[3] 	1
scalar tree_4_3_u06_r20_network.node[4].core_layer 	interests[4] 	40745
scalar tree_4_3_u06_r20_network.node[4].core_layer 	data[4] 	39463
scalar tree_4_3_u06_r20_network.node[4].content_store 	p_hit[4] 	0.031316725978648
scalar tree_4_3_u06_r20_network.node[4].content_store 	hits[4] 	1276
scalar tree_4_3_u06_r20_network.node[4].content_store 	misses[4] 	39469
scalar tree_4_3_u06_r20_network.node[4].content_store 	decision_yes[4] 	39463
scalar tree_4_3_u06_r20_network.node[4].content_store 	decision_no[4] 	0
scalar tree_4_3_u06_r20_network.node[4].content_store 	decision_ratio[4] 	1
scalar tree_4_3_u06_r20_network.node[5].core_layer 	interests[5] 	30285
scalar tree_4_3_u06_r20_network.node[5].core_layer 	data[5] 	29386
scalar tree_4_3_u06_r20_network.node[5].content_store 	p_hit[5] 	0.029684662374113
scalar tree_4_3_u06_r20_network.node[5].content_store 	hits[5] 	899
scalar tree_4_3_u06_r20_network.node[5].content_store 	misses[5] 	29386
scalar tree_4_3_u06_r20_network.node[5].content_store 	decision_yes[5] 	29386
scalar tree_4_3_u06_r20_network.node[5].content_store 	decision_no[5] 	0
scalar tree_4_3_u06_r20_network.node[5].content_store 	decision_ratio[5] 	1
scalar tree_4_3_u06_r20_network.node[6].core_layer 	interests[6] 	20306
scalar tree_4_3_u06_r20_network.node[6].core_layer 	data[6] 	19858
scalar tree_4_3_u06_r20_network.node[6].content_store 	p_hit[6] 	0.021963951541416
scalar tree_4_3_u06_r20_network.node[6].content_store 	hits[6] 	446
scalar tree_4_3_u06_r20_network.node[6].content_store 	misses[6] 	19860
scalar tree_4_3_u06_r20_network.node[6].content_store 	decision_yes[6] 	19858
scalar tree_4_3_u06_r20_network.node[6].content_store 	decision_no[6] 	0
scalar tree_4_3_u06_r20_network.node[6].content_store 	decision_ratio[6] 	1
scalar tree_4_3_u06_r20_network.node[7].core_layer 	interests[7] 	50477
scalar tree_4_3_u06_r20_network.node[7].core_layer 	data[7] 	48752
scalar tree_4_3_u06_r20_network.node[7].content_store 	p_hit[7] 	0.034035303207401
scalar tree_4_3_u06_r20_network.node[7].content_store 	hits[7] 	1718
scalar tree_4_3_u06_r20_network.node[7].content_store 	misses[7] 	48759
scalar tree_4_3_u06_r20_network.node[7].content_store 	decision_yes[7] 	48752
scalar tree_4_3_u06_r20_network.node[7].content_store 	decision_no[7] 	0
scalar tree_4_3_u06_r20_network.node[7].content_store 	decision_ratio[7] 	1
scalar tree_4_3_u06_r20_network.node[8].core_layer 	interests[8] 	30775
scalar tree_4_3_u06_r20_network.node[8].core_layer 	data[8] 	29894
scalar tree_4_3_u06_r20_network.node[8].content_store 	p_hit[8] 	0.028562144597888
scalar tree_4_3_u06_r20_network.node[8].content_store 	hits[8] 	879
scalar tree_4_3_u06_r20_network.node[8].content_store 	misses[8] 	29896
scalar tree_4_3_u06_r20_network.node[8].content_store 	decision_yes[8] 	29894
scalar tree_4_3_u06_r20_network.node[8].content_store 	decision_no[8] 	0
scalar tree_4_3_u06_r20_network.node[8].content_store 	decision_ratio[8] 	1
scalar tree_4_3_u06_r20_network.node[9].core_layer 	interests[9] 	10260
scalar tree_4_3_u06_r20_network.node[9].core_layer 	data[9] 	10232
scalar tree_4_3_u06_r20_network.node[9].content_store 	p_hit[9] 	0.0028265107212476
scalar tree_4_3_u06_r20_network.node[9].content_store 	hits[9] 	29
scalar tree_4_3_u06_r20_network.node[9].content_store 	misses[9] 	10231
scalar tree_4_3_u06_r20_network.node[9].content_store 	decision_yes[9] 	10232
scalar tree_4_3_u06_r20_network.node[9].content_store 	decision_no[9] 	0
scalar tree_4_3_u06_r20_network.node[9].content_store 	decision_ratio[9] 	1
scalar tree_4_3_u06_r20_network.node[10].core_layer 	interests[10] 	50726
scalar tree_4_3_u06_r20_network.node[10].core_layer 	data[10] 	49110
scalar tree_4_3_u06_r20_network.node[10].content_store 	p_hit[10] 	0.031778575089698
scalar tree_4_3_u06_r20_network.node[10].content_store 	hits[10] 	1612
scalar tree_4_3_u06_r20_network.node[10].content_store 	misses[10] 	49114
scalar tree_4_3_u06_r20_network.node[10].content_store 	decision_yes[10] 	49110
scalar tree_4_3_u06_r20_network.node[10].content_store 	decision_no[10] 	0
scalar tree_4_3_u06_r20_network.node[10].content_store 	decision_ratio[10] 	1
scalar tree_4_3_u06_r20_network.node[11].core_layer 	interests[11] 	20153
scalar tree_4_3_u06_r20_network.node[11].core_layer 	data[11] 	19693
scalar tree_4_3_u06_r20_network.node[11].content_store 	p_hit[11] 	0.02282538579864
scalar tree_4_3_u06_r20_network.node[11].content_store 	hits[11] 	460
scalar tree_4_3_u06_r20_network.node[11].content_store 	misses[11] 	19693
scalar tree_4_3_u06_r20_network.node[11].content_store 	decision_yes[11] 	19693
scalar tree_4_3_u06_r20_network.node[11].content_store 	decision_no[11] 	0
scalar tree_4_3_u06_r20_network.node[11].content_store 	decision_ratio[11] 	1
scalar tree_4_3_u06_r20_network.node[12].core_layer 	interests[12] 	20192
scalar tree_4_3_u06_r20_network.node[12].core_layer 	data[12] 	19759
scalar tree_4_3_u06_r20_network.node[12].content_store 	p_hit[12] 	0.021444136291601
scalar tree_4_3_u06_r20_network.node[12].content_store 	hits[12] 	433
scalar tree_4_3_u06_r20_network.node[12].content_store 	misses[12] 	19759
scalar tree_4_3_u06_r20_network.node[12].content_store 	decision_yes[12] 	19759
scalar tree_4_3_u06_r20_network.node[12].content_store 	decision_no[12] 	0
scalar tree_4_3_u06_r20_network.node[12].content_store 	decision_ratio[12] 	1
scalar tree_4_3_u06_r20_network.node[13].core_layer 	interests[13] 	12042
scalar tree_4_3_u06_r20_network.node[13].core_layer 	data[13] 	10164
scalar tree_4_3_u06_r20_network.node[13].content_store 	p_hit[13] 	0.15587111775453
scalar tree_4_3_u06_r20_network.node[13].content_store 	hits[13] 	1877
scalar tree_4_3_u06_r20_network.node[13].content_store 	misses[13] 	10165
scalar tree_4_3_u06_r20_network.node[13].content_store 	decision_yes[13] 	10164
scalar tree_4_3_u06_r20_network.node[13].content_store 	decision_no[13] 	0
scalar tree_4_3_u06_r20_network.node[13].content_store 	decision_ratio[13] 	1
scalar tree_4_3_u06_r20_network.node[14].core_layer 	interests[14] 	11860
scalar tree_4_3_u06_r20_network.node[14].core_layer 	data[14] 	9935
scalar tree_4_3_u06_r20_network.node[14].content_store 	p_hit[14] 	0.16222596964587
scalar tree_4_3_u06_r20_network.node[14].content_store 	hits[14] 	1924
scalar tree_4_3_u06_r20_network.node[14].content_store 	misses[14] 	9936
scalar tree_4_3_u06_r20_network.node[14].content_store 	decision_yes[14] 	9935
scalar tree_4_3_u06_r20_network.node[14].content_store 	decision_no[14] 	0
scalar tree_4_3_u06_r20_network.node[14].content_store 	decision_ratio[14] 	1
scalar tree_4_3_u06_r20_network.node[15].core_layer 	interests[15] 	12159
scalar tree_4_3_u06_r20_network.node[15].core_layer 	data[15] 	10223
scalar tree_4_3_u06_r20_network.node[15].content_store 	p_hit[15] 	0.15914137675796
scalar tree_4_3_u06_r20_network.node[15].content_store 	hits[15] 	1935
scalar tree_4_3_u06_r20_network.node[15].content_store 	misses[15] 	10224
scalar tree_4_3_u06_r20_network.node[15].content_store 	decision_yes[15] 	10223
scalar tree_4_3_u06_r20_network.node[15].content_store 	decision_no[15] 	0
scalar tree_4_3_u06_r20_network.node[15].content_store 	decision_ratio[15] 	1
scalar tree_4_3_u06_r20_network.node[16].core_layer 	interests[16] 	11773
scalar tree_4_3_u06_r20_network.node[16].core_layer 	data[16] 	10028
scalar tree_4_3_u06_r20_network.node[16].content_store 	p_hit[16] 	0.14805062430986
scalar tree_4_3_u06_r20_network.node[16].content_store 	hits[16] 	1743
scalar tree_4_3_u06_r20_network.node[16].content_store 	misses[16] 	10030
scalar tree_4_3_u06_r20_network.node[16].content_store 	decision_yes[16] 	10028
scalar tree_4_3_u06_r20_network.node[16].content_store 	decision_no[16] 	0
scalar tree_4_3_u06_r20_network.node[16].content_store 	decision_ratio[16] 	1
scalar tree_4_3_u06_r20_network.node[17].core_layer 	interests[17] 	11951
scalar tree_4_3_u06_r20_network.node[17].core_layer 	data[17] 	10153
scalar tree_4_3_u06_r20_network.node[17].content_store 	p_hit[17] 	0.1503639862773
scalar tree_4_3_u06_r20_network.node[17].content_store 	hits[17] 	1797
scalar tree_4_3_u06_r20_network.node[17].content_store 	misses[17] 	10154
scalar tree_4_3_u06_r20_network.node[17].content_store 	decision_yes[17] 	10153
scalar tree_4_3_u06_r20_network.node[17].content_store 	decision_no[17] 	0
scalar tree_4_3_u06_r20_network.node[17].content_store 	decision_ratio[17] 	1
scalar tree_4_3_u06_r20_network.node[18].core_layer 	interests[18] 	12012
scalar tree_4_3_u06_r20_network.node[18].core_layer 	data[18] 	10104
scalar tree_4_3_u06_r20_network.node[18].content_store 	p_hit[18] 	0.15884115884116
scalar tree_4_3_u06_r20_network.node[18].content_store 	hits[18] 	1908
scalar tree_4_3_u06_r20_network.node[18].content_store 	misses[18] 	10104
scalar tree_4_3_u06_r20_network.node[18].content_store 	decision_yes[18] 	10104
scalar tree_4_3_u06_r20_network.node[18].content_store 	decision_no[18] 	0
scalar tree_4_3_u06_r20_network.node[18].content_store 	decision_ratio[18] 	1
scalar tree_4_3_u06_r20_network.node[19].core_layer 	interests[19] 	12344
scalar tree_4_3_u06_r20_network.node[19].core_layer 	data[19] 	10422
scalar tree_4_3_u06_r20_network.node[19].content_store 	p_hit[19] 	0.15554115359689
scalar tree_4_3_u06_r20_network.node[19].content_store 	hits[19] 	1920
scalar tree_4_3_u06_r20_network.node[19].content_store 	misses[19] 	10424
scalar tree_4_3_u06_r20_network.node[19].content_store 	decision_yes[19] 	10422
scalar tree_4_3_u06_r20_network.node[19].content_store 	decision_no[19] 	0
scalar tree_4_3_u06_r20_network.node[19].content_store 	decision_ratio[19] 	1
scalar tree_4_3_u06_r20_network.node[20].core_layer 	interests[20] 	11963
scalar tree_4_3_u06_r20_network.node[20].core_layer 	data[20] 	10073
scalar tree_4_3_u06_r20_network.node[20].content_store 	p_hit[20] 	0.15790353590237
scalar tree_4_3_u06_r20_network.node[20].content_store 	hits[20] 	1889
scalar tree_4_3_u06_r20_network.node[20].content_store 	misses[20] 	10074
scalar tree_4_3_u06_r20_network.node[20].content_store 	decision_yes[20] 	10073
scalar tree_4_3_u06_r20_network.node[20].content_store 	decision_no[20] 	0
scalar tree_4_3_u06_r20_network.node[20].content_store 	decision_ratio[20] 	1
scalar tree_4_3_u06_r20_network.node[21].core_layer 	interests[21] 	12106
scalar tree_4_3_u06_r20_network.node[21].core_layer 	data[21] 	10233
scalar tree_4_3_u06_r20_network.node[21].content_store 	p_hit[21] 	0.15471666942012
scalar tree_4_3_u06_r20_network.node[21].content_store 	hits[21] 	1873
scalar tree_4_3_u06_r20_network.node[21].content_store 	misses[21] 	10233
scalar tree_4_3_u06_r20_network.node[21].content_store 	decision_yes[21] 	10233
scalar tree_4_3_u06_r20_network.node[21].content_store 	decision_no[21] 	0
scalar tree_4_3_u06_r20_network.node[21].content_store 	decision_ratio[21] 	1
scalar tree_4_3_u06_r20_network.node[22].core_layer 	interests[22] 	11827
scalar tree_4_3_u06_r20_network.node[22].core_layer 	data[22] 	9955
scalar tree_4_3_u06_r20_network.node[22].content_store 	p_hit[22] 	0.15828189735351
scalar tree_4_3_u06_r20_network.node[22].content_store 	hits[22] 	1872
scalar tree_4_3_u06_r20_network.node[22].content_store 	misses[22] 	9955
scalar tree_4_3_u06_r20_network.node[22].content_store 	decision_yes[22] 	9955
scalar tree_4_3_u06_r20_network.node[22].content_store 	decision_no[22] 	0
scalar tree_4_3_u06_r20_network.node[22].content_store 	decision_ratio[22] 	1
scalar tree_4_3_u06_r20_network.node[23].core_layer 	interests[23] 	12207
scalar tree_4_3_u06_r20_network.node[23].core_layer 	data[23] 	10210
scalar tree_4_3_u06_r20_network.node[23].content_store 	p_hit[23] 	0.16351273859261
scalar tree_4_3_u06_r20_network.node[23].content_store 	hits[23] 	1996
scalar tree_4_3_u06_r20_network.node[23].content_store 	misses[23] 	10211
scalar tree_4_3_u06_r20_network.node[23].content_store 	decision_yes[23] 	10210
scalar tree_4_3_u06_r20_network.node[23].content_store 	decision_no[23] 	0
scalar tree_4_3_u06_r20_network.node[23].content_store 	decision_ratio[23] 	1
scalar tree_4_3_u06_r20_network.node[24].core_layer 	interests[24] 	12002
scalar tree_4_3_u06_r20_network.node[24].core_layer 	data[24] 	10090
scalar tree_4_3_u06_r20_network.node[24].content_store 	p_hit[24] 	0.15922346275621
scalar tree_4_3_u06_r20_network.node[24].content_store 	hits[24] 	1911
scalar tree_4_3_u06_r20_network.node[24].content_store 	misses[24] 	10091
scalar tree_4_3_u06_r20_network.node[24].content_store 	decision_yes[24] 	10090
scalar tree_4_3_u06_r20_network.node[24].content_store 	decision_no[24] 	0
scalar tree_4_3_u06_r20_network.node[24].content_store 	decision_ratio[24] 	1
scalar tree_4_3_u06_r20_network.node[25].core_layer 	interests[25] 	12160
scalar tree_4_3_u06_r20_network.node[25].core_layer 	data[25] 	10157
scalar tree_4_3_u06_r20_network.node[25].content_store 	p_hit[25] 	0.16463815789474
scalar tree_4_3_u06_r20_network.node[25].content_store 	hits[25] 	2002
scalar tree_4_3_u06_r20_network.node[25].content_store 	misses[25] 	10158
scalar tree_4_3_u06_r20_network.node[25].content_store 	decision_yes[25] 	10157
scalar tree_4_3_u06_r20_network.node[25].content_store 	decision_no[25] 	0
scalar tree_4_3_u06_r20_network.node[25].content_store 	decision_ratio[25] 	1
scalar tree_4_3_u06_r20_network.node[26].core_layer 	interests[26] 	12136
scalar tree_4_3_u06_r20_network.node[26].core_layer 	data[26] 	10225
scalar tree_4_3_u06_r20_network.node[26].content_store 	p_hit[26] 	0.15746539222149
scalar tree_4_3_u06_r20_network.node[26].content_store 	hits[26] 	1911
scalar tree_4_3_u06_r20_network.node[26].content_store 	misses[26] 	10225
scalar tree_4_3_u06_r20_network.node[26].content_store 	decision_yes[26] 	10225
scalar tree_4_3_u06_r20_network.node[26].content_store 	decision_no[26] 	0
scalar tree_4_3_u06_r20_network.node[26].content_store 	decision_ratio[26] 	1
scalar tree_4_3_u06_r20_network.node[27].core_layer 	interests[27] 	12125
scalar tree_4_3_u06_r20_network.node[27].core_layer 	data[27] 	10207
scalar tree_4_3_u06_r20_network.node[27].content_store 	p_hit[27] 	0.15818556701031
scalar tree_4_3_u06_r20_network.node[27].content_store 	hits[27] 	1918
scalar tree_4_3_u06_r20_network.node[27].content_store 	misses[27] 	10207
scalar tree_4_3_u06_r20_network.node[27].content_store 	decision_yes[27] 	10207
scalar tree_4_3_u06_r20_network.node[27].content_store 	decision_no[27] 	0
scalar tree_4_3_u06_r20_network.node[27].content_store 	decision_ratio[27] 	1
scalar tree_4_3_u06_r20_network.node[28].core_layer 	interests[28] 	12052
scalar tree_4_3_u06_r20_network.node[28].core_layer 	data[28] 	10066
scalar tree_4_3_u06_r20_network.node[28].content_store 	p_hit[28] 	0.16478592764686
scalar tree_4_3_u06_r20_network.node[28].content_store 	hits[28] 	1986
scalar tree_4_3_u06_r20_network.node[28].content_store 	misses[28] 	10066
scalar tree_4_3_u06_r20_network.node[28].content_store 	decision_yes[28] 	10066
scalar tree_4_3_u06_r20_network.node[28].content_store 	decision_no[28] 	0
scalar tree_4_3_u06_r20_network.node[28].content_store 	decision_ratio[28] 	1
scalar tree_4_3_u06_r20_network.node[29].core_layer 	interests[29] 	12183
scalar tree_4_3_u06_r20_network.node[29].core_layer 	data[29] 	10343
scalar tree_4_3_u06_r20_network.node[29].content_store 	p_hit[29] 	0.1510301239432
scalar tree_4_3_u06_r20_network.node[29].content_store 	hits[29] 	1840
scalar tree_4_3_u06_r20_network.node[29].content_store 	misses[29] 	10343
scalar tree_4_3_u06_r20_network.node[29].content_store 	decision_yes[29] 	10343
scalar tree_4_3_u06_r20_network.node[29].content_store 	decision_no[29] 	0
scalar tree_4_3_u06_r20_network.node[29].content_store 	decision_ratio[29] 	1
scalar tree_4_3_u06_r20_network.node[30].core_layer 	interests[30] 	12154
scalar tree_4_3_u06_r20_network.node[30].core_layer 	data[30] 	10261
scalar tree_4_3_u06_r20_network.node[30].content_store 	p_hit[30] 	0.1558334704624
scalar tree_4_3_u06_r20_network.node[30].content_store 	hits[30] 	1894
scalar tree_4_3_u06_r20_network.node[30].content_store 	misses[30] 	10260
scalar tree_4_3_u06_r20_network.node[30].content_store 	decision_yes[30] 	10261
scalar tree_4_3_u06_r20_network.node[30].content_store 	decision_no[30] 	0
scalar tree_4_3_u06_r20_network.node[30].content_store 	decision_ratio[30] 	1
scalar tree_4_3_u06_r20_network.node[31].core_layer 	interests[31] 	12066
scalar tree_4_3_u06_r20_network.node[31].core_layer 	data[31] 	10211
scalar tree_4_3_u06_r20_network.node[31].content_store 	p_hit[31] 	0.15373777556771
scalar tree_4_3_u06_r20_network.node[31].content_store 	hits[31] 	1855
scalar tree_4_3_u06_r20_network.node[31].content_store 	misses[31] 	10211
scalar tree_4_3_u06_r20_network.node[31].content_store 	decision_yes[31] 	10211
scalar tree_4_3_u06_r20_network.node[31].content_store 	decision_no[31] 	0
scalar tree_4_3_u06_r20_network.node[31].content_store 	decision_ratio[31] 	1
scalar tree_4_3_u06_r20_network.node[32].core_layer 	interests[32] 	12042
scalar tree_4_3_u06_r20_network.node[32].core_layer 	data[32] 	10209
scalar tree_4_3_u06_r20_network.node[32].content_store 	p_hit[32] 	0.15230028234513
scalar tree_4_3_u06_r20_network.node[32].content_store 	hits[32] 	1834
scalar tree_4_3_u06_r20_network.node[32].content_store 	misses[32] 	10208
scalar tree_4_3_u06_r20_network.node[32].content_store 	decision_yes[32] 	10209
scalar tree_4_3_u06_r20_network.node[32].content_store 	decision_no[32] 	0
scalar tree_4_3_u06_r20_network.node[32].content_store 	decision_ratio[32] 	1
scalar tree_4_3_u06_r20_network.node[33].core_layer 	interests[33] 	11945
scalar tree_4_3_u06_r20_network.node[33].core_layer 	data[33] 	10093
scalar tree_4_3_u06_r20_network.node[33].content_store 	p_hit[33] 	0.15504395144412
scalar tree_4_3_u06_r20_network.node[33].content_store 	hits[33] 	1852
scalar tree_4_3_u06_r20_network.node[33].content_store 	misses[33] 	10093
scalar tree_4_3_u06_r20_network.node[33].content_store 	decision_yes[33] 	10093
scalar tree_4_3_u06_r20_network.node[33].content_store 	decision_no[33] 	0
scalar tree_4_3_u06_r20_network.node[33].content_store 	decision_ratio[33] 	1
scalar tree_4_3_u06_r20_network.node[34].core_layer 	interests[34] 	12076
scalar tree_4_3_u06_r20_network.node[34].core_layer 	data[34] 	10090
scalar tree_4_3_u06_r20_network.node[34].content_store 	p_hit[34] 	0.16445842994369
scalar tree_4_3_u06_r20_network.node[34].content_store 	hits[34] 	1986
scalar tree_4_3_u06_r20_network.node[34].content_store 	misses[34] 	10090
scalar tree_4_3_u06_r20_network.node[34].content_store 	decision_yes[34] 	10090
scalar tree_4_3_u06_r20_network.node[34].content_store 	decision_no[34] 	0
scalar tree_4_3_u06_r20_network.node[34].content_store 	decision_ratio[34] 	1
scalar tree_4_3_u06_r20_network.node[35].core_layer 	interests[35] 	11968
scalar tree_4_3_u06_r20_network.node[35].core_layer 	data[35] 	10099
scalar tree_4_3_u06_r20_network.node[35].content_store 	p_hit[35] 	0.15608288770053
scalar tree_4_3_u06_r20_network.node[35].content_store 	hits[35] 	1868
scalar tree_4_3_u06_r20_network.node[35].content_store 	misses[35] 	10100
scalar tree_4_3_u06_r20_network.node[35].content_store 	decision_yes[35] 	10099
scalar tree_4_3_u06_r20_network.node[35].content_store 	decision_no[35] 	0
scalar tree_4_3_u06_r20_network.node[35].content_store 	decision_ratio[35] 	1
scalar tree_4_3_u06_r20_network.node[36].core_layer 	interests[36] 	11894
scalar tree_4_3_u06_r20_network.node[36].core_layer 	data[36] 	10054
scalar tree_4_3_u06_r20_network.node[36].content_store 	p_hit[36] 	0.15461577265848
scalar tree_4_3_u06_r20_network.node[36].content_store 	hits[36] 	1839
scalar tree_4_3_u06_r20_network.node[36].content_store 	misses[36] 	10055
scalar tree_4_3_u06_r20_network.node[36].content_store 	decision_yes[36] 	10054
scalar tree_4_3_u06_r20_network.node[36].content_store 	decision_no[36] 	0
scalar tree_4_3_u06_r20_network.node[36].content_store 	decision_ratio[36] 	1
scalar tree_4_3_u06_r20_network.node[37].core_layer 	interests[37] 	11939
scalar tree_4_3_u06_r20_network.node[37].core_layer 	data[37] 	10125
scalar tree_4_3_u06_r20_network.node[37].content_store 	p_hit[37] 	0.15185526425999
scalar tree_4_3_u06_r20_network.node[37].content_store 	hits[37] 	1813
scalar tree_4_3_u06_r20_network.node[37].content_store 	misses[37] 	10126
scalar tree_4_3_u06_r20_network.node[37].content_store 	decision_yes[37] 	10125
scalar tree_4_3_u06_r20_network.node[37].content_store 	decision_no[37] 	0
scalar tree_4_3_u06_r20_network.node[37].content_store 	decision_ratio[37] 	1
scalar tree_4_3_u06_r20_network.node[38].core_layer 	interests[38] 	11925
scalar tree_4_3_u06_r20_network.node[38].core_layer 	data[38] 	10051
scalar tree_4_3_u06_r20_network.node[38].content_store 	p_hit[38] 	0.15714884696017
scalar tree_4_3_u06_r20_network.node[38].content_store 	hits[38] 	1874
scalar tree_4_3_u06_r20_network.node[38].content_store 	misses[38] 	10051
scalar tree_4_3_u06_r20_network.node[38].content_store 	decision_yes[38] 	10051
scalar tree_4_3_u06_r20_network.node[38].content_store 	decision_no[38] 	0
scalar tree_4_3_u06_r20_network.node[38].content_store 	decision_ratio[38] 	1
scalar tree_4_3_u06_r20_network.node[39].core_layer 	interests[39] 	11988
scalar tree_4_3_u06_r20_network.node[39].core_layer 	data[39] 	10141
scalar tree_4_3_u06_r20_network.node[39].content_store 	p_hit[39] 	0.15407073740407
scalar tree_4_3_u06_r20_network.node[39].content_store 	hits[39] 	1847
scalar tree_4_3_u06_r20_network.node[39].content_store 	misses[39] 	10141
scalar tree_4_3_u06_r20_network.node[39].content_store 	decision_yes[39] 	10141
scalar tree_4_3_u06_r20_network.node[39].content_store 	decision_no[39] 	0
scalar tree_4_3_u06_r20_network.node[39].content_store 	decision_ratio[39] 	1
scalar tree_4_3_u06_r20_network.client[13] 	hdistance[13] 	3.2402624366747
scalar tree_4_3_u06_r20_network.client[13] 	downloads[13] 	12041
scalar tree_4_3_u06_r20_network.client[13] 	avg_time[13] 	0.004908237591
scalar tree_4_3_u06_r20_network.client[14] 	hdistance[14] 	3.2237119487309
scalar tree_4_3_u06_r20_network.client[14] 	downloads[14] 	11859
scalar tree_4_3_u06_r20_network.client[14] 	avg_time[14] 	0.004879285938
scalar tree_4_3_u06_r20_network.client[15] 	hdistance[15] 	3.235071557822
scalar tree_4_3_u06_r20_network.client[15] 	downloads[15] 	12158
scalar tree_4_3_u06_r20_network.client[15] 	avg_time[15] 	0.004897539808
scalar tree_4_3_u06_r20_network.client[16] 	hdistance[16] 	3.276272194376
scalar tree_4_3_u06_r20_network.client[16] 	downloads[16] 	11771
scalar tree_4_3_u06_r20_network.client[16] 	avg_time[16] 	0.004960563522
scalar tree_4_3_u06_r20_network.client[17] 	hdistance[17] 	3.2776569037657
scalar tree_4_3_u06_r20_network.client[17] 	downloads[17] 	11950
scalar tree_4_3_u06_r20_network.client[17] 	avg_time[17] 	0.004960861682
scalar tree_4_3_u06_r20_network.client[18] 	hdistance[18] 	3.2321012321012
scalar tree_4_3_u06_r20_network.client[18] 	downloads[18] 	12012
scalar tree_4_3_u06_r20_network.client[18] 	avg_time[18] 	0.004896267385
scalar tree_4_3_u06_r20_network.client[19] 	hdistance[19] 	3.2446929184897
scalar tree_4_3_u06_r20_network.client[19] 	downloads[19] 	12342
scalar tree_4_3_u06_r20_network.client[19] 	avg_time[19] 	0.004914518253
scalar tree_4_3_u06_r20_network.client[20] 	hdistance[20] 	3.2567296438723
scalar tree_4_3_u06_r20_network.client[20] 	downloads[20] 	11962
scalar tree_4_3_u06_r20_network.client[20] 	avg_time[20] 	0.004926763037
scalar tree_4_3_u06_r20_network.client[21] 	hdistance[21] 	3.2692879563853
scalar tree_4_3_u06_r20_network.client[21] 	downloads[21] 	12106
scalar tree_4_3_u06_r20_network.client[21] 	avg_time[21] 	0.00494879776
scalar tree_4_3_u06_r20_network.client[22] 	hdistance[22] 	3.2401285194893
scalar tree_4_3_u06_r20_network.client[22] 	downloads[22] 	11827
scalar tree_4_3_u06_r20_network.client[22] 	avg_time[22] 	0.004902007627
scalar tree_4_3_u06_r20_network.client[23] 	hdistance[23] 	3.2212846141242
scalar tree_4_3_u06_r20_network.client[23] 	downloads[23] 	12206
scalar tree_4_3_u06_r20_network.client[23] 	avg_time[23] 	0.004874452635
scalar tree_4_3_u06_r20_network.client[24] 	hdistance[24] 	3.2248145987834
scalar tree_4_3_u06_r20_network.client[24] 	downloads[24] 	12001
scalar tree_4_3_u06_r20_network.client[24] 	avg_time[24] 	0.004883163851
scalar tree_4_3_u06_r20_network.client[25] 	hdistance[25] 	3.2113660662883
scalar tree_4_3_u06_r20_network.client[25] 	downloads[25] 	12159
scalar tree_4_3_u06_r20_network.client[25] 	avg_time[25] 	0.004860252324
scalar tree_4_3_u06_r20_network.client[26] 	hdistance[26] 	3.2500823994726
scalar tree_4_3_u06_r20_network.client[26] 	downloads[26] 	12136
scalar tree_4_3_u06_r20_network.client[26] 	avg_time[26] 	0.00492798699
scalar tree_4_3_u06_r20_network.client[27] 	hdistance[27] 	3.2494020618557
scalar tree_4_3_u06_r20_network.client[27] 	downloads[27] 	12125
scalar tree_4_3_u06_r20_network.client[27] 	avg_time[27] 	0.004926977599
scalar tree_4_3_u06_r20_network.client[28] 	hdistance[28] 	3.206687686691
scalar tree_4_3_u06_r20_network.client[28] 	downloads[28] 	12052
scalar tree_4_3_u06_r20_network.client[28] 	avg_time[28] 	0.004854774392
scalar tree_4_3_u06_r20_network.client[29] 	hdistance[29] 	3.2727571205779
scalar tree_4_3_u06_r20_network.client[29] 	downloads[29] 	12183
scalar tree_4_3_u06_r20_network.client[29] 	avg_time[29] 	0.004964523893
scalar tree_4_3_u06_r20_network.client[30] 	hdistance[30] 	3.3023447141094
scalar tree_4_3_u06_r20_network.client[30] 	downloads[30] 	12155
scalar tree_4_3_u06_r20_network.client[30] 	avg_time[30] 	0.005007029477
scalar tree_4_3_u06_r20_network.client[31] 	hdistance[31] 	3.2627216973313
scalar tree_4_3_u06_r20_network.client[31] 	downloads[31] 	12066
scalar tree_4_3_u06_r20_network.client[31] 	avg_time[31] 	0.004935928739
scalar tree_4_3_u06_r20_network.client[32] 	hdistance[32] 	3.2647180934983
scalar tree_4_3_u06_r20_network.client[32] 	downloads[32] 	12043
scalar tree_4_3_u06_r20_network.client[32] 	avg_time[32] 	0.004939463882
scalar tree_4_3_u06_r20_network.client[33] 	hdistance[33] 	3.2550020929259
scalar tree_4_3_u06_r20_network.client[33] 	downloads[33] 	11945
scalar tree_4_3_u06_r20_network.client[33] 	avg_time[33] 	0.004924040882
scalar tree_4_3_u06_r20_network.client[34] 	hdistance[34] 	3.216628022524
scalar tree_4_3_u06_r20_network.client[34] 	downloads[34] 	12076
scalar tree_4_3_u06_r20_network.client[34] 	avg_time[34] 	0.004867355099
scalar tree_4_3_u06_r20_network.client[35] 	hdistance[35] 	3.2629731762346
scalar tree_4_3_u06_r20_network.client[35] 	downloads[35] 	11967
scalar tree_4_3_u06_r20_network.client[35] 	avg_time[35] 	0.004949431639
scalar tree_4_3_u06_r20_network.client[36] 	hdistance[36] 	3.2607416127134
scalar tree_4_3_u06_r20_network.client[36] 	downloads[36] 	11893
scalar tree_4_3_u06_r20_network.client[36] 	avg_time[36] 	0.004950134163
scalar tree_4_3_u06_r20_network.client[37] 	hdistance[37] 	3.2647009549338
scalar tree_4_3_u06_r20_network.client[37] 	downloads[37] 	11938
scalar tree_4_3_u06_r20_network.client[37] 	avg_time[37] 	0.004941291018
scalar tree_4_3_u06_r20_network.client[38] 	hdistance[38] 	3.2929979035639
scalar tree_4_3_u06_r20_network.client[38] 	downloads[38] 	11925
scalar tree_4_3_u06_r20_network.client[38] 	avg_time[38] 	0.004982135382
scalar tree_4_3_u06_r20_network.client[39] 	hdistance[39] 	3.3065565565566
scalar tree_4_3_u06_r20_network.client[39] 	downloads[39] 	11988
scalar tree_4_3_u06_r20_network.client[39] 	avg_time[39] 	0.005004001
