version 2
run General-5-20160830-13:46:47-31327
attr a 0.9
attr branch 3
attr cd wfc0.01
attr configname General
attr cr lru
attr datetime 20160830-13:46:47
attr experiment General
attr fsize 1
attr inifile hw5115/scenario_E/omnetp.ini
attr iterationvars "$name=tree, $levels=5, $branch=3, $un=00, $rep=1, $cd=wfc0.01, $cr=lru, $fsize=1, $a=0.9, $sl=nrr, $ttl=1000, $variance=0.05"
attr iterationvars2 "$name=tree, $levels=5, $branch=3, $un=00, $rep=1, $cd=wfc0.01, $cr=lru, $fsize=1, $a=0.9, $sl=nrr, $ttl=1000, $variance=0.05, $repetition=0"
attr levels 5
attr measurement "$name=tree, $levels=5, $branch=3, $un=00, $rep=1, $cd=wfc0.01, $cr=lru, $fsize=1, $a=0.9, $sl=nrr, $ttl=1000, $variance=0.05"
attr name tree
attr network networks.${name}_${levels}_${branch}_u${un}_r${rep}_network
attr processid 31327
attr rep 1
attr repetition 0
attr replication #0
attr resultdir results
attr runnumber 5
attr seedset 1
attr sl nrr
attr ttl 1000
attr un 00
attr variance 0.05

scalar . 	a 	0.9
scalar . 	branch 	3
scalar . 	fsize 	1
scalar . 	levels 	5
scalar . 	rep 	1
scalar . 	ttl 	1000
scalar . 	un 	00
scalar . 	variance 	0.05
scalar tree_5_3_u00_r1_network.content_distribution 	repo-0 	0
scalar tree_5_3_u00_r1_network.content_distribution 	client-0 	120
scalar tree_5_3_u00_r1_network.content_distribution 	client-1 	119
scalar tree_5_3_u00_r1_network.content_distribution 	client-2 	118
scalar tree_5_3_u00_r1_network.content_distribution 	client-3 	117
scalar tree_5_3_u00_r1_network.content_distribution 	client-4 	116
scalar tree_5_3_u00_r1_network.content_distribution 	client-5 	115
scalar tree_5_3_u00_r1_network.content_distribution 	client-6 	114
scalar tree_5_3_u00_r1_network.content_distribution 	client-7 	113
scalar tree_5_3_u00_r1_network.content_distribution 	client-8 	112
scalar tree_5_3_u00_r1_network.content_distribution 	client-9 	111
scalar tree_5_3_u00_r1_network.content_distribution 	client-10 	110
scalar tree_5_3_u00_r1_network.content_distribution 	client-11 	109
scalar tree_5_3_u00_r1_network.content_distribution 	client-12 	108
scalar tree_5_3_u00_r1_network.content_distribution 	client-13 	107
scalar tree_5_3_u00_r1_network.content_distribution 	client-14 	106
scalar tree_5_3_u00_r1_network.content_distribution 	client-15 	105
scalar tree_5_3_u00_r1_network.content_distribution 	client-16 	104
scalar tree_5_3_u00_r1_network.content_distribution 	client-17 	103
scalar tree_5_3_u00_r1_network.content_distribution 	client-18 	102
scalar tree_5_3_u00_r1_network.content_distribution 	client-19 	101
scalar tree_5_3_u00_r1_network.content_distribution 	client-20 	100
scalar tree_5_3_u00_r1_network.content_distribution 	client-21 	99
scalar tree_5_3_u00_r1_network.content_distribution 	client-22 	98
scalar tree_5_3_u00_r1_network.content_distribution 	client-23 	97
scalar tree_5_3_u00_r1_network.content_distribution 	client-24 	96
scalar tree_5_3_u00_r1_network.content_distribution 	client-25 	95
scalar tree_5_3_u00_r1_network.content_distribution 	client-26 	94
scalar tree_5_3_u00_r1_network.content_distribution 	client-27 	93
scalar tree_5_3_u00_r1_network.content_distribution 	client-28 	92
scalar tree_5_3_u00_r1_network.content_distribution 	client-29 	91
scalar tree_5_3_u00_r1_network.content_distribution 	client-30 	90
scalar tree_5_3_u00_r1_network.content_distribution 	client-31 	89
scalar tree_5_3_u00_r1_network.content_distribution 	client-32 	88
scalar tree_5_3_u00_r1_network.content_distribution 	client-33 	87
scalar tree_5_3_u00_r1_network.content_distribution 	client-34 	86
scalar tree_5_3_u00_r1_network.content_distribution 	client-35 	85
scalar tree_5_3_u00_r1_network.content_distribution 	client-36 	84
scalar tree_5_3_u00_r1_network.content_distribution 	client-37 	83
scalar tree_5_3_u00_r1_network.content_distribution 	client-38 	82
scalar tree_5_3_u00_r1_network.content_distribution 	client-39 	81
scalar tree_5_3_u00_r1_network.content_distribution 	client-40 	80
scalar tree_5_3_u00_r1_network.content_distribution 	client-41 	79
scalar tree_5_3_u00_r1_network.content_distribution 	client-42 	78
scalar tree_5_3_u00_r1_network.content_distribution 	client-43 	77
scalar tree_5_3_u00_r1_network.content_distribution 	client-44 	76
scalar tree_5_3_u00_r1_network.content_distribution 	client-45 	75
scalar tree_5_3_u00_r1_network.content_distribution 	client-46 	74
scalar tree_5_3_u00_r1_network.content_distribution 	client-47 	73
scalar tree_5_3_u00_r1_network.content_distribution 	client-48 	72
scalar tree_5_3_u00_r1_network.content_distribution 	client-49 	71
scalar tree_5_3_u00_r1_network.content_distribution 	client-50 	70
scalar tree_5_3_u00_r1_network.content_distribution 	client-51 	69
scalar tree_5_3_u00_r1_network.content_distribution 	client-52 	68
scalar tree_5_3_u00_r1_network.content_distribution 	client-53 	67
scalar tree_5_3_u00_r1_network.content_distribution 	client-54 	66
scalar tree_5_3_u00_r1_network.content_distribution 	client-55 	65
scalar tree_5_3_u00_r1_network.content_distribution 	client-56 	64
scalar tree_5_3_u00_r1_network.content_distribution 	client-57 	63
scalar tree_5_3_u00_r1_network.content_distribution 	client-58 	62
scalar tree_5_3_u00_r1_network.content_distribution 	client-59 	61
scalar tree_5_3_u00_r1_network.content_distribution 	client-60 	60
scalar tree_5_3_u00_r1_network.content_distribution 	client-61 	59
scalar tree_5_3_u00_r1_network.content_distribution 	client-62 	58
scalar tree_5_3_u00_r1_network.content_distribution 	client-63 	57
scalar tree_5_3_u00_r1_network.content_distribution 	client-64 	56
scalar tree_5_3_u00_r1_network.content_distribution 	client-65 	55
scalar tree_5_3_u00_r1_network.content_distribution 	client-66 	54
scalar tree_5_3_u00_r1_network.content_distribution 	client-67 	53
scalar tree_5_3_u00_r1_network.content_distribution 	client-68 	52
scalar tree_5_3_u00_r1_network.content_distribution 	client-69 	51
scalar tree_5_3_u00_r1_network.content_distribution 	client-70 	50
scalar tree_5_3_u00_r1_network.content_distribution 	client-71 	49
scalar tree_5_3_u00_r1_network.content_distribution 	client-72 	48
scalar tree_5_3_u00_r1_network.content_distribution 	client-73 	47
scalar tree_5_3_u00_r1_network.content_distribution 	client-74 	46
scalar tree_5_3_u00_r1_network.content_distribution 	client-75 	45
scalar tree_5_3_u00_r1_network.content_distribution 	client-76 	44
scalar tree_5_3_u00_r1_network.content_distribution 	client-77 	43
scalar tree_5_3_u00_r1_network.content_distribution 	client-78 	42
scalar tree_5_3_u00_r1_network.content_distribution 	client-79 	41
scalar tree_5_3_u00_r1_network.content_distribution 	client-80 	40
scalar tree_5_3_u00_r1_network.content_distribution 	repo-0_card 	100000
scalar tree_5_3_u00_r1_network.content_distribution 	repo-0_price 	0
scalar tree_5_3_u00_r1_network.statistics 	stabilization_time 	1123.3
scalar tree_5_3_u00_r1_network.statistics 	p_hit 	0.21808907478289
scalar tree_5_3_u00_r1_network.statistics 	interests 	30243.157024793
scalar tree_5_3_u00_r1_network.statistics 	data 	22215.404958678
scalar tree_5_3_u00_r1_network.statistics 	hdistance 	3.3413099365714
scalar tree_5_3_u00_r1_network.statistics 	avg_time 	0.005534786221
scalar tree_5_3_u00_r1_network.statistics 	downloads 	971346
scalar tree_5_3_u00_r1_network.statistics 	total_cost 	0
scalar tree_5_3_u00_r1_network.statistics 	total_replicas 	100000
scalar tree_5_3_u00_r1_network.statistics 	inner_hit 	0.42617048919746
scalar tree_5_3_u00_r1_network.node[0].core_layer 	interests[0] 	562594
scalar tree_5_3_u00_r1_network.node[0].core_layer 	repo_load[0] 	557387
scalar tree_5_3_u00_r1_network.node[0].core_layer 	data[0] 	0
scalar tree_5_3_u00_r1_network.node[0].core_layer 	repo_int[0] 	557387
scalar tree_5_3_u00_r1_network.node[0].content_store 	p_hit[0] 	0.0092553422183671
scalar tree_5_3_u00_r1_network.node[0].content_store 	hits[0] 	5207
scalar tree_5_3_u00_r1_network.node[0].content_store 	misses[0] 	557387
scalar tree_5_3_u00_r1_network.node[0].content_store 	decision_yes[0] 	8031
scalar tree_5_3_u00_r1_network.node[0].content_store 	decision_no[0] 	549356
scalar tree_5_3_u00_r1_network.node[0].content_store 	decision_ratio[0] 	0.014408301592969
scalar tree_5_3_u00_r1_network.node[1].core_layer 	interests[1] 	202842
scalar tree_5_3_u00_r1_network.node[1].core_layer 	data[1] 	199956
scalar tree_5_3_u00_r1_network.node[1].content_store 	p_hit[1] 	0.014213032803857
scalar tree_5_3_u00_r1_network.node[1].content_store 	hits[1] 	2883
scalar tree_5_3_u00_r1_network.node[1].content_store 	misses[1] 	199959
scalar tree_5_3_u00_r1_network.node[1].content_store 	decision_yes[1] 	2123
scalar tree_5_3_u00_r1_network.node[1].content_store 	decision_no[1] 	197833
scalar tree_5_3_u00_r1_network.node[1].content_store 	decision_ratio[1] 	0.010617335813879
scalar tree_5_3_u00_r1_network.node[2].core_layer 	interests[2] 	203571
scalar tree_5_3_u00_r1_network.node[2].core_layer 	data[2] 	200509
scalar tree_5_3_u00_r1_network.node[2].content_store 	p_hit[2] 	0.015016873719734
scalar tree_5_3_u00_r1_network.node[2].content_store 	hits[2] 	3057
scalar tree_5_3_u00_r1_network.node[2].content_store 	misses[2] 	200514
scalar tree_5_3_u00_r1_network.node[2].content_store 	decision_yes[2] 	2156
scalar tree_5_3_u00_r1_network.node[2].content_store 	decision_no[2] 	198352
scalar tree_5_3_u00_r1_network.node[2].content_store 	decision_ratio[2] 	0.010752688172043
scalar tree_5_3_u00_r1_network.node[3].core_layer 	interests[3] 	203387
scalar tree_5_3_u00_r1_network.node[3].core_layer 	data[3] 	200582
scalar tree_5_3_u00_r1_network.node[3].content_store 	p_hit[3] 	0.013761941520353
scalar tree_5_3_u00_r1_network.node[3].content_store 	hits[3] 	2799
scalar tree_5_3_u00_r1_network.node[3].content_store 	misses[3] 	200588
scalar tree_5_3_u00_r1_network.node[3].content_store 	decision_yes[3] 	2280
scalar tree_5_3_u00_r1_network.node[3].content_store 	decision_no[3] 	198302
scalar tree_5_3_u00_r1_network.node[3].content_store 	decision_ratio[3] 	0.011366922256234
scalar tree_5_3_u00_r1_network.node[4].core_layer 	interests[4] 	78306
scalar tree_5_3_u00_r1_network.node[4].core_layer 	data[4] 	74211
scalar tree_5_3_u00_r1_network.node[4].content_store 	p_hit[4] 	0.05221822082599
scalar tree_5_3_u00_r1_network.node[4].content_store 	hits[4] 	4089
scalar tree_5_3_u00_r1_network.node[4].content_store 	misses[4] 	74217
scalar tree_5_3_u00_r1_network.node[4].content_store 	decision_yes[4] 	1055
scalar tree_5_3_u00_r1_network.node[4].content_store 	decision_no[4] 	73156
scalar tree_5_3_u00_r1_network.node[4].content_store 	decision_ratio[4] 	0.014216221314899
scalar tree_5_3_u00_r1_network.node[5].core_layer 	interests[5] 	77749
scalar tree_5_3_u00_r1_network.node[5].core_layer 	data[5] 	73685
scalar tree_5_3_u00_r1_network.node[5].content_store 	p_hit[5] 	0.052232183050586
scalar tree_5_3_u00_r1_network.node[5].content_store 	hits[5] 	4061
scalar tree_5_3_u00_r1_network.node[5].content_store 	misses[5] 	73688
scalar tree_5_3_u00_r1_network.node[5].content_store 	decision_yes[5] 	1007
scalar tree_5_3_u00_r1_network.node[5].content_store 	decision_no[5] 	72678
scalar tree_5_3_u00_r1_network.node[5].content_store 	decision_ratio[5] 	0.013666282146977
scalar tree_5_3_u00_r1_network.node[6].core_layer 	interests[6] 	77761
scalar tree_5_3_u00_r1_network.node[6].core_layer 	data[6] 	73731
scalar tree_5_3_u00_r1_network.node[6].content_store 	p_hit[6] 	0.05181260529057
scalar tree_5_3_u00_r1_network.node[6].content_store 	hits[6] 	4029
scalar tree_5_3_u00_r1_network.node[6].content_store 	misses[6] 	73732
scalar tree_5_3_u00_r1_network.node[6].content_store 	decision_yes[6] 	1008
scalar tree_5_3_u00_r1_network.node[6].content_store 	decision_no[6] 	72723
scalar tree_5_3_u00_r1_network.node[6].content_store 	decision_ratio[6] 	0.013671318712617
scalar tree_5_3_u00_r1_network.node[7].core_layer 	interests[7] 	78330
scalar tree_5_3_u00_r1_network.node[7].core_layer 	data[7] 	74356
scalar tree_5_3_u00_r1_network.node[7].content_store 	p_hit[7] 	0.050759606791778
scalar tree_5_3_u00_r1_network.node[7].content_store 	hits[7] 	3976
scalar tree_5_3_u00_r1_network.node[7].content_store 	misses[7] 	74354
scalar tree_5_3_u00_r1_network.node[7].content_store 	decision_yes[7] 	1022
scalar tree_5_3_u00_r1_network.node[7].content_store 	decision_no[7] 	73334
scalar tree_5_3_u00_r1_network.node[7].content_store 	decision_ratio[7] 	0.013744687718543
scalar tree_5_3_u00_r1_network.node[8].core_layer 	interests[8] 	78190
scalar tree_5_3_u00_r1_network.node[8].core_layer 	data[8] 	74058
scalar tree_5_3_u00_r1_network.node[8].content_store 	p_hit[8] 	0.052794474996803
scalar tree_5_3_u00_r1_network.node[8].content_store 	hits[8] 	4128
scalar tree_5_3_u00_r1_network.node[8].content_store 	misses[8] 	74062
scalar tree_5_3_u00_r1_network.node[8].content_store 	decision_yes[8] 	1026
scalar tree_5_3_u00_r1_network.node[8].content_store 	decision_no[8] 	73031
scalar tree_5_3_u00_r1_network.node[8].content_store 	decision_ratio[8] 	0.013854193391577
scalar tree_5_3_u00_r1_network.node[9].core_layer 	interests[9] 	78034
scalar tree_5_3_u00_r1_network.node[9].core_layer 	data[9] 	73647
scalar tree_5_3_u00_r1_network.node[9].content_store 	p_hit[9] 	0.056193454135377
scalar tree_5_3_u00_r1_network.node[9].content_store 	hits[9] 	4385
scalar tree_5_3_u00_r1_network.node[9].content_store 	misses[9] 	73649
scalar tree_5_3_u00_r1_network.node[9].content_store 	decision_yes[9] 	1004
scalar tree_5_3_u00_r1_network.node[9].content_store 	decision_no[9] 	72643
scalar tree_5_3_u00_r1_network.node[9].content_store 	decision_ratio[9] 	0.013632598748082
scalar tree_5_3_u00_r1_network.node[10].core_layer 	interests[10] 	78308
scalar tree_5_3_u00_r1_network.node[10].core_layer 	data[10] 	74302
scalar tree_5_3_u00_r1_network.node[10].content_store 	p_hit[10] 	0.051131429738979
scalar tree_5_3_u00_r1_network.node[10].content_store 	hits[10] 	4004
scalar tree_5_3_u00_r1_network.node[10].content_store 	misses[10] 	74304
scalar tree_5_3_u00_r1_network.node[10].content_store 	decision_yes[10] 	1011
scalar tree_5_3_u00_r1_network.node[10].content_store 	decision_no[10] 	73291
scalar tree_5_3_u00_r1_network.node[10].content_store 	decision_ratio[10] 	0.013606632392129
scalar tree_5_3_u00_r1_network.node[11].core_layer 	interests[11] 	78286
scalar tree_5_3_u00_r1_network.node[11].core_layer 	data[11] 	74087
scalar tree_5_3_u00_r1_network.node[11].content_store 	p_hit[11] 	0.053598344531589
scalar tree_5_3_u00_r1_network.node[11].content_store 	hits[11] 	4196
scalar tree_5_3_u00_r1_network.node[11].content_store 	misses[11] 	74090
scalar tree_5_3_u00_r1_network.node[11].content_store 	decision_yes[11] 	1020
scalar tree_5_3_u00_r1_network.node[11].content_store 	decision_no[11] 	73067
scalar tree_5_3_u00_r1_network.node[11].content_store 	decision_ratio[11] 	0.013767597554227
scalar tree_5_3_u00_r1_network.node[12].core_layer 	interests[12] 	77924
scalar tree_5_3_u00_r1_network.node[12].core_layer 	data[12] 	74034
scalar tree_5_3_u00_r1_network.node[12].content_store 	p_hit[12] 	0.049894769262358
scalar tree_5_3_u00_r1_network.node[12].content_store 	hits[12] 	3888
scalar tree_5_3_u00_r1_network.node[12].content_store 	misses[12] 	74036
scalar tree_5_3_u00_r1_network.node[12].content_store 	decision_yes[12] 	1036
scalar tree_5_3_u00_r1_network.node[12].content_store 	decision_no[12] 	72998
scalar tree_5_3_u00_r1_network.node[12].content_store 	decision_ratio[12] 	0.013993570521652
scalar tree_5_3_u00_r1_network.node[13].core_layer 	interests[13] 	28635
scalar tree_5_3_u00_r1_network.node[13].core_layer 	data[13] 	25970
scalar tree_5_3_u00_r1_network.node[13].content_store 	p_hit[13] 	0.093033001571503
scalar tree_5_3_u00_r1_network.node[13].content_store 	hits[13] 	2664
scalar tree_5_3_u00_r1_network.node[13].content_store 	misses[13] 	25971
scalar tree_5_3_u00_r1_network.node[13].content_store 	decision_yes[13] 	402
scalar tree_5_3_u00_r1_network.node[13].content_store 	decision_no[13] 	25568
scalar tree_5_3_u00_r1_network.node[13].content_store 	decision_ratio[13] 	0.015479399306893
scalar tree_5_3_u00_r1_network.node[14].core_layer 	interests[14] 	28965
scalar tree_5_3_u00_r1_network.node[14].core_layer 	data[14] 	26261
scalar tree_5_3_u00_r1_network.node[14].content_store 	p_hit[14] 	0.093319523562921
scalar tree_5_3_u00_r1_network.node[14].content_store 	hits[14] 	2703
scalar tree_5_3_u00_r1_network.node[14].content_store 	misses[14] 	26262
scalar tree_5_3_u00_r1_network.node[14].content_store 	decision_yes[14] 	429
scalar tree_5_3_u00_r1_network.node[14].content_store 	decision_no[14] 	25832
scalar tree_5_3_u00_r1_network.node[14].content_store 	decision_ratio[14] 	0.016336011576101
scalar tree_5_3_u00_r1_network.node[15].core_layer 	interests[15] 	28744
scalar tree_5_3_u00_r1_network.node[15].core_layer 	data[15] 	26048
scalar tree_5_3_u00_r1_network.node[15].content_store 	p_hit[15] 	0.093723907598107
scalar tree_5_3_u00_r1_network.node[15].content_store 	hits[15] 	2694
scalar tree_5_3_u00_r1_network.node[15].content_store 	misses[15] 	26050
scalar tree_5_3_u00_r1_network.node[15].content_store 	decision_yes[15] 	361
scalar tree_5_3_u00_r1_network.node[15].content_store 	decision_no[15] 	25687
scalar tree_5_3_u00_r1_network.node[15].content_store 	decision_ratio[15] 	0.013859029484029
scalar tree_5_3_u00_r1_network.node[16].core_layer 	interests[16] 	28586
scalar tree_5_3_u00_r1_network.node[16].core_layer 	data[16] 	25999
scalar tree_5_3_u00_r1_network.node[16].content_store 	p_hit[16] 	0.090463863429651
scalar tree_5_3_u00_r1_network.node[16].content_store 	hits[16] 	2586
scalar tree_5_3_u00_r1_network.node[16].content_store 	misses[16] 	26000
scalar tree_5_3_u00_r1_network.node[16].content_store 	decision_yes[16] 	375
scalar tree_5_3_u00_r1_network.node[16].content_store 	decision_no[16] 	25624
scalar tree_5_3_u00_r1_network.node[16].content_store 	decision_ratio[16] 	0.014423631678141
scalar tree_5_3_u00_r1_network.node[17].core_layer 	interests[17] 	28928
scalar tree_5_3_u00_r1_network.node[17].core_layer 	data[17] 	26077
scalar tree_5_3_u00_r1_network.node[17].content_store 	p_hit[17] 	0.09852046460177
scalar tree_5_3_u00_r1_network.node[17].content_store 	hits[17] 	2850
scalar tree_5_3_u00_r1_network.node[17].content_store 	misses[17] 	26078
scalar tree_5_3_u00_r1_network.node[17].content_store 	decision_yes[17] 	382
scalar tree_5_3_u00_r1_network.node[17].content_store 	decision_no[17] 	25695
scalar tree_5_3_u00_r1_network.node[17].content_store 	decision_ratio[17] 	0.014648924339456
scalar tree_5_3_u00_r1_network.node[18].core_layer 	interests[18] 	28242
scalar tree_5_3_u00_r1_network.node[18].core_layer 	data[18] 	25613
scalar tree_5_3_u00_r1_network.node[18].content_store 	p_hit[18] 	0.093088308193471
scalar tree_5_3_u00_r1_network.node[18].content_store 	hits[18] 	2629
scalar tree_5_3_u00_r1_network.node[18].content_store 	misses[18] 	25613
scalar tree_5_3_u00_r1_network.node[18].content_store 	decision_yes[18] 	393
scalar tree_5_3_u00_r1_network.node[18].content_store 	decision_no[18] 	25220
scalar tree_5_3_u00_r1_network.node[18].content_store 	decision_ratio[18] 	0.01534377074142
scalar tree_5_3_u00_r1_network.node[19].core_layer 	interests[19] 	28530
scalar tree_5_3_u00_r1_network.node[19].core_layer 	data[19] 	25862
scalar tree_5_3_u00_r1_network.node[19].content_store 	p_hit[19] 	0.093515597616544
scalar tree_5_3_u00_r1_network.node[19].content_store 	hits[19] 	2668
scalar tree_5_3_u00_r1_network.node[19].content_store 	misses[19] 	25862
scalar tree_5_3_u00_r1_network.node[19].content_store 	decision_yes[19] 	438
scalar tree_5_3_u00_r1_network.node[19].content_store 	decision_no[19] 	25424
scalar tree_5_3_u00_r1_network.node[19].content_store 	decision_ratio[19] 	0.016936045162787
scalar tree_5_3_u00_r1_network.node[20].core_layer 	interests[20] 	28428
scalar tree_5_3_u00_r1_network.node[20].core_layer 	data[20] 	25856
scalar tree_5_3_u00_r1_network.node[20].content_store 	p_hit[20] 	0.090474180385535
scalar tree_5_3_u00_r1_network.node[20].content_store 	hits[20] 	2572
scalar tree_5_3_u00_r1_network.node[20].content_store 	misses[20] 	25856
scalar tree_5_3_u00_r1_network.node[20].content_store 	decision_yes[20] 	396
scalar tree_5_3_u00_r1_network.node[20].content_store 	decision_no[20] 	25460
scalar tree_5_3_u00_r1_network.node[20].content_store 	decision_ratio[20] 	0.015315594059406
scalar tree_5_3_u00_r1_network.node[21].core_layer 	interests[21] 	28628
scalar tree_5_3_u00_r1_network.node[21].core_layer 	data[21] 	25937
scalar tree_5_3_u00_r1_network.node[21].content_store 	p_hit[21] 	0.093963951376275
scalar tree_5_3_u00_r1_network.node[21].content_store 	hits[21] 	2690
scalar tree_5_3_u00_r1_network.node[21].content_store 	misses[21] 	25938
scalar tree_5_3_u00_r1_network.node[21].content_store 	decision_yes[21] 	407
scalar tree_5_3_u00_r1_network.node[21].content_store 	decision_no[21] 	25530
scalar tree_5_3_u00_r1_network.node[21].content_store 	decision_ratio[21] 	0.015691868758916
scalar tree_5_3_u00_r1_network.node[22].core_layer 	interests[22] 	28723
scalar tree_5_3_u00_r1_network.node[22].core_layer 	data[22] 	26201
scalar tree_5_3_u00_r1_network.node[22].content_store 	p_hit[22] 	0.08780419872576
scalar tree_5_3_u00_r1_network.node[22].content_store 	hits[22] 	2522
scalar tree_5_3_u00_r1_network.node[22].content_store 	misses[22] 	26201
scalar tree_5_3_u00_r1_network.node[22].content_store 	decision_yes[22] 	411
scalar tree_5_3_u00_r1_network.node[22].content_store 	decision_no[22] 	25790
scalar tree_5_3_u00_r1_network.node[22].content_store 	decision_ratio[22] 	0.015686424182283
scalar tree_5_3_u00_r1_network.node[23].core_layer 	interests[23] 	28756
scalar tree_5_3_u00_r1_network.node[23].core_layer 	data[23] 	26161
scalar tree_5_3_u00_r1_network.node[23].content_store 	p_hit[23] 	0.090207261093337
scalar tree_5_3_u00_r1_network.node[23].content_store 	hits[23] 	2594
scalar tree_5_3_u00_r1_network.node[23].content_store 	misses[23] 	26162
scalar tree_5_3_u00_r1_network.node[23].content_store 	decision_yes[23] 	400
scalar tree_5_3_u00_r1_network.node[23].content_store 	decision_no[23] 	25761
scalar tree_5_3_u00_r1_network.node[23].content_store 	decision_ratio[23] 	0.015289935400023
scalar tree_5_3_u00_r1_network.node[24].core_layer 	interests[24] 	29005
scalar tree_5_3_u00_r1_network.node[24].core_layer 	data[24] 	26246
scalar tree_5_3_u00_r1_network.node[24].content_store 	p_hit[24] 	0.095156007584899
scalar tree_5_3_u00_r1_network.node[24].content_store 	hits[24] 	2760
scalar tree_5_3_u00_r1_network.node[24].content_store 	misses[24] 	26245
scalar tree_5_3_u00_r1_network.node[24].content_store 	decision_yes[24] 	434
scalar tree_5_3_u00_r1_network.node[24].content_store 	decision_no[24] 	25812
scalar tree_5_3_u00_r1_network.node[24].content_store 	decision_ratio[24] 	0.016535853082374
scalar tree_5_3_u00_r1_network.node[25].core_layer 	interests[25] 	29003
scalar tree_5_3_u00_r1_network.node[25].core_layer 	data[25] 	26146
scalar tree_5_3_u00_r1_network.node[25].content_store 	p_hit[25] 	0.098541530186532
scalar tree_5_3_u00_r1_network.node[25].content_store 	hits[25] 	2858
scalar tree_5_3_u00_r1_network.node[25].content_store 	misses[25] 	26145
scalar tree_5_3_u00_r1_network.node[25].content_store 	decision_yes[25] 	362
scalar tree_5_3_u00_r1_network.node[25].content_store 	decision_no[25] 	25784
scalar tree_5_3_u00_r1_network.node[25].content_store 	decision_ratio[25] 	0.013845330069609
scalar tree_5_3_u00_r1_network.node[26].core_layer 	interests[26] 	28429
scalar tree_5_3_u00_r1_network.node[26].core_layer 	data[26] 	25835
scalar tree_5_3_u00_r1_network.node[26].content_store 	p_hit[26] 	0.091280030954307
scalar tree_5_3_u00_r1_network.node[26].content_store 	hits[26] 	2595
scalar tree_5_3_u00_r1_network.node[26].content_store 	misses[26] 	25834
scalar tree_5_3_u00_r1_network.node[26].content_store 	decision_yes[26] 	403
scalar tree_5_3_u00_r1_network.node[26].content_store 	decision_no[26] 	25432
scalar tree_5_3_u00_r1_network.node[26].content_store 	decision_ratio[26] 	0.015598993613315
scalar tree_5_3_u00_r1_network.node[27].core_layer 	interests[27] 	28571
scalar tree_5_3_u00_r1_network.node[27].core_layer 	data[27] 	25858
scalar tree_5_3_u00_r1_network.node[27].content_store 	p_hit[27] 	0.094921423821357
scalar tree_5_3_u00_r1_network.node[27].content_store 	hits[27] 	2712
scalar tree_5_3_u00_r1_network.node[27].content_store 	misses[27] 	25859
scalar tree_5_3_u00_r1_network.node[27].content_store 	decision_yes[27] 	366
scalar tree_5_3_u00_r1_network.node[27].content_store 	decision_no[27] 	25492
scalar tree_5_3_u00_r1_network.node[27].content_store 	decision_ratio[27] 	0.014154226931704
scalar tree_5_3_u00_r1_network.node[28].core_layer 	interests[28] 	28437
scalar tree_5_3_u00_r1_network.node[28].core_layer 	data[28] 	25815
scalar tree_5_3_u00_r1_network.node[28].content_store 	p_hit[28] 	0.092203818968246
scalar tree_5_3_u00_r1_network.node[28].content_store 	hits[28] 	2622
scalar tree_5_3_u00_r1_network.node[28].content_store 	misses[28] 	25815
scalar tree_5_3_u00_r1_network.node[28].content_store 	decision_yes[28] 	376
scalar tree_5_3_u00_r1_network.node[28].content_store 	decision_no[28] 	25439
scalar tree_5_3_u00_r1_network.node[28].content_store 	decision_ratio[28] 	0.014565175285687
scalar tree_5_3_u00_r1_network.node[29].core_layer 	interests[29] 	28373
scalar tree_5_3_u00_r1_network.node[29].core_layer 	data[29] 	25778
scalar tree_5_3_u00_r1_network.node[29].content_store 	p_hit[29] 	0.09146019102668
scalar tree_5_3_u00_r1_network.node[29].content_store 	hits[29] 	2595
scalar tree_5_3_u00_r1_network.node[29].content_store 	misses[29] 	25778
scalar tree_5_3_u00_r1_network.node[29].content_store 	decision_yes[29] 	409
scalar tree_5_3_u00_r1_network.node[29].content_store 	decision_no[29] 	25369
scalar tree_5_3_u00_r1_network.node[29].content_store 	decision_ratio[29] 	0.015866242532392
scalar tree_5_3_u00_r1_network.node[30].core_layer 	interests[30] 	28769
scalar tree_5_3_u00_r1_network.node[30].core_layer 	data[30] 	26135
scalar tree_5_3_u00_r1_network.node[30].content_store 	p_hit[30] 	0.09155688414613
scalar tree_5_3_u00_r1_network.node[30].content_store 	hits[30] 	2634
scalar tree_5_3_u00_r1_network.node[30].content_store 	misses[30] 	26135
scalar tree_5_3_u00_r1_network.node[30].content_store 	decision_yes[30] 	415
scalar tree_5_3_u00_r1_network.node[30].content_store 	decision_no[30] 	25720
scalar tree_5_3_u00_r1_network.node[30].content_store 	decision_ratio[30] 	0.015879089343792
scalar tree_5_3_u00_r1_network.node[31].core_layer 	interests[31] 	28783
scalar tree_5_3_u00_r1_network.node[31].core_layer 	data[31] 	26063
scalar tree_5_3_u00_r1_network.node[31].content_store 	p_hit[31] 	0.094500225827746
scalar tree_5_3_u00_r1_network.node[31].content_store 	hits[31] 	2720
scalar tree_5_3_u00_r1_network.node[31].content_store 	misses[31] 	26063
scalar tree_5_3_u00_r1_network.node[31].content_store 	decision_yes[31] 	399
scalar tree_5_3_u00_r1_network.node[31].content_store 	decision_no[31] 	25664
scalar tree_5_3_u00_r1_network.node[31].content_store 	decision_ratio[31] 	0.015309058819015
scalar tree_5_3_u00_r1_network.node[32].core_layer 	interests[32] 	28668
scalar tree_5_3_u00_r1_network.node[32].core_layer 	data[32] 	25964
scalar tree_5_3_u00_r1_network.node[32].content_store 	p_hit[32] 	0.094321194363053
scalar tree_5_3_u00_r1_network.node[32].content_store 	hits[32] 	2704
scalar tree_5_3_u00_r1_network.node[32].content_store 	misses[32] 	25964
scalar tree_5_3_u00_r1_network.node[32].content_store 	decision_yes[32] 	393
scalar tree_5_3_u00_r1_network.node[32].content_store 	decision_no[32] 	25571
scalar tree_5_3_u00_r1_network.node[32].content_store 	decision_ratio[32] 	0.015136342628255
scalar tree_5_3_u00_r1_network.node[33].core_layer 	interests[33] 	28909
scalar tree_5_3_u00_r1_network.node[33].core_layer 	data[33] 	26190
scalar tree_5_3_u00_r1_network.node[33].content_store 	p_hit[33] 	0.094053754886022
scalar tree_5_3_u00_r1_network.node[33].content_store 	hits[33] 	2719
scalar tree_5_3_u00_r1_network.node[33].content_store 	misses[33] 	26190
scalar tree_5_3_u00_r1_network.node[33].content_store 	decision_yes[33] 	397
scalar tree_5_3_u00_r1_network.node[33].content_store 	decision_no[33] 	25793
scalar tree_5_3_u00_r1_network.node[33].content_store 	decision_ratio[33] 	0.015158457426499
scalar tree_5_3_u00_r1_network.node[34].core_layer 	interests[34] 	28910
scalar tree_5_3_u00_r1_network.node[34].core_layer 	data[34] 	26205
scalar tree_5_3_u00_r1_network.node[34].content_store 	p_hit[34] 	0.093566240055344
scalar tree_5_3_u00_r1_network.node[34].content_store 	hits[34] 	2705
scalar tree_5_3_u00_r1_network.node[34].content_store 	misses[34] 	26205
scalar tree_5_3_u00_r1_network.node[34].content_store 	decision_yes[34] 	403
scalar tree_5_3_u00_r1_network.node[34].content_store 	decision_no[34] 	25802
scalar tree_5_3_u00_r1_network.node[34].content_store 	decision_ratio[34] 	0.015378744514406
scalar tree_5_3_u00_r1_network.node[35].core_layer 	interests[35] 	28954
scalar tree_5_3_u00_r1_network.node[35].core_layer 	data[35] 	26304
scalar tree_5_3_u00_r1_network.node[35].content_store 	p_hit[35] 	0.091524487117497
scalar tree_5_3_u00_r1_network.node[35].content_store 	hits[35] 	2650
scalar tree_5_3_u00_r1_network.node[35].content_store 	misses[35] 	26304
scalar tree_5_3_u00_r1_network.node[35].content_store 	decision_yes[35] 	405
scalar tree_5_3_u00_r1_network.node[35].content_store 	decision_no[35] 	25899
scalar tree_5_3_u00_r1_network.node[35].content_store 	decision_ratio[35] 	0.015396897810219
scalar tree_5_3_u00_r1_network.node[36].core_layer 	interests[36] 	28577
scalar tree_5_3_u00_r1_network.node[36].core_layer 	data[36] 	25822
scalar tree_5_3_u00_r1_network.node[36].content_store 	p_hit[36] 	0.096406200790846
scalar tree_5_3_u00_r1_network.node[36].content_store 	hits[36] 	2755
scalar tree_5_3_u00_r1_network.node[36].content_store 	misses[36] 	25822
scalar tree_5_3_u00_r1_network.node[36].content_store 	decision_yes[36] 	376
scalar tree_5_3_u00_r1_network.node[36].content_store 	decision_no[36] 	25446
scalar tree_5_3_u00_r1_network.node[36].content_store 	decision_ratio[36] 	0.014561226860816
scalar tree_5_3_u00_r1_network.node[37].core_layer 	interests[37] 	28654
scalar tree_5_3_u00_r1_network.node[37].core_layer 	data[37] 	26018
scalar tree_5_3_u00_r1_network.node[37].content_store 	p_hit[37] 	0.09195923780275
scalar tree_5_3_u00_r1_network.node[37].content_store 	hits[37] 	2635
scalar tree_5_3_u00_r1_network.node[37].content_store 	misses[37] 	26019
scalar tree_5_3_u00_r1_network.node[37].content_store 	decision_yes[37] 	424
scalar tree_5_3_u00_r1_network.node[37].content_store 	decision_no[37] 	25594
scalar tree_5_3_u00_r1_network.node[37].content_store 	decision_ratio[37] 	0.016296410177569
scalar tree_5_3_u00_r1_network.node[38].core_layer 	interests[38] 	29101
scalar tree_5_3_u00_r1_network.node[38].core_layer 	data[38] 	26303
scalar tree_5_3_u00_r1_network.node[38].content_store 	p_hit[38] 	0.096113535617333
scalar tree_5_3_u00_r1_network.node[38].content_store 	hits[38] 	2797
scalar tree_5_3_u00_r1_network.node[38].content_store 	misses[38] 	26304
scalar tree_5_3_u00_r1_network.node[38].content_store 	decision_yes[38] 	403
scalar tree_5_3_u00_r1_network.node[38].content_store 	decision_no[38] 	25900
scalar tree_5_3_u00_r1_network.node[38].content_store 	decision_ratio[38] 	0.015321446222864
scalar tree_5_3_u00_r1_network.node[39].core_layer 	interests[39] 	28426
scalar tree_5_3_u00_r1_network.node[39].core_layer 	data[39] 	25816
scalar tree_5_3_u00_r1_network.node[39].content_store 	p_hit[39] 	0.091746992190248
scalar tree_5_3_u00_r1_network.node[39].content_store 	hits[39] 	2608
scalar tree_5_3_u00_r1_network.node[39].content_store 	misses[39] 	25818
scalar tree_5_3_u00_r1_network.node[39].content_store 	decision_yes[39] 	405
scalar tree_5_3_u00_r1_network.node[39].content_store 	decision_no[39] 	25411
scalar tree_5_3_u00_r1_network.node[39].content_store 	decision_ratio[39] 	0.01568794546018
scalar tree_5_3_u00_r1_network.node[40].core_layer 	interests[40] 	12479
scalar tree_5_3_u00_r1_network.node[40].core_layer 	data[40] 	8891
scalar tree_5_3_u00_r1_network.node[40].content_store 	p_hit[40] 	0.28752303870502
scalar tree_5_3_u00_r1_network.node[40].content_store 	hits[40] 	3588
scalar tree_5_3_u00_r1_network.node[40].content_store 	misses[40] 	8891
scalar tree_5_3_u00_r1_network.node[40].content_store 	decision_yes[40] 	128
scalar tree_5_3_u00_r1_network.node[40].content_store 	decision_no[40] 	8763
scalar tree_5_3_u00_r1_network.node[40].content_store 	decision_ratio[40] 	0.014396580812057
scalar tree_5_3_u00_r1_network.node[41].core_layer 	interests[41] 	12356
scalar tree_5_3_u00_r1_network.node[41].core_layer 	data[41] 	8775
scalar tree_5_3_u00_r1_network.node[41].content_store 	p_hit[41] 	0.28981871155714
scalar tree_5_3_u00_r1_network.node[41].content_store 	hits[41] 	3581
scalar tree_5_3_u00_r1_network.node[41].content_store 	misses[41] 	8775
scalar tree_5_3_u00_r1_network.node[41].content_store 	decision_yes[41] 	126
scalar tree_5_3_u00_r1_network.node[41].content_store 	decision_no[41] 	8649
scalar tree_5_3_u00_r1_network.node[41].content_store 	decision_ratio[41] 	0.014358974358974
scalar tree_5_3_u00_r1_network.node[42].core_layer 	interests[42] 	12484
scalar tree_5_3_u00_r1_network.node[42].core_layer 	data[42] 	8837
scalar tree_5_3_u00_r1_network.node[42].content_store 	p_hit[42] 	0.29213393143223
scalar tree_5_3_u00_r1_network.node[42].content_store 	hits[42] 	3647
scalar tree_5_3_u00_r1_network.node[42].content_store 	misses[42] 	8837
scalar tree_5_3_u00_r1_network.node[42].content_store 	decision_yes[42] 	131
scalar tree_5_3_u00_r1_network.node[42].content_store 	decision_no[42] 	8706
scalar tree_5_3_u00_r1_network.node[42].content_store 	decision_ratio[42] 	0.014824035306099
scalar tree_5_3_u00_r1_network.node[43].core_layer 	interests[43] 	12749
scalar tree_5_3_u00_r1_network.node[43].core_layer 	data[43] 	9072
scalar tree_5_3_u00_r1_network.node[43].content_store 	p_hit[43] 	0.28833634010511
scalar tree_5_3_u00_r1_network.node[43].content_store 	hits[43] 	3676
scalar tree_5_3_u00_r1_network.node[43].content_store 	misses[43] 	9073
scalar tree_5_3_u00_r1_network.node[43].content_store 	decision_yes[43] 	115
scalar tree_5_3_u00_r1_network.node[43].content_store 	decision_no[43] 	8957
scalar tree_5_3_u00_r1_network.node[43].content_store 	decision_ratio[43] 	0.012676366843034
scalar tree_5_3_u00_r1_network.node[44].core_layer 	interests[44] 	12453
scalar tree_5_3_u00_r1_network.node[44].core_layer 	data[44] 	8833
scalar tree_5_3_u00_r1_network.node[44].content_store 	p_hit[44] 	0.29061270376616
scalar tree_5_3_u00_r1_network.node[44].content_store 	hits[44] 	3619
scalar tree_5_3_u00_r1_network.node[44].content_store 	misses[44] 	8834
scalar tree_5_3_u00_r1_network.node[44].content_store 	decision_yes[44] 	116
scalar tree_5_3_u00_r1_network.node[44].content_store 	decision_no[44] 	8717
scalar tree_5_3_u00_r1_network.node[44].content_store 	decision_ratio[44] 	0.013132571040417
scalar tree_5_3_u00_r1_network.node[45].core_layer 	interests[45] 	12428
scalar tree_5_3_u00_r1_network.node[45].core_layer 	data[45] 	8901
scalar tree_5_3_u00_r1_network.node[45].content_store 	p_hit[45] 	0.28379465722562
scalar tree_5_3_u00_r1_network.node[45].content_store 	hits[45] 	3527
scalar tree_5_3_u00_r1_network.node[45].content_store 	misses[45] 	8901
scalar tree_5_3_u00_r1_network.node[45].content_store 	decision_yes[45] 	116
scalar tree_5_3_u00_r1_network.node[45].content_store 	decision_no[45] 	8785
scalar tree_5_3_u00_r1_network.node[45].content_store 	decision_ratio[45] 	0.013032243568138
scalar tree_5_3_u00_r1_network.node[46].core_layer 	interests[46] 	12558
scalar tree_5_3_u00_r1_network.node[46].core_layer 	data[46] 	8888
scalar tree_5_3_u00_r1_network.node[46].content_store 	p_hit[46] 	0.29224398789616
scalar tree_5_3_u00_r1_network.node[46].content_store 	hits[46] 	3670
scalar tree_5_3_u00_r1_network.node[46].content_store 	misses[46] 	8888
scalar tree_5_3_u00_r1_network.node[46].content_store 	decision_yes[46] 	120
scalar tree_5_3_u00_r1_network.node[46].content_store 	decision_no[46] 	8768
scalar tree_5_3_u00_r1_network.node[46].content_store 	decision_ratio[46] 	0.013501350135014
scalar tree_5_3_u00_r1_network.node[47].core_layer 	interests[47] 	12664
scalar tree_5_3_u00_r1_network.node[47].core_layer 	data[47] 	9022
scalar tree_5_3_u00_r1_network.node[47].content_store 	p_hit[47] 	0.28750789639924
scalar tree_5_3_u00_r1_network.node[47].content_store 	hits[47] 	3641
scalar tree_5_3_u00_r1_network.node[47].content_store 	misses[47] 	9023
scalar tree_5_3_u00_r1_network.node[47].content_store 	decision_yes[47] 	114
scalar tree_5_3_u00_r1_network.node[47].content_store 	decision_no[47] 	8908
scalar tree_5_3_u00_r1_network.node[47].content_store 	decision_ratio[47] 	0.012635779206384
scalar tree_5_3_u00_r1_network.node[48].core_layer 	interests[48] 	12420
scalar tree_5_3_u00_r1_network.node[48].core_layer 	data[48] 	8774
scalar tree_5_3_u00_r1_network.node[48].content_store 	p_hit[48] 	0.29355877616747
scalar tree_5_3_u00_r1_network.node[48].content_store 	hits[48] 	3646
scalar tree_5_3_u00_r1_network.node[48].content_store 	misses[48] 	8774
scalar tree_5_3_u00_r1_network.node[48].content_store 	decision_yes[48] 	131
scalar tree_5_3_u00_r1_network.node[48].content_store 	decision_no[48] 	8643
scalar tree_5_3_u00_r1_network.node[48].content_store 	decision_ratio[48] 	0.014930476407568
scalar tree_5_3_u00_r1_network.node[49].core_layer 	interests[49] 	12534
scalar tree_5_3_u00_r1_network.node[49].core_layer 	data[49] 	8856
scalar tree_5_3_u00_r1_network.node[49].content_store 	p_hit[49] 	0.2934418382001
scalar tree_5_3_u00_r1_network.node[49].content_store 	hits[49] 	3678
scalar tree_5_3_u00_r1_network.node[49].content_store 	misses[49] 	8856
scalar tree_5_3_u00_r1_network.node[49].content_store 	decision_yes[49] 	112
scalar tree_5_3_u00_r1_network.node[49].content_store 	decision_no[49] 	8744
scalar tree_5_3_u00_r1_network.node[49].content_store 	decision_ratio[49] 	0.012646793134598
scalar tree_5_3_u00_r1_network.node[50].core_layer 	interests[50] 	12494
scalar tree_5_3_u00_r1_network.node[50].core_layer 	data[50] 	8877
scalar tree_5_3_u00_r1_network.node[50].content_store 	p_hit[50] 	0.28933888266368
scalar tree_5_3_u00_r1_network.node[50].content_store 	hits[50] 	3615
scalar tree_5_3_u00_r1_network.node[50].content_store 	misses[50] 	8879
scalar tree_5_3_u00_r1_network.node[50].content_store 	decision_yes[50] 	129
scalar tree_5_3_u00_r1_network.node[50].content_store 	decision_no[50] 	8748
scalar tree_5_3_u00_r1_network.node[50].content_store 	decision_ratio[50] 	0.014531936465022
scalar tree_5_3_u00_r1_network.node[51].core_layer 	interests[51] 	12472
scalar tree_5_3_u00_r1_network.node[51].core_layer 	data[51] 	8885
scalar tree_5_3_u00_r1_network.node[51].content_store 	p_hit[51] 	0.287604233483
scalar tree_5_3_u00_r1_network.node[51].content_store 	hits[51] 	3587
scalar tree_5_3_u00_r1_network.node[51].content_store 	misses[51] 	8885
scalar tree_5_3_u00_r1_network.node[51].content_store 	decision_yes[51] 	154
scalar tree_5_3_u00_r1_network.node[51].content_store 	decision_no[51] 	8731
scalar tree_5_3_u00_r1_network.node[51].content_store 	decision_ratio[51] 	0.017332583005065
scalar tree_5_3_u00_r1_network.node[52].core_layer 	interests[52] 	12543
scalar tree_5_3_u00_r1_network.node[52].core_layer 	data[52] 	8924
scalar tree_5_3_u00_r1_network.node[52].content_store 	p_hit[52] 	0.28852746551862
scalar tree_5_3_u00_r1_network.node[52].content_store 	hits[52] 	3619
scalar tree_5_3_u00_r1_network.node[52].content_store 	misses[52] 	8924
scalar tree_5_3_u00_r1_network.node[52].content_store 	decision_yes[52] 	111
scalar tree_5_3_u00_r1_network.node[52].content_store 	decision_no[52] 	8813
scalar tree_5_3_u00_r1_network.node[52].content_store 	decision_ratio[52] 	0.012438368444644
scalar tree_5_3_u00_r1_network.node[53].core_layer 	interests[53] 	12424
scalar tree_5_3_u00_r1_network.node[53].core_layer 	data[53] 	8729
scalar tree_5_3_u00_r1_network.node[53].content_store 	p_hit[53] 	0.29740824211204
scalar tree_5_3_u00_r1_network.node[53].content_store 	hits[53] 	3695
scalar tree_5_3_u00_r1_network.node[53].content_store 	misses[53] 	8729
scalar tree_5_3_u00_r1_network.node[53].content_store 	decision_yes[53] 	112
scalar tree_5_3_u00_r1_network.node[53].content_store 	decision_no[53] 	8617
scalar tree_5_3_u00_r1_network.node[53].content_store 	decision_ratio[53] 	0.012830793905373
scalar tree_5_3_u00_r1_network.node[54].core_layer 	interests[54] 	12562
scalar tree_5_3_u00_r1_network.node[54].core_layer 	data[54] 	8961
scalar tree_5_3_u00_r1_network.node[54].content_store 	p_hit[54] 	0.28657857029135
scalar tree_5_3_u00_r1_network.node[54].content_store 	hits[54] 	3600
scalar tree_5_3_u00_r1_network.node[54].content_store 	misses[54] 	8962
scalar tree_5_3_u00_r1_network.node[54].content_store 	decision_yes[54] 	114
scalar tree_5_3_u00_r1_network.node[54].content_store 	decision_no[54] 	8847
scalar tree_5_3_u00_r1_network.node[54].content_store 	decision_ratio[54] 	0.012721794442585
scalar tree_5_3_u00_r1_network.node[55].core_layer 	interests[55] 	12198
scalar tree_5_3_u00_r1_network.node[55].core_layer 	data[55] 	8745
scalar tree_5_3_u00_r1_network.node[55].content_store 	p_hit[55] 	0.28307919331038
scalar tree_5_3_u00_r1_network.node[55].content_store 	hits[55] 	3453
scalar tree_5_3_u00_r1_network.node[55].content_store 	misses[55] 	8745
scalar tree_5_3_u00_r1_network.node[55].content_store 	decision_yes[55] 	106
scalar tree_5_3_u00_r1_network.node[55].content_store 	decision_no[55] 	8639
scalar tree_5_3_u00_r1_network.node[55].content_store 	decision_ratio[55] 	0.012121212121212
scalar tree_5_3_u00_r1_network.node[56].core_layer 	interests[56] 	12312
scalar tree_5_3_u00_r1_network.node[56].core_layer 	data[56] 	8730
scalar tree_5_3_u00_r1_network.node[56].content_store 	p_hit[56] 	0.29101689408707
scalar tree_5_3_u00_r1_network.node[56].content_store 	hits[56] 	3583
scalar tree_5_3_u00_r1_network.node[56].content_store 	misses[56] 	8729
scalar tree_5_3_u00_r1_network.node[56].content_store 	decision_yes[56] 	130
scalar tree_5_3_u00_r1_network.node[56].content_store 	decision_no[56] 	8600
scalar tree_5_3_u00_r1_network.node[56].content_store 	decision_ratio[56] 	0.014891179839633
scalar tree_5_3_u00_r1_network.node[57].core_layer 	interests[57] 	12291
scalar tree_5_3_u00_r1_network.node[57].core_layer 	data[57] 	8730
scalar tree_5_3_u00_r1_network.node[57].content_store 	p_hit[57] 	0.28972418843056
scalar tree_5_3_u00_r1_network.node[57].content_store 	hits[57] 	3561
scalar tree_5_3_u00_r1_network.node[57].content_store 	misses[57] 	8730
scalar tree_5_3_u00_r1_network.node[57].content_store 	decision_yes[57] 	128
scalar tree_5_3_u00_r1_network.node[57].content_store 	decision_no[57] 	8602
scalar tree_5_3_u00_r1_network.node[57].content_store 	decision_ratio[57] 	0.014662084765178
scalar tree_5_3_u00_r1_network.node[58].core_layer 	interests[58] 	12494
scalar tree_5_3_u00_r1_network.node[58].core_layer 	data[58] 	8859
scalar tree_5_3_u00_r1_network.node[58].content_store 	p_hit[58] 	0.2909396510325
scalar tree_5_3_u00_r1_network.node[58].content_store 	hits[58] 	3635
scalar tree_5_3_u00_r1_network.node[58].content_store 	misses[58] 	8859
scalar tree_5_3_u00_r1_network.node[58].content_store 	decision_yes[58] 	120
scalar tree_5_3_u00_r1_network.node[58].content_store 	decision_no[58] 	8739
scalar tree_5_3_u00_r1_network.node[58].content_store 	decision_ratio[58] 	0.013545546901456
scalar tree_5_3_u00_r1_network.node[59].core_layer 	interests[59] 	12466
scalar tree_5_3_u00_r1_network.node[59].core_layer 	data[59] 	8803
scalar tree_5_3_u00_r1_network.node[59].content_store 	p_hit[59] 	0.29383924274025
scalar tree_5_3_u00_r1_network.node[59].content_store 	hits[59] 	3663
scalar tree_5_3_u00_r1_network.node[59].content_store 	misses[59] 	8803
scalar tree_5_3_u00_r1_network.node[59].content_store 	decision_yes[59] 	129
scalar tree_5_3_u00_r1_network.node[59].content_store 	decision_no[59] 	8674
scalar tree_5_3_u00_r1_network.node[59].content_store 	decision_ratio[59] 	0.01465409519482
scalar tree_5_3_u00_r1_network.node[60].core_layer 	interests[60] 	12344
scalar tree_5_3_u00_r1_network.node[60].core_layer 	data[60] 	8731
scalar tree_5_3_u00_r1_network.node[60].content_store 	p_hit[60] 	0.29269280622165
scalar tree_5_3_u00_r1_network.node[60].content_store 	hits[60] 	3613
scalar tree_5_3_u00_r1_network.node[60].content_store 	misses[60] 	8731
scalar tree_5_3_u00_r1_network.node[60].content_store 	decision_yes[60] 	108
scalar tree_5_3_u00_r1_network.node[60].content_store 	decision_no[60] 	8623
scalar tree_5_3_u00_r1_network.node[60].content_store 	decision_ratio[60] 	0.012369717099989
scalar tree_5_3_u00_r1_network.node[61].core_layer 	interests[61] 	12339
scalar tree_5_3_u00_r1_network.node[61].core_layer 	data[61] 	8801
scalar tree_5_3_u00_r1_network.node[61].content_store 	p_hit[61] 	0.28673312261934
scalar tree_5_3_u00_r1_network.node[61].content_store 	hits[61] 	3538
scalar tree_5_3_u00_r1_network.node[61].content_store 	misses[61] 	8801
scalar tree_5_3_u00_r1_network.node[61].content_store 	decision_yes[61] 	118
scalar tree_5_3_u00_r1_network.node[61].content_store 	decision_no[61] 	8683
scalar tree_5_3_u00_r1_network.node[61].content_store 	decision_ratio[61] 	0.013407567321895
scalar tree_5_3_u00_r1_network.node[62].core_layer 	interests[62] 	12385
scalar tree_5_3_u00_r1_network.node[62].core_layer 	data[62] 	8741
scalar tree_5_3_u00_r1_network.node[62].content_store 	p_hit[62] 	0.29422688736375
scalar tree_5_3_u00_r1_network.node[62].content_store 	hits[62] 	3644
scalar tree_5_3_u00_r1_network.node[62].content_store 	misses[62] 	8741
scalar tree_5_3_u00_r1_network.node[62].content_store 	decision_yes[62] 	105
scalar tree_5_3_u00_r1_network.node[62].content_store 	decision_no[62] 	8636
scalar tree_5_3_u00_r1_network.node[62].content_store 	decision_ratio[62] 	0.012012355565725
scalar tree_5_3_u00_r1_network.node[63].core_layer 	interests[63] 	12545
scalar tree_5_3_u00_r1_network.node[63].core_layer 	data[63] 	8890
scalar tree_5_3_u00_r1_network.node[63].content_store 	p_hit[63] 	0.29135113591072
scalar tree_5_3_u00_r1_network.node[63].content_store 	hits[63] 	3655
scalar tree_5_3_u00_r1_network.node[63].content_store 	misses[63] 	8890
scalar tree_5_3_u00_r1_network.node[63].content_store 	decision_yes[63] 	111
scalar tree_5_3_u00_r1_network.node[63].content_store 	decision_no[63] 	8779
scalar tree_5_3_u00_r1_network.node[63].content_store 	decision_ratio[63] 	0.012485939257593
scalar tree_5_3_u00_r1_network.node[64].core_layer 	interests[64] 	12282
scalar tree_5_3_u00_r1_network.node[64].core_layer 	data[64] 	8631
scalar tree_5_3_u00_r1_network.node[64].content_store 	p_hit[64] 	0.29726428920371
scalar tree_5_3_u00_r1_network.node[64].content_store 	hits[64] 	3651
scalar tree_5_3_u00_r1_network.node[64].content_store 	misses[64] 	8631
scalar tree_5_3_u00_r1_network.node[64].content_store 	decision_yes[64] 	105
scalar tree_5_3_u00_r1_network.node[64].content_store 	decision_no[64] 	8526
scalar tree_5_3_u00_r1_network.node[64].content_store 	decision_ratio[64] 	0.012165450121655
scalar tree_5_3_u00_r1_network.node[65].core_layer 	interests[65] 	12694
scalar tree_5_3_u00_r1_network.node[65].core_layer 	data[65] 	9050
scalar tree_5_3_u00_r1_network.node[65].content_store 	p_hit[65] 	0.28706475500236
scalar tree_5_3_u00_r1_network.node[65].content_store 	hits[65] 	3644
scalar tree_5_3_u00_r1_network.node[65].content_store 	misses[65] 	9050
scalar tree_5_3_u00_r1_network.node[65].content_store 	decision_yes[65] 	111
scalar tree_5_3_u00_r1_network.node[65].content_store 	decision_no[65] 	8939
scalar tree_5_3_u00_r1_network.node[65].content_store 	decision_ratio[65] 	0.012265193370166
scalar tree_5_3_u00_r1_network.node[66].core_layer 	interests[66] 	12483
scalar tree_5_3_u00_r1_network.node[66].core_layer 	data[66] 	8962
scalar tree_5_3_u00_r1_network.node[66].content_store 	p_hit[66] 	0.28206360650485
scalar tree_5_3_u00_r1_network.node[66].content_store 	hits[66] 	3521
scalar tree_5_3_u00_r1_network.node[66].content_store 	misses[66] 	8962
scalar tree_5_3_u00_r1_network.node[66].content_store 	decision_yes[66] 	119
scalar tree_5_3_u00_r1_network.node[66].content_store 	decision_no[66] 	8843
scalar tree_5_3_u00_r1_network.node[66].content_store 	decision_ratio[66] 	0.013278286096853
scalar tree_5_3_u00_r1_network.node[67].core_layer 	interests[67] 	12572
scalar tree_5_3_u00_r1_network.node[67].core_layer 	data[67] 	8930
scalar tree_5_3_u00_r1_network.node[67].content_store 	p_hit[67] 	0.28969137766465
scalar tree_5_3_u00_r1_network.node[67].content_store 	hits[67] 	3642
scalar tree_5_3_u00_r1_network.node[67].content_store 	misses[67] 	8930
scalar tree_5_3_u00_r1_network.node[67].content_store 	decision_yes[67] 	107
scalar tree_5_3_u00_r1_network.node[67].content_store 	decision_no[67] 	8823
scalar tree_5_3_u00_r1_network.node[67].content_store 	decision_ratio[67] 	0.011982082866741
scalar tree_5_3_u00_r1_network.node[68].core_layer 	interests[68] 	12666
scalar tree_5_3_u00_r1_network.node[68].core_layer 	data[68] 	8888
scalar tree_5_3_u00_r1_network.node[68].content_store 	p_hit[68] 	0.29827885678194
scalar tree_5_3_u00_r1_network.node[68].content_store 	hits[68] 	3778
scalar tree_5_3_u00_r1_network.node[68].content_store 	misses[68] 	8888
scalar tree_5_3_u00_r1_network.node[68].content_store 	decision_yes[68] 	111
scalar tree_5_3_u00_r1_network.node[68].content_store 	decision_no[68] 	8777
scalar tree_5_3_u00_r1_network.node[68].content_store 	decision_ratio[68] 	0.012488748874887
scalar tree_5_3_u00_r1_network.node[69].core_layer 	interests[69] 	12570
scalar tree_5_3_u00_r1_network.node[69].core_layer 	data[69] 	8887
scalar tree_5_3_u00_r1_network.node[69].content_store 	p_hit[69] 	0.29299920445505
scalar tree_5_3_u00_r1_network.node[69].content_store 	hits[69] 	3683
scalar tree_5_3_u00_r1_network.node[69].content_store 	misses[69] 	8887
scalar tree_5_3_u00_r1_network.node[69].content_store 	decision_yes[69] 	115
scalar tree_5_3_u00_r1_network.node[69].content_store 	decision_no[69] 	8772
scalar tree_5_3_u00_r1_network.node[69].content_store 	decision_ratio[69] 	0.012940249803083
scalar tree_5_3_u00_r1_network.node[70].core_layer 	interests[70] 	12475
scalar tree_5_3_u00_r1_network.node[70].core_layer 	data[70] 	8872
scalar tree_5_3_u00_r1_network.node[70].content_store 	p_hit[70] 	0.28881763527054
scalar tree_5_3_u00_r1_network.node[70].content_store 	hits[70] 	3603
scalar tree_5_3_u00_r1_network.node[70].content_store 	misses[70] 	8872
scalar tree_5_3_u00_r1_network.node[70].content_store 	decision_yes[70] 	124
scalar tree_5_3_u00_r1_network.node[70].content_store 	decision_no[70] 	8748
scalar tree_5_3_u00_r1_network.node[70].content_store 	decision_ratio[70] 	0.013976555455365
scalar tree_5_3_u00_r1_network.node[71].core_layer 	interests[71] 	12346
scalar tree_5_3_u00_r1_network.node[71].core_layer 	data[71] 	8963
scalar tree_5_3_u00_r1_network.node[71].content_store 	p_hit[71] 	0.27393487769318
scalar tree_5_3_u00_r1_network.node[71].content_store 	hits[71] 	3382
scalar tree_5_3_u00_r1_network.node[71].content_store 	misses[71] 	8964
scalar tree_5_3_u00_r1_network.node[71].content_store 	decision_yes[71] 	134
scalar tree_5_3_u00_r1_network.node[71].content_store 	decision_no[71] 	8829
scalar tree_5_3_u00_r1_network.node[71].content_store 	decision_ratio[71] 	0.014950351444829
scalar tree_5_3_u00_r1_network.node[72].core_layer 	interests[72] 	12463
scalar tree_5_3_u00_r1_network.node[72].core_layer 	data[72] 	8777
scalar tree_5_3_u00_r1_network.node[72].content_store 	p_hit[72] 	0.29575543609083
scalar tree_5_3_u00_r1_network.node[72].content_store 	hits[72] 	3686
scalar tree_5_3_u00_r1_network.node[72].content_store 	misses[72] 	8777
scalar tree_5_3_u00_r1_network.node[72].content_store 	decision_yes[72] 	114
scalar tree_5_3_u00_r1_network.node[72].content_store 	decision_no[72] 	8663
scalar tree_5_3_u00_r1_network.node[72].content_store 	decision_ratio[72] 	0.012988492651248
scalar tree_5_3_u00_r1_network.node[73].core_layer 	interests[73] 	12360
scalar tree_5_3_u00_r1_network.node[73].core_layer 	data[73] 	8802
scalar tree_5_3_u00_r1_network.node[73].content_store 	p_hit[73] 	0.28802588996764
scalar tree_5_3_u00_r1_network.node[73].content_store 	hits[73] 	3560
scalar tree_5_3_u00_r1_network.node[73].content_store 	misses[73] 	8800
scalar tree_5_3_u00_r1_network.node[73].content_store 	decision_yes[73] 	129
scalar tree_5_3_u00_r1_network.node[73].content_store 	decision_no[73] 	8673
scalar tree_5_3_u00_r1_network.node[73].content_store 	decision_ratio[73] 	0.014655760054533
scalar tree_5_3_u00_r1_network.node[74].core_layer 	interests[74] 	12729
scalar tree_5_3_u00_r1_network.node[74].core_layer 	data[74] 	9152
scalar tree_5_3_u00_r1_network.node[74].content_store 	p_hit[74] 	0.28101186267578
scalar tree_5_3_u00_r1_network.node[74].content_store 	hits[74] 	3577
scalar tree_5_3_u00_r1_network.node[74].content_store 	misses[74] 	9152
scalar tree_5_3_u00_r1_network.node[74].content_store 	decision_yes[74] 	129
scalar tree_5_3_u00_r1_network.node[74].content_store 	decision_no[74] 	9023
scalar tree_5_3_u00_r1_network.node[74].content_store 	decision_ratio[74] 	0.01409527972028
scalar tree_5_3_u00_r1_network.node[75].core_layer 	interests[75] 	12574
scalar tree_5_3_u00_r1_network.node[75].core_layer 	data[75] 	8950
scalar tree_5_3_u00_r1_network.node[75].content_store 	p_hit[75] 	0.28821377445523
scalar tree_5_3_u00_r1_network.node[75].content_store 	hits[75] 	3624
scalar tree_5_3_u00_r1_network.node[75].content_store 	misses[75] 	8950
scalar tree_5_3_u00_r1_network.node[75].content_store 	decision_yes[75] 	148
scalar tree_5_3_u00_r1_network.node[75].content_store 	decision_no[75] 	8802
scalar tree_5_3_u00_r1_network.node[75].content_store 	decision_ratio[75] 	0.016536312849162
scalar tree_5_3_u00_r1_network.node[76].core_layer 	interests[76] 	12275
scalar tree_5_3_u00_r1_network.node[76].core_layer 	data[76] 	8918
scalar tree_5_3_u00_r1_network.node[76].content_store 	p_hit[76] 	0.27356415478615
scalar tree_5_3_u00_r1_network.node[76].content_store 	hits[76] 	3358
scalar tree_5_3_u00_r1_network.node[76].content_store 	misses[76] 	8917
scalar tree_5_3_u00_r1_network.node[76].content_store 	decision_yes[76] 	125
scalar tree_5_3_u00_r1_network.node[76].content_store 	decision_no[76] 	8793
scalar tree_5_3_u00_r1_network.node[76].content_store 	decision_ratio[76] 	0.014016595649249
scalar tree_5_3_u00_r1_network.node[77].core_layer 	interests[77] 	12428
scalar tree_5_3_u00_r1_network.node[77].core_layer 	data[77] 	8936
scalar tree_5_3_u00_r1_network.node[77].content_store 	p_hit[77] 	0.28097843579015
scalar tree_5_3_u00_r1_network.node[77].content_store 	hits[77] 	3492
scalar tree_5_3_u00_r1_network.node[77].content_store 	misses[77] 	8936
scalar tree_5_3_u00_r1_network.node[77].content_store 	decision_yes[77] 	126
scalar tree_5_3_u00_r1_network.node[77].content_store 	decision_no[77] 	8810
scalar tree_5_3_u00_r1_network.node[77].content_store 	decision_ratio[77] 	0.014100268576544
scalar tree_5_3_u00_r1_network.node[78].core_layer 	interests[78] 	12546
scalar tree_5_3_u00_r1_network.node[78].core_layer 	data[78] 	8977
scalar tree_5_3_u00_r1_network.node[78].content_store 	p_hit[78] 	0.28439343216962
scalar tree_5_3_u00_r1_network.node[78].content_store 	hits[78] 	3568
scalar tree_5_3_u00_r1_network.node[78].content_store 	misses[78] 	8978
scalar tree_5_3_u00_r1_network.node[78].content_store 	decision_yes[78] 	132
scalar tree_5_3_u00_r1_network.node[78].content_store 	decision_no[78] 	8845
scalar tree_5_3_u00_r1_network.node[78].content_store 	decision_ratio[78] 	0.01470424417957
scalar tree_5_3_u00_r1_network.node[79].core_layer 	interests[79] 	12387
scalar tree_5_3_u00_r1_network.node[79].core_layer 	data[79] 	8828
scalar tree_5_3_u00_r1_network.node[79].content_store 	p_hit[79] 	0.28723661903609
scalar tree_5_3_u00_r1_network.node[79].content_store 	hits[79] 	3558
scalar tree_5_3_u00_r1_network.node[79].content_store 	misses[79] 	8829
scalar tree_5_3_u00_r1_network.node[79].content_store 	decision_yes[79] 	108
scalar tree_5_3_u00_r1_network.node[79].content_store 	decision_no[79] 	8720
scalar tree_5_3_u00_r1_network.node[79].content_store 	decision_ratio[79] 	0.012233801540553
scalar tree_5_3_u00_r1_network.node[80].core_layer 	interests[80] 	12346
scalar tree_5_3_u00_r1_network.node[80].core_layer 	data[80] 	8809
scalar tree_5_3_u00_r1_network.node[80].content_store 	p_hit[80] 	0.28648955127167
scalar tree_5_3_u00_r1_network.node[80].content_store 	hits[80] 	3537
scalar tree_5_3_u00_r1_network.node[80].content_store 	misses[80] 	8809
scalar tree_5_3_u00_r1_network.node[80].content_store 	decision_yes[80] 	132
scalar tree_5_3_u00_r1_network.node[80].content_store 	decision_no[80] 	8677
scalar tree_5_3_u00_r1_network.node[80].content_store 	decision_ratio[80] 	0.014984674764445
scalar tree_5_3_u00_r1_network.node[81].core_layer 	interests[81] 	12328
scalar tree_5_3_u00_r1_network.node[81].core_layer 	data[81] 	8863
scalar tree_5_3_u00_r1_network.node[81].content_store 	p_hit[81] 	0.28114860480208
scalar tree_5_3_u00_r1_network.node[81].content_store 	hits[81] 	3466
scalar tree_5_3_u00_r1_network.node[81].content_store 	misses[81] 	8862
scalar tree_5_3_u00_r1_network.node[81].content_store 	decision_yes[81] 	116
scalar tree_5_3_u00_r1_network.node[81].content_store 	decision_no[81] 	8747
scalar tree_5_3_u00_r1_network.node[81].content_store 	decision_ratio[81] 	0.013088119147016
scalar tree_5_3_u00_r1_network.node[82].core_layer 	interests[82] 	12452
scalar tree_5_3_u00_r1_network.node[82].core_layer 	data[82] 	8857
scalar tree_5_3_u00_r1_network.node[82].content_store 	p_hit[82] 	0.28870864118214
scalar tree_5_3_u00_r1_network.node[82].content_store 	hits[82] 	3595
scalar tree_5_3_u00_r1_network.node[82].content_store 	misses[82] 	8857
scalar tree_5_3_u00_r1_network.node[82].content_store 	decision_yes[82] 	126
scalar tree_5_3_u00_r1_network.node[82].content_store 	decision_no[82] 	8731
scalar tree_5_3_u00_r1_network.node[82].content_store 	decision_ratio[82] 	0.014226035903805
scalar tree_5_3_u00_r1_network.node[83].core_layer 	interests[83] 	12592
scalar tree_5_3_u00_r1_network.node[83].core_layer 	data[83] 	8840
scalar tree_5_3_u00_r1_network.node[83].content_store 	p_hit[83] 	0.29796696315121
scalar tree_5_3_u00_r1_network.node[83].content_store 	hits[83] 	3752
scalar tree_5_3_u00_r1_network.node[83].content_store 	misses[83] 	8840
scalar tree_5_3_u00_r1_network.node[83].content_store 	decision_yes[83] 	133
scalar tree_5_3_u00_r1_network.node[83].content_store 	decision_no[83] 	8707
scalar tree_5_3_u00_r1_network.node[83].content_store 	decision_ratio[83] 	0.015045248868778
scalar tree_5_3_u00_r1_network.node[84].core_layer 	interests[84] 	12343
scalar tree_5_3_u00_r1_network.node[84].core_layer 	data[84] 	8807
scalar tree_5_3_u00_r1_network.node[84].content_store 	p_hit[84] 	0.28647816576197
scalar tree_5_3_u00_r1_network.node[84].content_store 	hits[84] 	3536
scalar tree_5_3_u00_r1_network.node[84].content_store 	misses[84] 	8807
scalar tree_5_3_u00_r1_network.node[84].content_store 	decision_yes[84] 	109
scalar tree_5_3_u00_r1_network.node[84].content_store 	decision_no[84] 	8698
scalar tree_5_3_u00_r1_network.node[84].content_store 	decision_ratio[84] 	0.012376518678324
scalar tree_5_3_u00_r1_network.node[85].core_layer 	interests[85] 	12298
scalar tree_5_3_u00_r1_network.node[85].core_layer 	data[85] 	8735
scalar tree_5_3_u00_r1_network.node[85].content_store 	p_hit[85] 	0.28972190600098
scalar tree_5_3_u00_r1_network.node[85].content_store 	hits[85] 	3563
scalar tree_5_3_u00_r1_network.node[85].content_store 	misses[85] 	8735
scalar tree_5_3_u00_r1_network.node[85].content_store 	decision_yes[85] 	124
scalar tree_5_3_u00_r1_network.node[85].content_store 	decision_no[85] 	8611
scalar tree_5_3_u00_r1_network.node[85].content_store 	decision_ratio[85] 	0.014195764167144
scalar tree_5_3_u00_r1_network.node[86].core_layer 	interests[86] 	12406
scalar tree_5_3_u00_r1_network.node[86].core_layer 	data[86] 	8861
scalar tree_5_3_u00_r1_network.node[86].content_store 	p_hit[86] 	0.28558761889408
scalar tree_5_3_u00_r1_network.node[86].content_store 	hits[86] 	3543
scalar tree_5_3_u00_r1_network.node[86].content_store 	misses[86] 	8863
scalar tree_5_3_u00_r1_network.node[86].content_store 	decision_yes[86] 	104
scalar tree_5_3_u00_r1_network.node[86].content_store 	decision_no[86] 	8757
scalar tree_5_3_u00_r1_network.node[86].content_store 	decision_ratio[86] 	0.011736824286198
scalar tree_5_3_u00_r1_network.node[87].core_layer 	interests[87] 	12468
scalar tree_5_3_u00_r1_network.node[87].core_layer 	data[87] 	8862
scalar tree_5_3_u00_r1_network.node[87].content_store 	p_hit[87] 	0.28922040423484
scalar tree_5_3_u00_r1_network.node[87].content_store 	hits[87] 	3606
scalar tree_5_3_u00_r1_network.node[87].content_store 	misses[87] 	8862
scalar tree_5_3_u00_r1_network.node[87].content_store 	decision_yes[87] 	132
scalar tree_5_3_u00_r1_network.node[87].content_store 	decision_no[87] 	8730
scalar tree_5_3_u00_r1_network.node[87].content_store 	decision_ratio[87] 	0.014895057549086
scalar tree_5_3_u00_r1_network.node[88].core_layer 	interests[88] 	12305
scalar tree_5_3_u00_r1_network.node[88].core_layer 	data[88] 	8699
scalar tree_5_3_u00_r1_network.node[88].content_store 	p_hit[88] 	0.2930516050386
scalar tree_5_3_u00_r1_network.node[88].content_store 	hits[88] 	3606
scalar tree_5_3_u00_r1_network.node[88].content_store 	misses[88] 	8699
scalar tree_5_3_u00_r1_network.node[88].content_store 	decision_yes[88] 	102
scalar tree_5_3_u00_r1_network.node[88].content_store 	decision_no[88] 	8597
scalar tree_5_3_u00_r1_network.node[88].content_store 	decision_ratio[88] 	0.01172548568801
scalar tree_5_3_u00_r1_network.node[89].core_layer 	interests[89] 	12224
scalar tree_5_3_u00_r1_network.node[89].core_layer 	data[89] 	8769
scalar tree_5_3_u00_r1_network.node[89].content_store 	p_hit[89] 	0.28264070680628
scalar tree_5_3_u00_r1_network.node[89].content_store 	hits[89] 	3455
scalar tree_5_3_u00_r1_network.node[89].content_store 	misses[89] 	8769
scalar tree_5_3_u00_r1_network.node[89].content_store 	decision_yes[89] 	113
scalar tree_5_3_u00_r1_network.node[89].content_store 	decision_no[89] 	8656
scalar tree_5_3_u00_r1_network.node[89].content_store 	decision_ratio[89] 	0.012886304025545
scalar tree_5_3_u00_r1_network.node[90].core_layer 	interests[90] 	12485
scalar tree_5_3_u00_r1_network.node[90].core_layer 	data[90] 	8885
scalar tree_5_3_u00_r1_network.node[90].content_store 	p_hit[90] 	0.28834601521826
scalar tree_5_3_u00_r1_network.node[90].content_store 	hits[90] 	3600
scalar tree_5_3_u00_r1_network.node[90].content_store 	misses[90] 	8885
scalar tree_5_3_u00_r1_network.node[90].content_store 	decision_yes[90] 	104
scalar tree_5_3_u00_r1_network.node[90].content_store 	decision_no[90] 	8781
scalar tree_5_3_u00_r1_network.node[90].content_store 	decision_ratio[90] 	0.011705120990433
scalar tree_5_3_u00_r1_network.node[91].core_layer 	interests[91] 	12554
scalar tree_5_3_u00_r1_network.node[91].core_layer 	data[91] 	8882
scalar tree_5_3_u00_r1_network.node[91].content_store 	p_hit[91] 	0.29241675959853
scalar tree_5_3_u00_r1_network.node[91].content_store 	hits[91] 	3671
scalar tree_5_3_u00_r1_network.node[91].content_store 	misses[91] 	8883
scalar tree_5_3_u00_r1_network.node[91].content_store 	decision_yes[91] 	127
scalar tree_5_3_u00_r1_network.node[91].content_store 	decision_no[91] 	8755
scalar tree_5_3_u00_r1_network.node[91].content_store 	decision_ratio[91] 	0.014298581400585
scalar tree_5_3_u00_r1_network.node[92].core_layer 	interests[92] 	12539
scalar tree_5_3_u00_r1_network.node[92].core_layer 	data[92] 	8961
scalar tree_5_3_u00_r1_network.node[92].content_store 	p_hit[92] 	0.28534970890821
scalar tree_5_3_u00_r1_network.node[92].content_store 	hits[92] 	3578
scalar tree_5_3_u00_r1_network.node[92].content_store 	misses[92] 	8961
scalar tree_5_3_u00_r1_network.node[92].content_store 	decision_yes[92] 	128
scalar tree_5_3_u00_r1_network.node[92].content_store 	decision_no[92] 	8833
scalar tree_5_3_u00_r1_network.node[92].content_store 	decision_ratio[92] 	0.014284120075884
scalar tree_5_3_u00_r1_network.node[93].core_layer 	interests[93] 	12475
scalar tree_5_3_u00_r1_network.node[93].core_layer 	data[93] 	8870
scalar tree_5_3_u00_r1_network.node[93].content_store 	p_hit[93] 	0.28897795591182
scalar tree_5_3_u00_r1_network.node[93].content_store 	hits[93] 	3605
scalar tree_5_3_u00_r1_network.node[93].content_store 	misses[93] 	8870
scalar tree_5_3_u00_r1_network.node[93].content_store 	decision_yes[93] 	126
scalar tree_5_3_u00_r1_network.node[93].content_store 	decision_no[93] 	8744
scalar tree_5_3_u00_r1_network.node[93].content_store 	decision_ratio[93] 	0.014205186020293
scalar tree_5_3_u00_r1_network.node[94].core_layer 	interests[94] 	12377
scalar tree_5_3_u00_r1_network.node[94].core_layer 	data[94] 	8854
scalar tree_5_3_u00_r1_network.node[94].content_store 	p_hit[94] 	0.28464086612265
scalar tree_5_3_u00_r1_network.node[94].content_store 	hits[94] 	3523
scalar tree_5_3_u00_r1_network.node[94].content_store 	misses[94] 	8854
scalar tree_5_3_u00_r1_network.node[94].content_store 	decision_yes[94] 	119
scalar tree_5_3_u00_r1_network.node[94].content_store 	decision_no[94] 	8735
scalar tree_5_3_u00_r1_network.node[94].content_store 	decision_ratio[94] 	0.013440252992998
scalar tree_5_3_u00_r1_network.node[95].core_layer 	interests[95] 	12511
scalar tree_5_3_u00_r1_network.node[95].core_layer 	data[95] 	8965
scalar tree_5_3_u00_r1_network.node[95].content_store 	p_hit[95] 	0.28343058108864
scalar tree_5_3_u00_r1_network.node[95].content_store 	hits[95] 	3546
scalar tree_5_3_u00_r1_network.node[95].content_store 	misses[95] 	8965
scalar tree_5_3_u00_r1_network.node[95].content_store 	decision_yes[95] 	114
scalar tree_5_3_u00_r1_network.node[95].content_store 	decision_no[95] 	8851
scalar tree_5_3_u00_r1_network.node[95].content_store 	decision_ratio[95] 	0.012716118237591
scalar tree_5_3_u00_r1_network.node[96].core_layer 	interests[96] 	12352
scalar tree_5_3_u00_r1_network.node[96].core_layer 	data[96] 	8822
scalar tree_5_3_u00_r1_network.node[96].content_store 	p_hit[96] 	0.28578367875648
scalar tree_5_3_u00_r1_network.node[96].content_store 	hits[96] 	3530
scalar tree_5_3_u00_r1_network.node[96].content_store 	misses[96] 	8822
scalar tree_5_3_u00_r1_network.node[96].content_store 	decision_yes[96] 	120
scalar tree_5_3_u00_r1_network.node[96].content_store 	decision_no[96] 	8702
scalar tree_5_3_u00_r1_network.node[96].content_store 	decision_ratio[96] 	0.013602357742009
scalar tree_5_3_u00_r1_network.node[97].core_layer 	interests[97] 	12426
scalar tree_5_3_u00_r1_network.node[97].core_layer 	data[97] 	8947
scalar tree_5_3_u00_r1_network.node[97].content_store 	p_hit[97] 	0.27997746660229
scalar tree_5_3_u00_r1_network.node[97].content_store 	hits[97] 	3479
scalar tree_5_3_u00_r1_network.node[97].content_store 	misses[97] 	8947
scalar tree_5_3_u00_r1_network.node[97].content_store 	decision_yes[97] 	119
scalar tree_5_3_u00_r1_network.node[97].content_store 	decision_no[97] 	8828
scalar tree_5_3_u00_r1_network.node[97].content_store 	decision_ratio[97] 	0.01330054766961
scalar tree_5_3_u00_r1_network.node[98].core_layer 	interests[98] 	12392
scalar tree_5_3_u00_r1_network.node[98].core_layer 	data[98] 	8805
scalar tree_5_3_u00_r1_network.node[98].content_store 	p_hit[98] 	0.28946094254358
scalar tree_5_3_u00_r1_network.node[98].content_store 	hits[98] 	3587
scalar tree_5_3_u00_r1_network.node[98].content_store 	misses[98] 	8805
scalar tree_5_3_u00_r1_network.node[98].content_store 	decision_yes[98] 	122
scalar tree_5_3_u00_r1_network.node[98].content_store 	decision_no[98] 	8683
scalar tree_5_3_u00_r1_network.node[98].content_store 	decision_ratio[98] 	0.013855763770585
scalar tree_5_3_u00_r1_network.node[99].core_layer 	interests[99] 	12490
scalar tree_5_3_u00_r1_network.node[99].core_layer 	data[99] 	8871
scalar tree_5_3_u00_r1_network.node[99].content_store 	p_hit[99] 	0.28975180144115
scalar tree_5_3_u00_r1_network.node[99].content_store 	hits[99] 	3619
scalar tree_5_3_u00_r1_network.node[99].content_store 	misses[99] 	8871
scalar tree_5_3_u00_r1_network.node[99].content_store 	decision_yes[99] 	103
scalar tree_5_3_u00_r1_network.node[99].content_store 	decision_no[99] 	8768
scalar tree_5_3_u00_r1_network.node[99].content_store 	decision_ratio[99] 	0.011610866869575
scalar tree_5_3_u00_r1_network.node[100].core_layer 	interests[100] 	12623
scalar tree_5_3_u00_r1_network.node[100].core_layer 	data[100] 	9062
scalar tree_5_3_u00_r1_network.node[100].content_store 	p_hit[100] 	0.28210409569833
scalar tree_5_3_u00_r1_network.node[100].content_store 	hits[100] 	3561
scalar tree_5_3_u00_r1_network.node[100].content_store 	misses[100] 	9062
scalar tree_5_3_u00_r1_network.node[100].content_store 	decision_yes[100] 	124
scalar tree_5_3_u00_r1_network.node[100].content_store 	decision_no[100] 	8938
scalar tree_5_3_u00_r1_network.node[100].content_store 	decision_ratio[100] 	0.013683513573163
scalar tree_5_3_u00_r1_network.node[101].core_layer 	interests[101] 	12488
scalar tree_5_3_u00_r1_network.node[101].core_layer 	data[101] 	8904
scalar tree_5_3_u00_r1_network.node[101].content_store 	p_hit[101] 	0.28699551569507
scalar tree_5_3_u00_r1_network.node[101].content_store 	hits[101] 	3584
scalar tree_5_3_u00_r1_network.node[101].content_store 	misses[101] 	8904
scalar tree_5_3_u00_r1_network.node[101].content_store 	decision_yes[101] 	123
scalar tree_5_3_u00_r1_network.node[101].content_store 	decision_no[101] 	8781
scalar tree_5_3_u00_r1_network.node[101].content_store 	decision_ratio[101] 	0.013814016172507
scalar tree_5_3_u00_r1_network.node[102].core_layer 	interests[102] 	12529
scalar tree_5_3_u00_r1_network.node[102].core_layer 	data[102] 	8871
scalar tree_5_3_u00_r1_network.node[102].content_store 	p_hit[102] 	0.29196264665975
scalar tree_5_3_u00_r1_network.node[102].content_store 	hits[102] 	3658
scalar tree_5_3_u00_r1_network.node[102].content_store 	misses[102] 	8871
scalar tree_5_3_u00_r1_network.node[102].content_store 	decision_yes[102] 	103
scalar tree_5_3_u00_r1_network.node[102].content_store 	decision_no[102] 	8768
scalar tree_5_3_u00_r1_network.node[102].content_store 	decision_ratio[102] 	0.011610866869575
scalar tree_5_3_u00_r1_network.node[103].core_layer 	interests[103] 	12547
scalar tree_5_3_u00_r1_network.node[103].core_layer 	data[103] 	8962
scalar tree_5_3_u00_r1_network.node[103].content_store 	p_hit[103] 	0.28572567147525
scalar tree_5_3_u00_r1_network.node[103].content_store 	hits[103] 	3585
scalar tree_5_3_u00_r1_network.node[103].content_store 	misses[103] 	8962
scalar tree_5_3_u00_r1_network.node[103].content_store 	decision_yes[103] 	105
scalar tree_5_3_u00_r1_network.node[103].content_store 	decision_no[103] 	8857
scalar tree_5_3_u00_r1_network.node[103].content_store 	decision_ratio[103] 	0.011716134791341
scalar tree_5_3_u00_r1_network.node[104].core_layer 	interests[104] 	12399
scalar tree_5_3_u00_r1_network.node[104].core_layer 	data[104] 	8840
scalar tree_5_3_u00_r1_network.node[104].content_store 	p_hit[104] 	0.28703927736108
scalar tree_5_3_u00_r1_network.node[104].content_store 	hits[104] 	3559
scalar tree_5_3_u00_r1_network.node[104].content_store 	misses[104] 	8840
scalar tree_5_3_u00_r1_network.node[104].content_store 	decision_yes[104] 	117
scalar tree_5_3_u00_r1_network.node[104].content_store 	decision_no[104] 	8723
scalar tree_5_3_u00_r1_network.node[104].content_store 	decision_ratio[104] 	0.013235294117647
scalar tree_5_3_u00_r1_network.node[105].core_layer 	interests[105] 	12548
scalar tree_5_3_u00_r1_network.node[105].core_layer 	data[105] 	8960
scalar tree_5_3_u00_r1_network.node[105].content_store 	p_hit[105] 	0.2859419827861
scalar tree_5_3_u00_r1_network.node[105].content_store 	hits[105] 	3588
scalar tree_5_3_u00_r1_network.node[105].content_store 	misses[105] 	8960
scalar tree_5_3_u00_r1_network.node[105].content_store 	decision_yes[105] 	143
scalar tree_5_3_u00_r1_network.node[105].content_store 	decision_no[105] 	8817
scalar tree_5_3_u00_r1_network.node[105].content_store 	decision_ratio[105] 	0.015959821428571
scalar tree_5_3_u00_r1_network.node[106].core_layer 	interests[106] 	12524
scalar tree_5_3_u00_r1_network.node[106].core_layer 	data[106] 	9124
scalar tree_5_3_u00_r1_network.node[106].content_store 	p_hit[106] 	0.2714787607793
scalar tree_5_3_u00_r1_network.node[106].content_store 	hits[106] 	3400
scalar tree_5_3_u00_r1_network.node[106].content_store 	misses[106] 	9124
scalar tree_5_3_u00_r1_network.node[106].content_store 	decision_yes[106] 	116
scalar tree_5_3_u00_r1_network.node[106].content_store 	decision_no[106] 	9008
scalar tree_5_3_u00_r1_network.node[106].content_store 	decision_ratio[106] 	0.012713722051732
scalar tree_5_3_u00_r1_network.node[107].core_layer 	interests[107] 	12452
scalar tree_5_3_u00_r1_network.node[107].core_layer 	data[107] 	8856
scalar tree_5_3_u00_r1_network.node[107].content_store 	p_hit[107] 	0.28878894956633
scalar tree_5_3_u00_r1_network.node[107].content_store 	hits[107] 	3596
scalar tree_5_3_u00_r1_network.node[107].content_store 	misses[107] 	8856
scalar tree_5_3_u00_r1_network.node[107].content_store 	decision_yes[107] 	88
scalar tree_5_3_u00_r1_network.node[107].content_store 	decision_no[107] 	8768
scalar tree_5_3_u00_r1_network.node[107].content_store 	decision_ratio[107] 	0.009936766034327
scalar tree_5_3_u00_r1_network.node[108].core_layer 	interests[108] 	12591
scalar tree_5_3_u00_r1_network.node[108].core_layer 	data[108] 	8854
scalar tree_5_3_u00_r1_network.node[108].content_store 	p_hit[108] 	0.29679930108808
scalar tree_5_3_u00_r1_network.node[108].content_store 	hits[108] 	3737
scalar tree_5_3_u00_r1_network.node[108].content_store 	misses[108] 	8854
scalar tree_5_3_u00_r1_network.node[108].content_store 	decision_yes[108] 	106
scalar tree_5_3_u00_r1_network.node[108].content_store 	decision_no[108] 	8748
scalar tree_5_3_u00_r1_network.node[108].content_store 	decision_ratio[108] 	0.011971990060989
scalar tree_5_3_u00_r1_network.node[109].core_layer 	interests[109] 	12370
scalar tree_5_3_u00_r1_network.node[109].core_layer 	data[109] 	8703
scalar tree_5_3_u00_r1_network.node[109].content_store 	p_hit[109] 	0.29644300727567
scalar tree_5_3_u00_r1_network.node[109].content_store 	hits[109] 	3667
scalar tree_5_3_u00_r1_network.node[109].content_store 	misses[109] 	8703
scalar tree_5_3_u00_r1_network.node[109].content_store 	decision_yes[109] 	116
scalar tree_5_3_u00_r1_network.node[109].content_store 	decision_no[109] 	8587
scalar tree_5_3_u00_r1_network.node[109].content_store 	decision_ratio[109] 	0.013328737217052
scalar tree_5_3_u00_r1_network.node[110].core_layer 	interests[110] 	12388
scalar tree_5_3_u00_r1_network.node[110].core_layer 	data[110] 	8773
scalar tree_5_3_u00_r1_network.node[110].content_store 	p_hit[110] 	0.29181465934776
scalar tree_5_3_u00_r1_network.node[110].content_store 	hits[110] 	3615
scalar tree_5_3_u00_r1_network.node[110].content_store 	misses[110] 	8773
scalar tree_5_3_u00_r1_network.node[110].content_store 	decision_yes[110] 	107
scalar tree_5_3_u00_r1_network.node[110].content_store 	decision_no[110] 	8666
scalar tree_5_3_u00_r1_network.node[110].content_store 	decision_ratio[110] 	0.012196512025533
scalar tree_5_3_u00_r1_network.node[111].core_layer 	interests[111] 	12351
scalar tree_5_3_u00_r1_network.node[111].core_layer 	data[111] 	8803
scalar tree_5_3_u00_r1_network.node[111].content_store 	p_hit[111] 	0.28726418913448
scalar tree_5_3_u00_r1_network.node[111].content_store 	hits[111] 	3548
scalar tree_5_3_u00_r1_network.node[111].content_store 	misses[111] 	8803
scalar tree_5_3_u00_r1_network.node[111].content_store 	decision_yes[111] 	115
scalar tree_5_3_u00_r1_network.node[111].content_store 	decision_no[111] 	8688
scalar tree_5_3_u00_r1_network.node[111].content_store 	decision_ratio[111] 	0.013063728274452
scalar tree_5_3_u00_r1_network.node[112].core_layer 	interests[112] 	12436
scalar tree_5_3_u00_r1_network.node[112].core_layer 	data[112] 	8869
scalar tree_5_3_u00_r1_network.node[112].content_store 	p_hit[112] 	0.28682856223866
scalar tree_5_3_u00_r1_network.node[112].content_store 	hits[112] 	3567
scalar tree_5_3_u00_r1_network.node[112].content_store 	misses[112] 	8869
scalar tree_5_3_u00_r1_network.node[112].content_store 	decision_yes[112] 	112
scalar tree_5_3_u00_r1_network.node[112].content_store 	decision_no[112] 	8757
scalar tree_5_3_u00_r1_network.node[112].content_store 	decision_ratio[112] 	0.012628255722178
scalar tree_5_3_u00_r1_network.node[113].core_layer 	interests[113] 	12433
scalar tree_5_3_u00_r1_network.node[113].core_layer 	data[113] 	8882
scalar tree_5_3_u00_r1_network.node[113].content_store 	p_hit[113] 	0.28553044317542
scalar tree_5_3_u00_r1_network.node[113].content_store 	hits[113] 	3550
scalar tree_5_3_u00_r1_network.node[113].content_store 	misses[113] 	8883
scalar tree_5_3_u00_r1_network.node[113].content_store 	decision_yes[113] 	128
scalar tree_5_3_u00_r1_network.node[113].content_store 	decision_no[113] 	8754
scalar tree_5_3_u00_r1_network.node[113].content_store 	decision_ratio[113] 	0.014411168655708
scalar tree_5_3_u00_r1_network.node[114].core_layer 	interests[114] 	12415
scalar tree_5_3_u00_r1_network.node[114].core_layer 	data[114] 	8864
scalar tree_5_3_u00_r1_network.node[114].content_store 	p_hit[114] 	0.28586387434555
scalar tree_5_3_u00_r1_network.node[114].content_store 	hits[114] 	3549
scalar tree_5_3_u00_r1_network.node[114].content_store 	misses[114] 	8866
scalar tree_5_3_u00_r1_network.node[114].content_store 	decision_yes[114] 	109
scalar tree_5_3_u00_r1_network.node[114].content_store 	decision_no[114] 	8755
scalar tree_5_3_u00_r1_network.node[114].content_store 	decision_ratio[114] 	0.012296931407942
scalar tree_5_3_u00_r1_network.node[115].core_layer 	interests[115] 	12703
scalar tree_5_3_u00_r1_network.node[115].core_layer 	data[115] 	9031
scalar tree_5_3_u00_r1_network.node[115].content_store 	p_hit[115] 	0.28906557506101
scalar tree_5_3_u00_r1_network.node[115].content_store 	hits[115] 	3672
scalar tree_5_3_u00_r1_network.node[115].content_store 	misses[115] 	9031
scalar tree_5_3_u00_r1_network.node[115].content_store 	decision_yes[115] 	105
scalar tree_5_3_u00_r1_network.node[115].content_store 	decision_no[115] 	8926
scalar tree_5_3_u00_r1_network.node[115].content_store 	decision_ratio[115] 	0.011626619421991
scalar tree_5_3_u00_r1_network.node[116].core_layer 	interests[116] 	12485
scalar tree_5_3_u00_r1_network.node[116].core_layer 	data[116] 	8966
scalar tree_5_3_u00_r1_network.node[116].content_store 	p_hit[116] 	0.28169803764517
scalar tree_5_3_u00_r1_network.node[116].content_store 	hits[116] 	3517
scalar tree_5_3_u00_r1_network.node[116].content_store 	misses[116] 	8968
scalar tree_5_3_u00_r1_network.node[116].content_store 	decision_yes[116] 	116
scalar tree_5_3_u00_r1_network.node[116].content_store 	decision_no[116] 	8850
scalar tree_5_3_u00_r1_network.node[116].content_store 	decision_ratio[116] 	0.012937764889583
scalar tree_5_3_u00_r1_network.node[117].core_layer 	interests[117] 	12728
scalar tree_5_3_u00_r1_network.node[117].core_layer 	data[117] 	8993
scalar tree_5_3_u00_r1_network.node[117].content_store 	p_hit[117] 	0.29344751728473
scalar tree_5_3_u00_r1_network.node[117].content_store 	hits[117] 	3735
scalar tree_5_3_u00_r1_network.node[117].content_store 	misses[117] 	8993
scalar tree_5_3_u00_r1_network.node[117].content_store 	decision_yes[117] 	109
scalar tree_5_3_u00_r1_network.node[117].content_store 	decision_no[117] 	8884
scalar tree_5_3_u00_r1_network.node[117].content_store 	decision_ratio[117] 	0.012120538196375
scalar tree_5_3_u00_r1_network.node[118].core_layer 	interests[118] 	12323
scalar tree_5_3_u00_r1_network.node[118].core_layer 	data[118] 	8789
scalar tree_5_3_u00_r1_network.node[118].content_store 	p_hit[118] 	0.28678081635965
scalar tree_5_3_u00_r1_network.node[118].content_store 	hits[118] 	3534
scalar tree_5_3_u00_r1_network.node[118].content_store 	misses[118] 	8789
scalar tree_5_3_u00_r1_network.node[118].content_store 	decision_yes[118] 	131
scalar tree_5_3_u00_r1_network.node[118].content_store 	decision_no[118] 	8658
scalar tree_5_3_u00_r1_network.node[118].content_store 	decision_ratio[118] 	0.014904994879964
scalar tree_5_3_u00_r1_network.node[119].core_layer 	interests[119] 	12456
scalar tree_5_3_u00_r1_network.node[119].core_layer 	data[119] 	8794
scalar tree_5_3_u00_r1_network.node[119].content_store 	p_hit[119] 	0.29399486191394
scalar tree_5_3_u00_r1_network.node[119].content_store 	hits[119] 	3662
scalar tree_5_3_u00_r1_network.node[119].content_store 	misses[119] 	8794
scalar tree_5_3_u00_r1_network.node[119].content_store 	decision_yes[119] 	97
scalar tree_5_3_u00_r1_network.node[119].content_store 	decision_no[119] 	8697
scalar tree_5_3_u00_r1_network.node[119].content_store 	decision_ratio[119] 	0.011030247896293
scalar tree_5_3_u00_r1_network.node[120].core_layer 	interests[120] 	12410
scalar tree_5_3_u00_r1_network.node[120].core_layer 	data[120] 	8781
scalar tree_5_3_u00_r1_network.node[120].content_store 	p_hit[120] 	0.29242546333602
scalar tree_5_3_u00_r1_network.node[120].content_store 	hits[120] 	3629
scalar tree_5_3_u00_r1_network.node[120].content_store 	misses[120] 	8781
scalar tree_5_3_u00_r1_network.node[120].content_store 	decision_yes[120] 	120
scalar tree_5_3_u00_r1_network.node[120].content_store 	decision_no[120] 	8661
scalar tree_5_3_u00_r1_network.node[120].content_store 	decision_ratio[120] 	0.013665869490946
scalar tree_5_3_u00_r1_network.client[40] 	hdistance[40] 	3.3255234297109
scalar tree_5_3_u00_r1_network.client[40] 	downloads[40] 	12036
scalar tree_5_3_u00_r1_network.client[40] 	avg_time[40] 	0.005513622806
scalar tree_5_3_u00_r1_network.client[41] 	hdistance[41] 	3.3357209067161
scalar tree_5_3_u00_r1_network.client[41] 	downloads[41] 	11867
scalar tree_5_3_u00_r1_network.client[41] 	avg_time[41] 	0.005530057213
scalar tree_5_3_u00_r1_network.client[42] 	hdistance[42] 	3.3431331723162
scalar tree_5_3_u00_r1_network.client[42] 	downloads[42] 	12007
scalar tree_5_3_u00_r1_network.client[42] 	avg_time[42] 	0.005532269854
scalar tree_5_3_u00_r1_network.client[43] 	hdistance[43] 	3.3538775510204
scalar tree_5_3_u00_r1_network.client[43] 	downloads[43] 	12250
scalar tree_5_3_u00_r1_network.client[43] 	avg_time[43] 	0.005554586
scalar tree_5_3_u00_r1_network.client[44] 	hdistance[44] 	3.3368403473614
scalar tree_5_3_u00_r1_network.client[44] 	downloads[44] 	11976
scalar tree_5_3_u00_r1_network.client[44] 	avg_time[44] 	0.005530324492
scalar tree_5_3_u00_r1_network.client[45] 	hdistance[45] 	3.3539579158317
scalar tree_5_3_u00_r1_network.client[45] 	downloads[45] 	11976
scalar tree_5_3_u00_r1_network.client[45] 	avg_time[45] 	0.005561453259
scalar tree_5_3_u00_r1_network.client[46] 	hdistance[46] 	3.323850479656
scalar tree_5_3_u00_r1_network.client[46] 	downloads[46] 	12092
scalar tree_5_3_u00_r1_network.client[46] 	avg_time[46] 	0.005504519018
scalar tree_5_3_u00_r1_network.client[47] 	hdistance[47] 	3.3334698893896
scalar tree_5_3_u00_r1_network.client[47] 	downloads[47] 	12205
scalar tree_5_3_u00_r1_network.client[47] 	avg_time[47] 	0.005520758152
scalar tree_5_3_u00_r1_network.client[48] 	hdistance[48] 	3.3133941269974
scalar tree_5_3_u00_r1_network.client[48] 	downloads[48] 	11953
scalar tree_5_3_u00_r1_network.client[48] 	avg_time[48] 	0.005488660947
scalar tree_5_3_u00_r1_network.client[49] 	hdistance[49] 	3.3175726296512
scalar tree_5_3_u00_r1_network.client[49] 	downloads[49] 	12013
scalar tree_5_3_u00_r1_network.client[49] 	avg_time[49] 	0.005504218114
scalar tree_5_3_u00_r1_network.client[50] 	hdistance[50] 	3.3416826162936
scalar tree_5_3_u00_r1_network.client[50] 	downloads[50] 	12017
scalar tree_5_3_u00_r1_network.client[50] 	avg_time[50] 	0.005531109738
scalar tree_5_3_u00_r1_network.client[51] 	hdistance[51] 	3.3196939454425
scalar tree_5_3_u00_r1_network.client[51] 	downloads[51] 	12024
scalar tree_5_3_u00_r1_network.client[51] 	avg_time[51] 	0.005501660351
scalar tree_5_3_u00_r1_network.client[52] 	hdistance[52] 	3.3547771229352
scalar tree_5_3_u00_r1_network.client[52] 	downloads[52] 	12047
scalar tree_5_3_u00_r1_network.client[52] 	avg_time[52] 	0.005549488393
scalar tree_5_3_u00_r1_network.client[53] 	hdistance[53] 	3.3132338141563
scalar tree_5_3_u00_r1_network.client[53] 	downloads[53] 	11924
scalar tree_5_3_u00_r1_network.client[53] 	avg_time[53] 	0.005483124702
scalar tree_5_3_u00_r1_network.client[54] 	hdistance[54] 	3.3474260134295
scalar tree_5_3_u00_r1_network.client[54] 	downloads[54] 	12063
scalar tree_5_3_u00_r1_network.client[54] 	avg_time[54] 	0.005544295184
scalar tree_5_3_u00_r1_network.client[55] 	hdistance[55] 	3.3560342634213
scalar tree_5_3_u00_r1_network.client[55] 	downloads[55] 	11791
scalar tree_5_3_u00_r1_network.client[55] 	avg_time[55] 	0.005555590284
scalar tree_5_3_u00_r1_network.client[56] 	hdistance[56] 	3.3320952220159
scalar tree_5_3_u00_r1_network.client[56] 	downloads[56] 	11846
scalar tree_5_3_u00_r1_network.client[56] 	avg_time[56] 	0.005511710062
scalar tree_5_3_u00_r1_network.client[57] 	hdistance[57] 	3.3228684454171
scalar tree_5_3_u00_r1_network.client[57] 	downloads[57] 	11881
scalar tree_5_3_u00_r1_network.client[57] 	avg_time[57] 	0.005508063
scalar tree_5_3_u00_r1_network.client[58] 	hdistance[58] 	3.3421865864863
scalar tree_5_3_u00_r1_network.client[58] 	downloads[58] 	11973
scalar tree_5_3_u00_r1_network.client[58] 	avg_time[58] 	0.005547311824
scalar tree_5_3_u00_r1_network.client[59] 	hdistance[59] 	3.3326363332218
scalar tree_5_3_u00_r1_network.client[59] 	downloads[59] 	11956
scalar tree_5_3_u00_r1_network.client[59] 	avg_time[59] 	0.005520237893
scalar tree_5_3_u00_r1_network.client[60] 	hdistance[60] 	3.3157320349228
scalar tree_5_3_u00_r1_network.client[60] 	downloads[60] 	11912
scalar tree_5_3_u00_r1_network.client[60] 	avg_time[60] 	0.00548925158
scalar tree_5_3_u00_r1_network.client[61] 	hdistance[61] 	3.3477640741673
scalar tree_5_3_u00_r1_network.client[61] 	downloads[61] 	11919
scalar tree_5_3_u00_r1_network.client[61] 	avg_time[61] 	0.005538884499
scalar tree_5_3_u00_r1_network.client[62] 	hdistance[62] 	3.3209099303282
scalar tree_5_3_u00_r1_network.client[62] 	downloads[62] 	11913
scalar tree_5_3_u00_r1_network.client[62] 	avg_time[62] 	0.005501885716
scalar tree_5_3_u00_r1_network.client[63] 	hdistance[63] 	3.350190681479
scalar tree_5_3_u00_r1_network.client[63] 	downloads[63] 	12062
scalar tree_5_3_u00_r1_network.client[63] 	avg_time[63] 	0.005545843426
scalar tree_5_3_u00_r1_network.client[64] 	hdistance[64] 	3.2991792875878
scalar tree_5_3_u00_r1_network.client[64] 	downloads[64] 	11819
scalar tree_5_3_u00_r1_network.client[64] 	avg_time[64] 	0.005462895784
scalar tree_5_3_u00_r1_network.client[65] 	hdistance[65] 	3.3321624050323
scalar tree_5_3_u00_r1_network.client[65] 	downloads[65] 	12241
scalar tree_5_3_u00_r1_network.client[65] 	avg_time[65] 	0.005523570394
scalar tree_5_3_u00_r1_network.client[66] 	hdistance[66] 	3.3410897648228
scalar tree_5_3_u00_r1_network.client[66] 	downloads[66] 	12076
scalar tree_5_3_u00_r1_network.client[66] 	avg_time[66] 	0.005536598486
scalar tree_5_3_u00_r1_network.client[67] 	hdistance[67] 	3.3418845994188
scalar tree_5_3_u00_r1_network.client[67] 	downloads[67] 	12045
scalar tree_5_3_u00_r1_network.client[67] 	avg_time[67] 	0.005537066295
scalar tree_5_3_u00_r1_network.client[68] 	hdistance[68] 	3.3218428630193
scalar tree_5_3_u00_r1_network.client[68] 	downloads[68] 	12155
scalar tree_5_3_u00_r1_network.client[68] 	avg_time[68] 	0.005496388474
scalar tree_5_3_u00_r1_network.client[69] 	hdistance[69] 	3.3234854771784
scalar tree_5_3_u00_r1_network.client[69] 	downloads[69] 	12050
scalar tree_5_3_u00_r1_network.client[69] 	avg_time[69] 	0.005508312058
scalar tree_5_3_u00_r1_network.client[70] 	hdistance[70] 	3.3388209861146
scalar tree_5_3_u00_r1_network.client[70] 	downloads[70] 	12027
scalar tree_5_3_u00_r1_network.client[70] 	avg_time[70] 	0.005536539808
scalar tree_5_3_u00_r1_network.client[71] 	hdistance[71] 	3.3755762299891
scalar tree_5_3_u00_r1_network.client[71] 	downloads[71] 	11931
scalar tree_5_3_u00_r1_network.client[71] 	avg_time[71] 	0.00560888736
scalar tree_5_3_u00_r1_network.client[72] 	hdistance[72] 	3.3512559858859
scalar tree_5_3_u00_r1_network.client[72] 	downloads[72] 	11903
scalar tree_5_3_u00_r1_network.client[72] 	avg_time[72] 	0.005549522347
scalar tree_5_3_u00_r1_network.client[73] 	hdistance[73] 	3.3514401212734
scalar tree_5_3_u00_r1_network.client[73] 	downloads[73] 	11874
scalar tree_5_3_u00_r1_network.client[73] 	avg_time[73] 	0.005551453982
scalar tree_5_3_u00_r1_network.client[74] 	hdistance[74] 	3.3692069190601
scalar tree_5_3_u00_r1_network.client[74] 	downloads[74] 	12256
scalar tree_5_3_u00_r1_network.client[74] 	avg_time[74] 	0.005587627475
scalar tree_5_3_u00_r1_network.client[75] 	hdistance[75] 	3.335734989648
scalar tree_5_3_u00_r1_network.client[75] 	downloads[75] 	12075
scalar tree_5_3_u00_r1_network.client[75] 	avg_time[75] 	0.005526658837
scalar tree_5_3_u00_r1_network.client[76] 	hdistance[76] 	3.3928812415655
scalar tree_5_3_u00_r1_network.client[76] 	downloads[76] 	11856
scalar tree_5_3_u00_r1_network.client[76] 	avg_time[76] 	0.005610866246
scalar tree_5_3_u00_r1_network.client[77] 	hdistance[77] 	3.3655195456064
scalar tree_5_3_u00_r1_network.client[77] 	downloads[77] 	11972
scalar tree_5_3_u00_r1_network.client[77] 	avg_time[77] 	0.005576675924
scalar tree_5_3_u00_r1_network.client[78] 	hdistance[78] 	3.3681727904667
scalar tree_5_3_u00_r1_network.client[78] 	downloads[78] 	12084
scalar tree_5_3_u00_r1_network.client[78] 	avg_time[78] 	0.005567384992
scalar tree_5_3_u00_r1_network.client[79] 	hdistance[79] 	3.3469097599732
scalar tree_5_3_u00_r1_network.client[79] 	downloads[79] 	11957
scalar tree_5_3_u00_r1_network.client[79] 	avg_time[79] 	0.005539683012
scalar tree_5_3_u00_r1_network.client[80] 	hdistance[80] 	3.323857442348
scalar tree_5_3_u00_r1_network.client[80] 	downloads[80] 	11925
scalar tree_5_3_u00_r1_network.client[80] 	avg_time[80] 	0.005509263246
scalar tree_5_3_u00_r1_network.client[81] 	hdistance[81] 	3.3591809331991
scalar tree_5_3_u00_r1_network.client[81] 	downloads[81] 	11916
scalar tree_5_3_u00_r1_network.client[81] 	avg_time[81] 	0.00556822109
scalar tree_5_3_u00_r1_network.client[82] 	hdistance[82] 	3.3348355867134
scalar tree_5_3_u00_r1_network.client[82] 	downloads[82] 	11982
scalar tree_5_3_u00_r1_network.client[82] 	avg_time[82] 	0.005525509685
scalar tree_5_3_u00_r1_network.client[83] 	hdistance[83] 	3.2970403439153
scalar tree_5_3_u00_r1_network.client[83] 	downloads[83] 	12096
scalar tree_5_3_u00_r1_network.client[83] 	avg_time[83] 	0.005460770312
scalar tree_5_3_u00_r1_network.client[84] 	hdistance[84] 	3.3390057842233
scalar tree_5_3_u00_r1_network.client[84] 	downloads[84] 	11929
scalar tree_5_3_u00_r1_network.client[84] 	avg_time[84] 	0.00553725911
scalar tree_5_3_u00_r1_network.client[85] 	hdistance[85] 	3.3365799949183
scalar tree_5_3_u00_r1_network.client[85] 	downloads[85] 	11807
scalar tree_5_3_u00_r1_network.client[85] 	avg_time[85] 	0.005528287251
scalar tree_5_3_u00_r1_network.client[86] 	hdistance[86] 	3.3413557628248
scalar tree_5_3_u00_r1_network.client[86] 	downloads[86] 	12008
scalar tree_5_3_u00_r1_network.client[86] 	avg_time[86] 	0.00552962197
scalar tree_5_3_u00_r1_network.client[87] 	hdistance[87] 	3.3296354992076
scalar tree_5_3_u00_r1_network.client[87] 	downloads[87] 	11989
scalar tree_5_3_u00_r1_network.client[87] 	avg_time[87] 	0.005513717911
scalar tree_5_3_u00_r1_network.client[88] 	hdistance[88] 	3.3260079452286
scalar tree_5_3_u00_r1_network.client[88] 	downloads[88] 	11831
scalar tree_5_3_u00_r1_network.client[88] 	avg_time[88] 	0.005513992982
scalar tree_5_3_u00_r1_network.client[89] 	hdistance[89] 	3.356114498645
scalar tree_5_3_u00_r1_network.client[89] 	downloads[89] 	11808
scalar tree_5_3_u00_r1_network.client[89] 	avg_time[89] 	0.005559091442
scalar tree_5_3_u00_r1_network.client[90] 	hdistance[90] 	3.3476305488465
scalar tree_5_3_u00_r1_network.client[90] 	downloads[90] 	12007
scalar tree_5_3_u00_r1_network.client[90] 	avg_time[90] 	0.00554313829
scalar tree_5_3_u00_r1_network.client[91] 	hdistance[91] 	3.3130593304607
scalar tree_5_3_u00_r1_network.client[91] 	downloads[91] 	12068
scalar tree_5_3_u00_r1_network.client[91] 	avg_time[91] 	0.005482927059
scalar tree_5_3_u00_r1_network.client[92] 	hdistance[92] 	3.3632598973
scalar tree_5_3_u00_r1_network.client[92] 	downloads[92] 	12074
scalar tree_5_3_u00_r1_network.client[92] 	avg_time[92] 	0.005562859326
scalar tree_5_3_u00_r1_network.client[93] 	hdistance[93] 	3.3490471414243
scalar tree_5_3_u00_r1_network.client[93] 	downloads[93] 	11964
scalar tree_5_3_u00_r1_network.client[93] 	avg_time[93] 	0.005547501131
scalar tree_5_3_u00_r1_network.client[94] 	hdistance[94] 	3.3569620253165
scalar tree_5_3_u00_r1_network.client[94] 	downloads[94] 	11850
scalar tree_5_3_u00_r1_network.client[94] 	avg_time[94] 	0.005568098305
scalar tree_5_3_u00_r1_network.client[95] 	hdistance[95] 	3.3627995687868
scalar tree_5_3_u00_r1_network.client[95] 	downloads[95] 	12059
scalar tree_5_3_u00_r1_network.client[95] 	avg_time[95] 	0.005574588565
scalar tree_5_3_u00_r1_network.client[96] 	hdistance[96] 	3.3572508822047
scalar tree_5_3_u00_r1_network.client[96] 	downloads[96] 	11902
scalar tree_5_3_u00_r1_network.client[96] 	avg_time[96] 	0.005550406939
scalar tree_5_3_u00_r1_network.client[97] 	hdistance[97] 	3.3774432338019
scalar tree_5_3_u00_r1_network.client[97] 	downloads[97] 	12023
scalar tree_5_3_u00_r1_network.client[97] 	avg_time[97] 	0.005586456279
scalar tree_5_3_u00_r1_network.client[98] 	hdistance[98] 	3.3262067813596
scalar tree_5_3_u00_r1_network.client[98] 	downloads[98] 	11974
scalar tree_5_3_u00_r1_network.client[98] 	avg_time[98] 	0.005505926535
scalar tree_5_3_u00_r1_network.client[99] 	hdistance[99] 	3.3367811336367
scalar tree_5_3_u00_r1_network.client[99] 	downloads[99] 	12085
scalar tree_5_3_u00_r1_network.client[99] 	avg_time[99] 	0.005522085141
scalar tree_5_3_u00_r1_network.client[100] 	hdistance[100] 	3.3538993089832
scalar tree_5_3_u00_r1_network.client[100] 	downloads[100] 	12156
scalar tree_5_3_u00_r1_network.client[100] 	avg_time[100] 	0.005562023931
scalar tree_5_3_u00_r1_network.client[101] 	hdistance[101] 	3.3429714190484
scalar tree_5_3_u00_r1_network.client[101] 	downloads[101] 	12001
scalar tree_5_3_u00_r1_network.client[101] 	avg_time[101] 	0.005538868771
scalar tree_5_3_u00_r1_network.client[102] 	hdistance[102] 	3.3115773760159
scalar tree_5_3_u00_r1_network.client[102] 	downloads[102] 	12058
scalar tree_5_3_u00_r1_network.client[102] 	avg_time[102] 	0.005491289076
scalar tree_5_3_u00_r1_network.client[103] 	hdistance[103] 	3.3557358053302
scalar tree_5_3_u00_r1_network.client[103] 	downloads[103] 	12082
scalar tree_5_3_u00_r1_network.client[103] 	avg_time[103] 	0.005562983208
scalar tree_5_3_u00_r1_network.client[104] 	hdistance[104] 	3.3663948894679
scalar tree_5_3_u00_r1_network.client[104] 	downloads[104] 	11897
scalar tree_5_3_u00_r1_network.client[104] 	avg_time[104] 	0.005578378125
scalar tree_5_3_u00_r1_network.client[105] 	hdistance[105] 	3.349817760106
scalar tree_5_3_u00_r1_network.client[105] 	downloads[105] 	12072
scalar tree_5_3_u00_r1_network.client[105] 	avg_time[105] 	0.005546054002
scalar tree_5_3_u00_r1_network.client[106] 	hdistance[106] 	3.3857935259541
scalar tree_5_3_u00_r1_network.client[106] 	downloads[106] 	12079
scalar tree_5_3_u00_r1_network.client[106] 	avg_time[106] 	0.005619957208
scalar tree_5_3_u00_r1_network.client[107] 	hdistance[107] 	3.3513694054776
scalar tree_5_3_u00_r1_network.client[107] 	downloads[107] 	11976
scalar tree_5_3_u00_r1_network.client[107] 	avg_time[107] 	0.005553103197
scalar tree_5_3_u00_r1_network.client[108] 	hdistance[108] 	3.3097974369574
scalar tree_5_3_u00_r1_network.client[108] 	downloads[108] 	12095
scalar tree_5_3_u00_r1_network.client[108] 	avg_time[108] 	0.005484450286
scalar tree_5_3_u00_r1_network.client[109] 	hdistance[109] 	3.3284541839411
scalar tree_5_3_u00_r1_network.client[109] 	downloads[109] 	11819
scalar tree_5_3_u00_r1_network.client[109] 	avg_time[109] 	0.005510904818
scalar tree_5_3_u00_r1_network.client[110] 	hdistance[110] 	3.3505703422053
scalar tree_5_3_u00_r1_network.client[110] 	downloads[110] 	11835
scalar tree_5_3_u00_r1_network.client[110] 	avg_time[110] 	0.005542336692
scalar tree_5_3_u00_r1_network.client[111] 	hdistance[111] 	3.3577593501439
scalar tree_5_3_u00_r1_network.client[111] 	downloads[111] 	11818
scalar tree_5_3_u00_r1_network.client[111] 	avg_time[111] 	0.005555251748
scalar tree_5_3_u00_r1_network.client[112] 	hdistance[112] 	3.3541579432208
scalar tree_5_3_u00_r1_network.client[112] 	downloads[112] 	11941
scalar tree_5_3_u00_r1_network.client[112] 	avg_time[112] 	0.005558284262
scalar tree_5_3_u00_r1_network.client[113] 	hdistance[113] 	3.3519399249061
scalar tree_5_3_u00_r1_network.client[113] 	downloads[113] 	11985
scalar tree_5_3_u00_r1_network.client[113] 	avg_time[113] 	0.005547598159
scalar tree_5_3_u00_r1_network.client[114] 	hdistance[114] 	3.3447872251484
scalar tree_5_3_u00_r1_network.client[114] 	downloads[114] 	11961
scalar tree_5_3_u00_r1_network.client[114] 	avg_time[114] 	0.005537817022
scalar tree_5_3_u00_r1_network.client[115] 	hdistance[115] 	3.329431985595
scalar tree_5_3_u00_r1_network.client[115] 	downloads[115] 	12218
scalar tree_5_3_u00_r1_network.client[115] 	avg_time[115] 	0.005519885655
scalar tree_5_3_u00_r1_network.client[116] 	hdistance[116] 	3.3581468851368
scalar tree_5_3_u00_r1_network.client[116] 	downloads[116] 	12023
scalar tree_5_3_u00_r1_network.client[116] 	avg_time[116] 	0.005567591042
scalar tree_5_3_u00_r1_network.client[117] 	hdistance[117] 	3.3200424871313
scalar tree_5_3_u00_r1_network.client[117] 	downloads[117] 	12239
scalar tree_5_3_u00_r1_network.client[117] 	avg_time[117] 	0.005497014642
scalar tree_5_3_u00_r1_network.client[118] 	hdistance[118] 	3.3367810292634
scalar tree_5_3_u00_r1_network.client[118] 	downloads[118] 	11892
scalar tree_5_3_u00_r1_network.client[118] 	avg_time[118] 	0.005533065172
scalar tree_5_3_u00_r1_network.client[119] 	hdistance[119] 	3.321589958159
scalar tree_5_3_u00_r1_network.client[119] 	downloads[119] 	11950
scalar tree_5_3_u00_r1_network.client[119] 	avg_time[119] 	0.005501700598
scalar tree_5_3_u00_r1_network.client[120] 	hdistance[120] 	3.3412977867203
scalar tree_5_3_u00_r1_network.client[120] 	downloads[120] 	11928
scalar tree_5_3_u00_r1_network.client[120] 	avg_time[120] 	0.005530345784
