version 2
run General-80-20160819-21:26:19-9589
attr a 0.9
attr cd fix0.01
attr configname General
attr cr lru
attr datetime 20160819-21:26:19
attr experiment General
attr fsize 1
attr inifile hw5115/scenario_A/SPR-FIX0.01.ini
attr iterationvars "$name=tree_4_3, $un=04, $rep=1, $cd=fix0.01, $cr=lru, $fsize=1, $a=0.9, $sl=spr, $ttl=1000, $variance=0.05"
attr iterationvars2 "$name=tree_4_3, $un=04, $rep=1, $cd=fix0.01, $cr=lru, $fsize=1, $a=0.9, $sl=spr, $ttl=1000, $variance=0.05, $repetition=0"
attr measurement "$name=tree_4_3, $un=04, $rep=1, $cd=fix0.01, $cr=lru, $fsize=1, $a=0.9, $sl=spr, $ttl=1000, $variance=0.05"
attr name tree_4_3
attr network networks.${name}_u${un}_r${rep}_network
attr processid 9589
attr rep 1
attr repetition 0
attr replication #0
attr resultdir results
attr runnumber 80
attr seedset 1
attr sl spr
attr ttl 1000
attr un 04
attr variance 0.05

scalar . 	a 	0.9
scalar . 	fsize 	1
scalar . 	rep 	1
scalar . 	ttl 	1000
scalar . 	un 	04
scalar . 	variance 	0.05
scalar tree_4_3_u04_r1_network.content_distribution 	repo-0 	0
scalar tree_4_3_u04_r1_network.content_distribution 	client-0 	13
scalar tree_4_3_u04_r1_network.content_distribution 	client-1 	14
scalar tree_4_3_u04_r1_network.content_distribution 	client-2 	15
scalar tree_4_3_u04_r1_network.content_distribution 	client-3 	16
scalar tree_4_3_u04_r1_network.content_distribution 	client-4 	17
scalar tree_4_3_u04_r1_network.content_distribution 	client-5 	18
scalar tree_4_3_u04_r1_network.content_distribution 	client-6 	19
scalar tree_4_3_u04_r1_network.content_distribution 	client-7 	20
scalar tree_4_3_u04_r1_network.content_distribution 	client-8 	21
scalar tree_4_3_u04_r1_network.content_distribution 	client-9 	22
scalar tree_4_3_u04_r1_network.content_distribution 	client-10 	23
scalar tree_4_3_u04_r1_network.content_distribution 	client-11 	24
scalar tree_4_3_u04_r1_network.content_distribution 	client-12 	25
scalar tree_4_3_u04_r1_network.content_distribution 	client-13 	26
scalar tree_4_3_u04_r1_network.content_distribution 	client-14 	27
scalar tree_4_3_u04_r1_network.content_distribution 	client-15 	28
scalar tree_4_3_u04_r1_network.content_distribution 	client-16 	29
scalar tree_4_3_u04_r1_network.content_distribution 	client-17 	30
scalar tree_4_3_u04_r1_network.content_distribution 	client-18 	31
scalar tree_4_3_u04_r1_network.content_distribution 	client-19 	32
scalar tree_4_3_u04_r1_network.content_distribution 	client-20 	33
scalar tree_4_3_u04_r1_network.content_distribution 	client-21 	34
scalar tree_4_3_u04_r1_network.content_distribution 	client-22 	35
scalar tree_4_3_u04_r1_network.content_distribution 	client-23 	36
scalar tree_4_3_u04_r1_network.content_distribution 	client-24 	37
scalar tree_4_3_u04_r1_network.content_distribution 	client-25 	38
scalar tree_4_3_u04_r1_network.content_distribution 	client-26 	39
scalar tree_4_3_u04_r1_network.content_distribution 	repo-0_card 	100000
scalar tree_4_3_u04_r1_network.content_distribution 	repo-0_price 	0
scalar tree_4_3_u04_r1_network.statistics 	stabilization_time 	2672.5
scalar tree_4_3_u04_r1_network.statistics 	p_hit 	0.1807248914333
scalar tree_4_3_u04_r1_network.statistics 	interests 	25607.2
scalar tree_4_3_u04_r1_network.statistics 	data 	17507.75
scalar tree_4_3_u04_r1_network.statistics 	hdistance 	2.8410478297396
scalar tree_4_3_u04_r1_network.statistics 	avg_time 	0.00432341894
scalar tree_4_3_u04_r1_network.statistics 	downloads 	323968
scalar tree_4_3_u04_r1_network.statistics 	total_cost 	0
scalar tree_4_3_u04_r1_network.statistics 	total_replicas 	100000
scalar tree_4_3_u04_r1_network.statistics 	inner_hit 	0.32071377419992
scalar tree_4_3_u04_r1_network.node[0].core_layer 	interests[0] 	224621
scalar tree_4_3_u04_r1_network.node[0].core_layer 	repo_load[0] 	220067
scalar tree_4_3_u04_r1_network.node[0].core_layer 	data[0] 	0
scalar tree_4_3_u04_r1_network.node[0].core_layer 	repo_int[0] 	220067
scalar tree_4_3_u04_r1_network.node[0].content_store 	p_hit[0] 	0.02027415068048
scalar tree_4_3_u04_r1_network.node[0].content_store 	hits[0] 	4554
scalar tree_4_3_u04_r1_network.node[0].content_store 	misses[0] 	220067
scalar tree_4_3_u04_r1_network.node[0].content_store 	decision_yes[0] 	2180
scalar tree_4_3_u04_r1_network.node[0].content_store 	decision_no[0] 	217887
scalar tree_4_3_u04_r1_network.node[0].content_store 	decision_ratio[0] 	0.0099060740592638
scalar tree_4_3_u04_r1_network.node[1].core_layer 	interests[1] 	76948
scalar tree_4_3_u04_r1_network.node[1].core_layer 	data[1] 	74783
scalar tree_4_3_u04_r1_network.node[1].content_store 	p_hit[1] 	0.028109892394864
scalar tree_4_3_u04_r1_network.node[1].content_store 	hits[1] 	2163
scalar tree_4_3_u04_r1_network.node[1].content_store 	misses[1] 	74785
scalar tree_4_3_u04_r1_network.node[1].content_store 	decision_yes[1] 	728
scalar tree_4_3_u04_r1_network.node[1].content_store 	decision_no[1] 	74055
scalar tree_4_3_u04_r1_network.node[1].content_store 	decision_ratio[1] 	0.0097348327828517
scalar tree_4_3_u04_r1_network.node[2].core_layer 	interests[2] 	77309
scalar tree_4_3_u04_r1_network.node[2].core_layer 	data[2] 	75168
scalar tree_4_3_u04_r1_network.node[2].content_store 	p_hit[2] 	0.027681123801886
scalar tree_4_3_u04_r1_network.node[2].content_store 	hits[2] 	2140
scalar tree_4_3_u04_r1_network.node[2].content_store 	misses[2] 	75169
scalar tree_4_3_u04_r1_network.node[2].content_store 	decision_yes[2] 	703
scalar tree_4_3_u04_r1_network.node[2].content_store 	decision_no[2] 	74465
scalar tree_4_3_u04_r1_network.node[2].content_store 	decision_ratio[2] 	0.0093523839931886
scalar tree_4_3_u04_r1_network.node[3].core_layer 	interests[3] 	76855
scalar tree_4_3_u04_r1_network.node[3].core_layer 	data[3] 	74670
scalar tree_4_3_u04_r1_network.node[3].content_store 	p_hit[3] 	0.028430160692213
scalar tree_4_3_u04_r1_network.node[3].content_store 	hits[3] 	2185
scalar tree_4_3_u04_r1_network.node[3].content_store 	misses[3] 	74670
scalar tree_4_3_u04_r1_network.node[3].content_store 	decision_yes[3] 	776
scalar tree_4_3_u04_r1_network.node[3].content_store 	decision_no[3] 	73894
scalar tree_4_3_u04_r1_network.node[3].content_store 	decision_ratio[3] 	0.010392393196732
scalar tree_4_3_u04_r1_network.node[4].core_layer 	interests[4] 	35993
scalar tree_4_3_u04_r1_network.node[4].core_layer 	data[4] 	34089
scalar tree_4_3_u04_r1_network.node[4].content_store 	p_hit[4] 	0.052843608479427
scalar tree_4_3_u04_r1_network.node[4].content_store 	hits[4] 	1902
scalar tree_4_3_u04_r1_network.node[4].content_store 	misses[4] 	34091
scalar tree_4_3_u04_r1_network.node[4].content_store 	decision_yes[4] 	358
scalar tree_4_3_u04_r1_network.node[4].content_store 	decision_no[4] 	33731
scalar tree_4_3_u04_r1_network.node[4].content_store 	decision_ratio[4] 	0.010501921440934
scalar tree_4_3_u04_r1_network.node[5].core_layer 	interests[5] 	27425
scalar tree_4_3_u04_r1_network.node[5].core_layer 	data[5] 	25758
scalar tree_4_3_u04_r1_network.node[5].content_store 	p_hit[5] 	0.060747493163172
scalar tree_4_3_u04_r1_network.node[5].content_store 	hits[5] 	1666
scalar tree_4_3_u04_r1_network.node[5].content_store 	misses[5] 	25759
scalar tree_4_3_u04_r1_network.node[5].content_store 	decision_yes[5] 	260
scalar tree_4_3_u04_r1_network.node[5].content_store 	decision_no[5] 	25498
scalar tree_4_3_u04_r1_network.node[5].content_store 	decision_ratio[5] 	0.010093951393742
scalar tree_4_3_u04_r1_network.node[6].core_layer 	interests[6] 	18016
scalar tree_4_3_u04_r1_network.node[6].core_layer 	data[6] 	17101
scalar tree_4_3_u04_r1_network.node[6].content_store 	p_hit[6] 	0.050732682060391
scalar tree_4_3_u04_r1_network.node[6].content_store 	hits[6] 	914
scalar tree_4_3_u04_r1_network.node[6].content_store 	misses[6] 	17102
scalar tree_4_3_u04_r1_network.node[6].content_store 	decision_yes[6] 	159
scalar tree_4_3_u04_r1_network.node[6].content_store 	decision_no[6] 	16942
scalar tree_4_3_u04_r1_network.node[6].content_store 	decision_ratio[6] 	0.0092977018887784
scalar tree_4_3_u04_r1_network.node[7].core_layer 	interests[7] 	45561
scalar tree_4_3_u04_r1_network.node[7].core_layer 	data[7] 	43100
scalar tree_4_3_u04_r1_network.node[7].content_store 	p_hit[7] 	0.053993547112662
scalar tree_4_3_u04_r1_network.node[7].content_store 	hits[7] 	2460
scalar tree_4_3_u04_r1_network.node[7].content_store 	misses[7] 	43101
scalar tree_4_3_u04_r1_network.node[7].content_store 	decision_yes[7] 	422
scalar tree_4_3_u04_r1_network.node[7].content_store 	decision_no[7] 	42678
scalar tree_4_3_u04_r1_network.node[7].content_store 	decision_ratio[7] 	0.0097911832946636
scalar tree_4_3_u04_r1_network.node[8].core_layer 	interests[8] 	18075
scalar tree_4_3_u04_r1_network.node[8].core_layer 	data[8] 	16962
scalar tree_4_3_u04_r1_network.node[8].content_store 	p_hit[8] 	0.061521438450899
scalar tree_4_3_u04_r1_network.node[8].content_store 	hits[8] 	1112
scalar tree_4_3_u04_r1_network.node[8].content_store 	misses[8] 	16963
scalar tree_4_3_u04_r1_network.node[8].content_store 	decision_yes[8] 	138
scalar tree_4_3_u04_r1_network.node[8].content_store 	decision_no[8] 	16824
scalar tree_4_3_u04_r1_network.node[8].content_store 	decision_ratio[8] 	0.0081358330385568
scalar tree_4_3_u04_r1_network.node[9].core_layer 	interests[9] 	18495
scalar tree_4_3_u04_r1_network.node[9].core_layer 	data[9] 	17247
scalar tree_4_3_u04_r1_network.node[9].content_store 	p_hit[9] 	0.067477696674777
scalar tree_4_3_u04_r1_network.node[9].content_store 	hits[9] 	1248
scalar tree_4_3_u04_r1_network.node[9].content_store 	misses[9] 	17247
scalar tree_4_3_u04_r1_network.node[9].content_store 	decision_yes[9] 	174
scalar tree_4_3_u04_r1_network.node[9].content_store 	decision_no[9] 	17073
scalar tree_4_3_u04_r1_network.node[9].content_store 	decision_ratio[9] 	0.010088711080188
scalar tree_4_3_u04_r1_network.node[10].core_layer 	interests[10] 	44584
scalar tree_4_3_u04_r1_network.node[10].core_layer 	data[10] 	42506
scalar tree_4_3_u04_r1_network.node[10].content_store 	p_hit[10] 	0.046608648842634
scalar tree_4_3_u04_r1_network.node[10].content_store 	hits[10] 	2078
scalar tree_4_3_u04_r1_network.node[10].content_store 	misses[10] 	42506
scalar tree_4_3_u04_r1_network.node[10].content_store 	decision_yes[10] 	431
scalar tree_4_3_u04_r1_network.node[10].content_store 	decision_no[10] 	42075
scalar tree_4_3_u04_r1_network.node[10].content_store 	decision_ratio[10] 	0.01013974497718
scalar tree_4_3_u04_r1_network.node[11].core_layer 	interests[11] 	18177
scalar tree_4_3_u04_r1_network.node[11].core_layer 	data[11] 	17169
scalar tree_4_3_u04_r1_network.node[11].content_store 	p_hit[11] 	0.055454695494306
scalar tree_4_3_u04_r1_network.node[11].content_store 	hits[11] 	1008
scalar tree_4_3_u04_r1_network.node[11].content_store 	misses[11] 	17169
scalar tree_4_3_u04_r1_network.node[11].content_store 	decision_yes[11] 	172
scalar tree_4_3_u04_r1_network.node[11].content_store 	decision_no[11] 	16997
scalar tree_4_3_u04_r1_network.node[11].content_store 	decision_ratio[11] 	0.010018055798241
scalar tree_4_3_u04_r1_network.node[12].core_layer 	interests[12] 	18252
scalar tree_4_3_u04_r1_network.node[12].core_layer 	data[12] 	17180
scalar tree_4_3_u04_r1_network.node[12].content_store 	p_hit[12] 	0.058678500986193
scalar tree_4_3_u04_r1_network.node[12].content_store 	hits[12] 	1071
scalar tree_4_3_u04_r1_network.node[12].content_store 	misses[12] 	17181
scalar tree_4_3_u04_r1_network.node[12].content_store 	decision_yes[12] 	155
scalar tree_4_3_u04_r1_network.node[12].content_store 	decision_no[12] 	17025
scalar tree_4_3_u04_r1_network.node[12].content_store 	decision_ratio[12] 	0.0090221187427241
scalar tree_4_3_u04_r1_network.node[13].core_layer 	interests[13] 	12016
scalar tree_4_3_u04_r1_network.node[13].core_layer 	data[13] 	9052
scalar tree_4_3_u04_r1_network.node[13].content_store 	p_hit[13] 	0.2465878828229
scalar tree_4_3_u04_r1_network.node[13].content_store 	hits[13] 	2963
scalar tree_4_3_u04_r1_network.node[13].content_store 	misses[13] 	9053
scalar tree_4_3_u04_r1_network.node[13].content_store 	decision_yes[13] 	97
scalar tree_4_3_u04_r1_network.node[13].content_store 	decision_no[13] 	8955
scalar tree_4_3_u04_r1_network.node[13].content_store 	decision_ratio[13] 	0.010715863897481
scalar tree_4_3_u04_r1_network.node[14].core_layer 	interests[14] 	11813
scalar tree_4_3_u04_r1_network.node[14].core_layer 	data[14] 	9005
scalar tree_4_3_u04_r1_network.node[14].content_store 	p_hit[14] 	0.23770422415982
scalar tree_4_3_u04_r1_network.node[14].content_store 	hits[14] 	2808
scalar tree_4_3_u04_r1_network.node[14].content_store 	misses[14] 	9005
scalar tree_4_3_u04_r1_network.node[14].content_store 	decision_yes[14] 	89
scalar tree_4_3_u04_r1_network.node[14].content_store 	decision_no[14] 	8916
scalar tree_4_3_u04_r1_network.node[14].content_store 	decision_ratio[14] 	0.0098833981121599
scalar tree_4_3_u04_r1_network.node[15].core_layer 	interests[15] 	12019
scalar tree_4_3_u04_r1_network.node[15].core_layer 	data[15] 	8996
scalar tree_4_3_u04_r1_network.node[15].content_store 	p_hit[15] 	0.25151842915384
scalar tree_4_3_u04_r1_network.node[15].content_store 	hits[15] 	3023
scalar tree_4_3_u04_r1_network.node[15].content_store 	misses[15] 	8996
scalar tree_4_3_u04_r1_network.node[15].content_store 	decision_yes[15] 	92
scalar tree_4_3_u04_r1_network.node[15].content_store 	decision_no[15] 	8904
scalar tree_4_3_u04_r1_network.node[15].content_store 	decision_ratio[15] 	0.010226767452201
scalar tree_4_3_u04_r1_network.node[16].core_layer 	interests[16] 	12027
scalar tree_4_3_u04_r1_network.node[16].core_layer 	data[16] 	8940
scalar tree_4_3_u04_r1_network.node[16].content_store 	p_hit[16] 	0.25667248690446
scalar tree_4_3_u04_r1_network.node[16].content_store 	hits[16] 	3087
scalar tree_4_3_u04_r1_network.node[16].content_store 	misses[16] 	8940
scalar tree_4_3_u04_r1_network.node[16].content_store 	decision_yes[16] 	76
scalar tree_4_3_u04_r1_network.node[16].content_store 	decision_no[16] 	8864
scalar tree_4_3_u04_r1_network.node[16].content_store 	decision_ratio[16] 	0.0085011185682327
scalar tree_4_3_u04_r1_network.node[17].core_layer 	interests[17] 	12047
scalar tree_4_3_u04_r1_network.node[17].core_layer 	data[17] 	9063
scalar tree_4_3_u04_r1_network.node[17].content_store 	p_hit[17] 	0.24769652195567
scalar tree_4_3_u04_r1_network.node[17].content_store 	hits[17] 	2984
scalar tree_4_3_u04_r1_network.node[17].content_store 	misses[17] 	9063
scalar tree_4_3_u04_r1_network.node[17].content_store 	decision_yes[17] 	108
scalar tree_4_3_u04_r1_network.node[17].content_store 	decision_no[17] 	8955
scalar tree_4_3_u04_r1_network.node[17].content_store 	decision_ratio[17] 	0.011916583912612
scalar tree_4_3_u04_r1_network.node[18].core_layer 	interests[18] 	12129
scalar tree_4_3_u04_r1_network.node[18].core_layer 	data[18] 	9200
scalar tree_4_3_u04_r1_network.node[18].content_store 	p_hit[18] 	0.24148734438124
scalar tree_4_3_u04_r1_network.node[18].content_store 	hits[18] 	2929
scalar tree_4_3_u04_r1_network.node[18].content_store 	misses[18] 	9200
scalar tree_4_3_u04_r1_network.node[18].content_store 	decision_yes[18] 	88
scalar tree_4_3_u04_r1_network.node[18].content_store 	decision_no[18] 	9112
scalar tree_4_3_u04_r1_network.node[18].content_store 	decision_ratio[18] 	0.0095652173913043
scalar tree_4_3_u04_r1_network.node[19].core_layer 	interests[19] 	11981
scalar tree_4_3_u04_r1_network.node[19].core_layer 	data[19] 	9000
scalar tree_4_3_u04_r1_network.node[19].content_store 	p_hit[19] 	0.24881061680995
scalar tree_4_3_u04_r1_network.node[19].content_store 	hits[19] 	2981
scalar tree_4_3_u04_r1_network.node[19].content_store 	misses[19] 	9000
scalar tree_4_3_u04_r1_network.node[19].content_store 	decision_yes[19] 	95
scalar tree_4_3_u04_r1_network.node[19].content_store 	decision_no[19] 	8905
scalar tree_4_3_u04_r1_network.node[19].content_store 	decision_ratio[19] 	0.010555555555556
scalar tree_4_3_u04_r1_network.node[20].core_layer 	interests[20] 	12202
scalar tree_4_3_u04_r1_network.node[20].core_layer 	data[20] 	9162
scalar tree_4_3_u04_r1_network.node[20].content_store 	p_hit[20] 	0.24913948533027
scalar tree_4_3_u04_r1_network.node[20].content_store 	hits[20] 	3040
scalar tree_4_3_u04_r1_network.node[20].content_store 	misses[20] 	9162
scalar tree_4_3_u04_r1_network.node[20].content_store 	decision_yes[20] 	89
scalar tree_4_3_u04_r1_network.node[20].content_store 	decision_no[20] 	9073
scalar tree_4_3_u04_r1_network.node[20].content_store 	decision_ratio[20] 	0.0097140362366296
scalar tree_4_3_u04_r1_network.node[21].core_layer 	interests[21] 	12177
scalar tree_4_3_u04_r1_network.node[21].core_layer 	data[21] 	9015
scalar tree_4_3_u04_r1_network.node[21].content_store 	p_hit[21] 	0.25942350332594
scalar tree_4_3_u04_r1_network.node[21].content_store 	hits[21] 	3159
scalar tree_4_3_u04_r1_network.node[21].content_store 	misses[21] 	9018
scalar tree_4_3_u04_r1_network.node[21].content_store 	decision_yes[21] 	111
scalar tree_4_3_u04_r1_network.node[21].content_store 	decision_no[21] 	8904
scalar tree_4_3_u04_r1_network.node[21].content_store 	decision_ratio[21] 	0.012312811980033
scalar tree_4_3_u04_r1_network.node[22].core_layer 	interests[22] 	11980
scalar tree_4_3_u04_r1_network.node[22].core_layer 	data[22] 	9135
scalar tree_4_3_u04_r1_network.node[22].content_store 	p_hit[22] 	0.23747913188648
scalar tree_4_3_u04_r1_network.node[22].content_store 	hits[22] 	2845
scalar tree_4_3_u04_r1_network.node[22].content_store 	misses[22] 	9135
scalar tree_4_3_u04_r1_network.node[22].content_store 	decision_yes[22] 	80
scalar tree_4_3_u04_r1_network.node[22].content_store 	decision_no[22] 	9055
scalar tree_4_3_u04_r1_network.node[22].content_store 	decision_ratio[22] 	0.0087575259989053
scalar tree_4_3_u04_r1_network.node[23].core_layer 	interests[23] 	11909
scalar tree_4_3_u04_r1_network.node[23].core_layer 	data[23] 	9103
scalar tree_4_3_u04_r1_network.node[23].content_store 	p_hit[23] 	0.23562011923755
scalar tree_4_3_u04_r1_network.node[23].content_store 	hits[23] 	2806
scalar tree_4_3_u04_r1_network.node[23].content_store 	misses[23] 	9103
scalar tree_4_3_u04_r1_network.node[23].content_store 	decision_yes[23] 	73
scalar tree_4_3_u04_r1_network.node[23].content_store 	decision_no[23] 	9030
scalar tree_4_3_u04_r1_network.node[23].content_store 	decision_ratio[23] 	0.0080193342854004
scalar tree_4_3_u04_r1_network.node[24].core_layer 	interests[24] 	11997
scalar tree_4_3_u04_r1_network.node[24].core_layer 	data[24] 	9178
scalar tree_4_3_u04_r1_network.node[24].content_store 	p_hit[24] 	0.2349754105193
scalar tree_4_3_u04_r1_network.node[24].content_store 	hits[24] 	2819
scalar tree_4_3_u04_r1_network.node[24].content_store 	misses[24] 	9178
scalar tree_4_3_u04_r1_network.node[24].content_store 	decision_yes[24] 	102
scalar tree_4_3_u04_r1_network.node[24].content_store 	decision_no[24] 	9076
scalar tree_4_3_u04_r1_network.node[24].content_store 	decision_ratio[24] 	0.011113532359991
scalar tree_4_3_u04_r1_network.node[25].core_layer 	interests[25] 	11974
scalar tree_4_3_u04_r1_network.node[25].core_layer 	data[25] 	9094
scalar tree_4_3_u04_r1_network.node[25].content_store 	p_hit[25] 	0.24052112911308
scalar tree_4_3_u04_r1_network.node[25].content_store 	hits[25] 	2880
scalar tree_4_3_u04_r1_network.node[25].content_store 	misses[25] 	9094
scalar tree_4_3_u04_r1_network.node[25].content_store 	decision_yes[25] 	100
scalar tree_4_3_u04_r1_network.node[25].content_store 	decision_no[25] 	8994
scalar tree_4_3_u04_r1_network.node[25].content_store 	decision_ratio[25] 	0.010996261271168
scalar tree_4_3_u04_r1_network.node[26].core_layer 	interests[26] 	12141
scalar tree_4_3_u04_r1_network.node[26].core_layer 	data[26] 	9221
scalar tree_4_3_u04_r1_network.node[26].content_store 	p_hit[26] 	0.24042500617742
scalar tree_4_3_u04_r1_network.node[26].content_store 	hits[26] 	2919
scalar tree_4_3_u04_r1_network.node[26].content_store 	misses[26] 	9222
scalar tree_4_3_u04_r1_network.node[26].content_store 	decision_yes[26] 	101
scalar tree_4_3_u04_r1_network.node[26].content_store 	decision_no[26] 	9120
scalar tree_4_3_u04_r1_network.node[26].content_store 	decision_ratio[26] 	0.010953258865633
scalar tree_4_3_u04_r1_network.node[27].core_layer 	interests[27] 	11877
scalar tree_4_3_u04_r1_network.node[27].core_layer 	data[27] 	8854
scalar tree_4_3_u04_r1_network.node[27].content_store 	p_hit[27] 	0.25460974993685
scalar tree_4_3_u04_r1_network.node[27].content_store 	hits[27] 	3024
scalar tree_4_3_u04_r1_network.node[27].content_store 	misses[27] 	8853
scalar tree_4_3_u04_r1_network.node[27].content_store 	decision_yes[27] 	91
scalar tree_4_3_u04_r1_network.node[27].content_store 	decision_no[27] 	8763
scalar tree_4_3_u04_r1_network.node[27].content_store 	decision_ratio[27] 	0.010277840524057
scalar tree_4_3_u04_r1_network.node[28].core_layer 	interests[28] 	12023
scalar tree_4_3_u04_r1_network.node[28].core_layer 	data[28] 	9051
scalar tree_4_3_u04_r1_network.node[28].content_store 	p_hit[28] 	0.24719288031273
scalar tree_4_3_u04_r1_network.node[28].content_store 	hits[28] 	2972
scalar tree_4_3_u04_r1_network.node[28].content_store 	misses[28] 	9051
scalar tree_4_3_u04_r1_network.node[28].content_store 	decision_yes[28] 	85
scalar tree_4_3_u04_r1_network.node[28].content_store 	decision_no[28] 	8966
scalar tree_4_3_u04_r1_network.node[28].content_store 	decision_ratio[28] 	0.0093912274886753
scalar tree_4_3_u04_r1_network.node[29].core_layer 	interests[29] 	12153
scalar tree_4_3_u04_r1_network.node[29].core_layer 	data[29] 	9360
scalar tree_4_3_u04_r1_network.node[29].content_store 	p_hit[29] 	0.22973751337118
scalar tree_4_3_u04_r1_network.node[29].content_store 	hits[29] 	2792
scalar tree_4_3_u04_r1_network.node[29].content_store 	misses[29] 	9361
scalar tree_4_3_u04_r1_network.node[29].content_store 	decision_yes[29] 	111
scalar tree_4_3_u04_r1_network.node[29].content_store 	decision_no[29] 	9249
scalar tree_4_3_u04_r1_network.node[29].content_store 	decision_ratio[29] 	0.011858974358974
scalar tree_4_3_u04_r1_network.node[30].core_layer 	interests[30] 	12029
scalar tree_4_3_u04_r1_network.node[30].core_layer 	data[30] 	9135
scalar tree_4_3_u04_r1_network.node[30].content_store 	p_hit[30] 	0.24058525230692
scalar tree_4_3_u04_r1_network.node[30].content_store 	hits[30] 	2894
scalar tree_4_3_u04_r1_network.node[30].content_store 	misses[30] 	9135
scalar tree_4_3_u04_r1_network.node[30].content_store 	decision_yes[30] 	95
scalar tree_4_3_u04_r1_network.node[30].content_store 	decision_no[30] 	9040
scalar tree_4_3_u04_r1_network.node[30].content_store 	decision_ratio[30] 	0.0103995621237
scalar tree_4_3_u04_r1_network.node[31].core_layer 	interests[31] 	11824
scalar tree_4_3_u04_r1_network.node[31].core_layer 	data[31] 	8825
scalar tree_4_3_u04_r1_network.node[31].content_store 	p_hit[31] 	0.25355209742896
scalar tree_4_3_u04_r1_network.node[31].content_store 	hits[31] 	2998
scalar tree_4_3_u04_r1_network.node[31].content_store 	misses[31] 	8826
scalar tree_4_3_u04_r1_network.node[31].content_store 	decision_yes[31] 	88
scalar tree_4_3_u04_r1_network.node[31].content_store 	decision_no[31] 	8737
scalar tree_4_3_u04_r1_network.node[31].content_store 	decision_ratio[31] 	0.009971671388102
scalar tree_4_3_u04_r1_network.node[32].core_layer 	interests[32] 	11910
scalar tree_4_3_u04_r1_network.node[32].core_layer 	data[32] 	8961
scalar tree_4_3_u04_r1_network.node[32].content_store 	p_hit[32] 	0.24760705289673
scalar tree_4_3_u04_r1_network.node[32].content_store 	hits[32] 	2949
scalar tree_4_3_u04_r1_network.node[32].content_store 	misses[32] 	8961
scalar tree_4_3_u04_r1_network.node[32].content_store 	decision_yes[32] 	86
scalar tree_4_3_u04_r1_network.node[32].content_store 	decision_no[32] 	8875
scalar tree_4_3_u04_r1_network.node[32].content_store 	decision_ratio[32] 	0.0095971431759848
scalar tree_4_3_u04_r1_network.node[33].core_layer 	interests[33] 	11985
scalar tree_4_3_u04_r1_network.node[33].core_layer 	data[33] 	8966
scalar tree_4_3_u04_r1_network.node[33].content_store 	p_hit[33] 	0.25181476846058
scalar tree_4_3_u04_r1_network.node[33].content_store 	hits[33] 	3018
scalar tree_4_3_u04_r1_network.node[33].content_store 	misses[33] 	8967
scalar tree_4_3_u04_r1_network.node[33].content_store 	decision_yes[33] 	66
scalar tree_4_3_u04_r1_network.node[33].content_store 	decision_no[33] 	8900
scalar tree_4_3_u04_r1_network.node[33].content_store 	decision_ratio[33] 	0.0073611420923489
scalar tree_4_3_u04_r1_network.node[34].core_layer 	interests[34] 	11989
scalar tree_4_3_u04_r1_network.node[34].core_layer 	data[34] 	9002
scalar tree_4_3_u04_r1_network.node[34].content_store 	p_hit[34] 	0.24906163983652
scalar tree_4_3_u04_r1_network.node[34].content_store 	hits[34] 	2986
scalar tree_4_3_u04_r1_network.node[34].content_store 	misses[34] 	9003
scalar tree_4_3_u04_r1_network.node[34].content_store 	decision_yes[34] 	86
scalar tree_4_3_u04_r1_network.node[34].content_store 	decision_no[34] 	8916
scalar tree_4_3_u04_r1_network.node[34].content_store 	decision_ratio[34] 	0.0095534325705399
scalar tree_4_3_u04_r1_network.node[35].core_layer 	interests[35] 	11940
scalar tree_4_3_u04_r1_network.node[35].core_layer 	data[35] 	9001
scalar tree_4_3_u04_r1_network.node[35].content_store 	p_hit[35] 	0.24606365159129
scalar tree_4_3_u04_r1_network.node[35].content_store 	hits[35] 	2938
scalar tree_4_3_u04_r1_network.node[35].content_store 	misses[35] 	9002
scalar tree_4_3_u04_r1_network.node[35].content_store 	decision_yes[35] 	73
scalar tree_4_3_u04_r1_network.node[35].content_store 	decision_no[35] 	8928
scalar tree_4_3_u04_r1_network.node[35].content_store 	decision_ratio[35] 	0.0081102099766693
scalar tree_4_3_u04_r1_network.node[36].core_layer 	interests[36] 	12133
scalar tree_4_3_u04_r1_network.node[36].core_layer 	data[36] 	9176
scalar tree_4_3_u04_r1_network.node[36].content_store 	p_hit[36] 	0.24371548668919
scalar tree_4_3_u04_r1_network.node[36].content_store 	hits[36] 	2957
scalar tree_4_3_u04_r1_network.node[36].content_store 	misses[36] 	9176
scalar tree_4_3_u04_r1_network.node[36].content_store 	decision_yes[36] 	100
scalar tree_4_3_u04_r1_network.node[36].content_store 	decision_no[36] 	9076
scalar tree_4_3_u04_r1_network.node[36].content_store 	decision_ratio[36] 	0.010897994768963
scalar tree_4_3_u04_r1_network.node[37].core_layer 	interests[37] 	11856
scalar tree_4_3_u04_r1_network.node[37].core_layer 	data[37] 	8830
scalar tree_4_3_u04_r1_network.node[37].content_store 	p_hit[37] 	0.2552294197031
scalar tree_4_3_u04_r1_network.node[37].content_store 	hits[37] 	3026
scalar tree_4_3_u04_r1_network.node[37].content_store 	misses[37] 	8830
scalar tree_4_3_u04_r1_network.node[37].content_store 	decision_yes[37] 	89
scalar tree_4_3_u04_r1_network.node[37].content_store 	decision_no[37] 	8741
scalar tree_4_3_u04_r1_network.node[37].content_store 	decision_ratio[37] 	0.010079275198188
scalar tree_4_3_u04_r1_network.node[38].core_layer 	interests[38] 	11891
scalar tree_4_3_u04_r1_network.node[38].core_layer 	data[38] 	9026
scalar tree_4_3_u04_r1_network.node[38].content_store 	p_hit[38] 	0.24093852493482
scalar tree_4_3_u04_r1_network.node[38].content_store 	hits[38] 	2865
scalar tree_4_3_u04_r1_network.node[38].content_store 	misses[38] 	9026
scalar tree_4_3_u04_r1_network.node[38].content_store 	decision_yes[38] 	67
scalar tree_4_3_u04_r1_network.node[38].content_store 	decision_no[38] 	8959
scalar tree_4_3_u04_r1_network.node[38].content_store 	decision_ratio[38] 	0.0074230002215821
scalar tree_4_3_u04_r1_network.node[39].core_layer 	interests[39] 	11955
scalar tree_4_3_u04_r1_network.node[39].core_layer 	data[39] 	9226
scalar tree_4_3_u04_r1_network.node[39].content_store 	p_hit[39] 	0.22827268925136
scalar tree_4_3_u04_r1_network.node[39].content_store 	hits[39] 	2729
scalar tree_4_3_u04_r1_network.node[39].content_store 	misses[39] 	9226
scalar tree_4_3_u04_r1_network.node[39].content_store 	decision_yes[39] 	103
scalar tree_4_3_u04_r1_network.node[39].content_store 	decision_no[39] 	9123
scalar tree_4_3_u04_r1_network.node[39].content_store 	decision_ratio[39] 	0.011164101452417
scalar tree_4_3_u04_r1_network.client[13] 	hdistance[13] 	2.8316271327507
scalar tree_4_3_u04_r1_network.client[13] 	downloads[13] 	12015
scalar tree_4_3_u04_r1_network.client[13] 	avg_time[13] 	0.004309216668
scalar tree_4_3_u04_r1_network.client[14] 	hdistance[14] 	2.8742910353001
scalar tree_4_3_u04_r1_network.client[14] 	downloads[14] 	11813
scalar tree_4_3_u04_r1_network.client[14] 	avg_time[14] 	0.004373314564
scalar tree_4_3_u04_r1_network.client[15] 	hdistance[15] 	2.8106331641568
scalar tree_4_3_u04_r1_network.client[15] 	downloads[15] 	12019
scalar tree_4_3_u04_r1_network.client[15] 	avg_time[15] 	0.004281551217
scalar tree_4_3_u04_r1_network.client[16] 	hdistance[16] 	2.8102602477758
scalar tree_4_3_u04_r1_network.client[16] 	downloads[16] 	12027
scalar tree_4_3_u04_r1_network.client[16] 	avg_time[16] 	0.004276324565
scalar tree_4_3_u04_r1_network.client[17] 	hdistance[17] 	2.8270108740765
scalar tree_4_3_u04_r1_network.client[17] 	downloads[17] 	12047
scalar tree_4_3_u04_r1_network.client[17] 	avg_time[17] 	0.004300738249
scalar tree_4_3_u04_r1_network.client[18] 	hdistance[18] 	2.8271910297634
scalar tree_4_3_u04_r1_network.client[18] 	downloads[18] 	12129
scalar tree_4_3_u04_r1_network.client[18] 	avg_time[18] 	0.004305875415
scalar tree_4_3_u04_r1_network.client[19] 	hdistance[19] 	2.8253067356648
scalar tree_4_3_u04_r1_network.client[19] 	downloads[19] 	11981
scalar tree_4_3_u04_r1_network.client[19] 	avg_time[19] 	0.004299920495
scalar tree_4_3_u04_r1_network.client[20] 	hdistance[20] 	2.8256843140469
scalar tree_4_3_u04_r1_network.client[20] 	downloads[20] 	12202
scalar tree_4_3_u04_r1_network.client[20] 	avg_time[20] 	0.004300111703
scalar tree_4_3_u04_r1_network.client[21] 	hdistance[21] 	2.8098406439954
scalar tree_4_3_u04_r1_network.client[21] 	downloads[21] 	12174
scalar tree_4_3_u04_r1_network.client[21] 	avg_time[21] 	0.004269862173
scalar tree_4_3_u04_r1_network.client[22] 	hdistance[22] 	2.8645242070117
scalar tree_4_3_u04_r1_network.client[22] 	downloads[22] 	11980
scalar tree_4_3_u04_r1_network.client[22] 	avg_time[22] 	0.004365940233
scalar tree_4_3_u04_r1_network.client[23] 	hdistance[23] 	2.8842052229406
scalar tree_4_3_u04_r1_network.client[23] 	downloads[23] 	11909
scalar tree_4_3_u04_r1_network.client[23] 	avg_time[23] 	0.0043902336
scalar tree_4_3_u04_r1_network.client[24] 	hdistance[24] 	2.8674668667167
scalar tree_4_3_u04_r1_network.client[24] 	downloads[24] 	11997
scalar tree_4_3_u04_r1_network.client[24] 	avg_time[24] 	0.004367922336
scalar tree_4_3_u04_r1_network.client[25] 	hdistance[25] 	2.8435777517956
scalar tree_4_3_u04_r1_network.client[25] 	downloads[25] 	11974
scalar tree_4_3_u04_r1_network.client[25] 	avg_time[25] 	0.004334532828
scalar tree_4_3_u04_r1_network.client[26] 	hdistance[26] 	2.8533772652389
scalar tree_4_3_u04_r1_network.client[26] 	downloads[26] 	12140
scalar tree_4_3_u04_r1_network.client[26] 	avg_time[26] 	0.00433920616
scalar tree_4_3_u04_r1_network.client[27] 	hdistance[27] 	2.7990402424651
scalar tree_4_3_u04_r1_network.client[27] 	downloads[27] 	11878
scalar tree_4_3_u04_r1_network.client[27] 	avg_time[27] 	0.004255258855
scalar tree_4_3_u04_r1_network.client[28] 	hdistance[28] 	2.8487898195126
scalar tree_4_3_u04_r1_network.client[28] 	downloads[28] 	12023
scalar tree_4_3_u04_r1_network.client[28] 	avg_time[28] 	0.004329698408
scalar tree_4_3_u04_r1_network.client[29] 	hdistance[29] 	2.8680875576037
scalar tree_4_3_u04_r1_network.client[29] 	downloads[29] 	12152
scalar tree_4_3_u04_r1_network.client[29] 	avg_time[29] 	0.004368047867
scalar tree_4_3_u04_r1_network.client[30] 	hdistance[30] 	2.8369773048466
scalar tree_4_3_u04_r1_network.client[30] 	downloads[30] 	12029
scalar tree_4_3_u04_r1_network.client[30] 	avg_time[30] 	0.004320721912
scalar tree_4_3_u04_r1_network.client[31] 	hdistance[31] 	2.8104541994418
scalar tree_4_3_u04_r1_network.client[31] 	downloads[31] 	11823
scalar tree_4_3_u04_r1_network.client[31] 	avg_time[31] 	0.004275602694
scalar tree_4_3_u04_r1_network.client[32] 	hdistance[32] 	2.8300587741394
scalar tree_4_3_u04_r1_network.client[32] 	downloads[32] 	11910
scalar tree_4_3_u04_r1_network.client[32] 	avg_time[32] 	0.004307805591
scalar tree_4_3_u04_r1_network.client[33] 	hdistance[33] 	2.8523865153538
scalar tree_4_3_u04_r1_network.client[33] 	downloads[33] 	11984
scalar tree_4_3_u04_r1_network.client[33] 	avg_time[33] 	0.004334943573
scalar tree_4_3_u04_r1_network.client[34] 	hdistance[34] 	2.8578578578579
scalar tree_4_3_u04_r1_network.client[34] 	downloads[34] 	11988
scalar tree_4_3_u04_r1_network.client[34] 	avg_time[34] 	0.004343948484
scalar tree_4_3_u04_r1_network.client[35] 	hdistance[35] 	2.842616634559
scalar tree_4_3_u04_r1_network.client[35] 	downloads[35] 	11939
scalar tree_4_3_u04_r1_network.client[35] 	avg_time[35] 	0.004322115584
scalar tree_4_3_u04_r1_network.client[36] 	hdistance[36] 	2.8418363141845
scalar tree_4_3_u04_r1_network.client[36] 	downloads[36] 	12133
scalar tree_4_3_u04_r1_network.client[36] 	avg_time[36] 	0.004325225662
scalar tree_4_3_u04_r1_network.client[37] 	hdistance[37] 	2.8254892037787
scalar tree_4_3_u04_r1_network.client[37] 	downloads[37] 	11856
scalar tree_4_3_u04_r1_network.client[37] 	avg_time[37] 	0.004294868816
scalar tree_4_3_u04_r1_network.client[38] 	hdistance[38] 	2.8612395929695
scalar tree_4_3_u04_r1_network.client[38] 	downloads[38] 	11891
scalar tree_4_3_u04_r1_network.client[38] 	avg_time[38] 	0.004356223443
scalar tree_4_3_u04_r1_network.client[39] 	hdistance[39] 	2.878460895023
scalar tree_4_3_u04_r1_network.client[39] 	downloads[39] 	11955
scalar tree_4_3_u04_r1_network.client[39] 	avg_time[39] 	0.004383100311
