version 2
run General-95-20160819-21:58:36-9589
attr a 0.9
attr cd fix0.01
attr configname General
attr cr lru
attr datetime 20160819-21:58:36
attr experiment General
attr fsize 1
attr inifile hw5115/scenario_A/SPR-FIX0.01.ini
attr iterationvars "$name=tree_4_3, $un=04, $rep=16, $cd=fix0.01, $cr=lru, $fsize=1, $a=0.9, $sl=spr, $ttl=1000, $variance=0.05"
attr iterationvars2 "$name=tree_4_3, $un=04, $rep=16, $cd=fix0.01, $cr=lru, $fsize=1, $a=0.9, $sl=spr, $ttl=1000, $variance=0.05, $repetition=0"
attr measurement "$name=tree_4_3, $un=04, $rep=16, $cd=fix0.01, $cr=lru, $fsize=1, $a=0.9, $sl=spr, $ttl=1000, $variance=0.05"
attr name tree_4_3
attr network networks.${name}_u${un}_r${rep}_network
attr processid 9589
attr rep 16
attr repetition 0
attr replication #0
attr resultdir results
attr runnumber 95
attr seedset 16
attr sl spr
attr ttl 1000
attr un 04
attr variance 0.05

scalar . 	a 	0.9
scalar . 	fsize 	1
scalar . 	rep 	16
scalar . 	ttl 	1000
scalar . 	un 	04
scalar . 	variance 	0.05
scalar tree_4_3_u04_r16_network.content_distribution 	repo-0 	0
scalar tree_4_3_u04_r16_network.content_distribution 	client-0 	13
scalar tree_4_3_u04_r16_network.content_distribution 	client-1 	14
scalar tree_4_3_u04_r16_network.content_distribution 	client-2 	15
scalar tree_4_3_u04_r16_network.content_distribution 	client-3 	16
scalar tree_4_3_u04_r16_network.content_distribution 	client-4 	17
scalar tree_4_3_u04_r16_network.content_distribution 	client-5 	18
scalar tree_4_3_u04_r16_network.content_distribution 	client-6 	19
scalar tree_4_3_u04_r16_network.content_distribution 	client-7 	20
scalar tree_4_3_u04_r16_network.content_distribution 	client-8 	21
scalar tree_4_3_u04_r16_network.content_distribution 	client-9 	22
scalar tree_4_3_u04_r16_network.content_distribution 	client-10 	23
scalar tree_4_3_u04_r16_network.content_distribution 	client-11 	24
scalar tree_4_3_u04_r16_network.content_distribution 	client-12 	25
scalar tree_4_3_u04_r16_network.content_distribution 	client-13 	26
scalar tree_4_3_u04_r16_network.content_distribution 	client-14 	27
scalar tree_4_3_u04_r16_network.content_distribution 	client-15 	28
scalar tree_4_3_u04_r16_network.content_distribution 	client-16 	29
scalar tree_4_3_u04_r16_network.content_distribution 	client-17 	30
scalar tree_4_3_u04_r16_network.content_distribution 	client-18 	31
scalar tree_4_3_u04_r16_network.content_distribution 	client-19 	32
scalar tree_4_3_u04_r16_network.content_distribution 	client-20 	33
scalar tree_4_3_u04_r16_network.content_distribution 	client-21 	34
scalar tree_4_3_u04_r16_network.content_distribution 	client-22 	35
scalar tree_4_3_u04_r16_network.content_distribution 	client-23 	36
scalar tree_4_3_u04_r16_network.content_distribution 	client-24 	37
scalar tree_4_3_u04_r16_network.content_distribution 	client-25 	38
scalar tree_4_3_u04_r16_network.content_distribution 	client-26 	39
scalar tree_4_3_u04_r16_network.content_distribution 	repo-0_card 	100000
scalar tree_4_3_u04_r16_network.content_distribution 	repo-0_price 	0
scalar tree_4_3_u04_r16_network.statistics 	stabilization_time 	2560.2
scalar tree_4_3_u04_r16_network.statistics 	p_hit 	0.17773517821622
scalar tree_4_3_u04_r16_network.statistics 	interests 	25759.675
scalar tree_4_3_u04_r16_network.statistics 	data 	17641.375
scalar tree_4_3_u04_r16_network.statistics 	hdistance 	2.8549193414886
scalar tree_4_3_u04_r16_network.statistics 	avg_time 	0.004346027419
scalar tree_4_3_u04_r16_network.statistics 	downloads 	324733
scalar tree_4_3_u04_r16_network.statistics 	total_cost 	0
scalar tree_4_3_u04_r16_network.statistics 	total_replicas 	100000
scalar tree_4_3_u04_r16_network.statistics 	inner_hit 	0.31811980919709
scalar tree_4_3_u04_r16_network.node[0].core_layer 	interests[0] 	226226
scalar tree_4_3_u04_r16_network.node[0].core_layer 	repo_load[0] 	221429
scalar tree_4_3_u04_r16_network.node[0].core_layer 	data[0] 	0
scalar tree_4_3_u04_r16_network.node[0].core_layer 	repo_int[0] 	221429
scalar tree_4_3_u04_r16_network.node[0].content_store 	p_hit[0] 	0.021204459257557
scalar tree_4_3_u04_r16_network.node[0].content_store 	hits[0] 	4797
scalar tree_4_3_u04_r16_network.node[0].content_store 	misses[0] 	221429
scalar tree_4_3_u04_r16_network.node[0].content_store 	decision_yes[0] 	2261
scalar tree_4_3_u04_r16_network.node[0].content_store 	decision_no[0] 	219168
scalar tree_4_3_u04_r16_network.node[0].content_store 	decision_ratio[0] 	0.01021094797881
scalar tree_4_3_u04_r16_network.node[1].core_layer 	interests[1] 	112273
scalar tree_4_3_u04_r16_network.node[1].core_layer 	data[1] 	109003
scalar tree_4_3_u04_r16_network.node[1].content_store 	p_hit[1] 	0.029080901018054
scalar tree_4_3_u04_r16_network.node[1].content_store 	hits[1] 	3265
scalar tree_4_3_u04_r16_network.node[1].content_store 	misses[1] 	109008
scalar tree_4_3_u04_r16_network.node[1].content_store 	decision_yes[1] 	1089
scalar tree_4_3_u04_r16_network.node[1].content_store 	decision_no[1] 	107914
scalar tree_4_3_u04_r16_network.node[1].content_store 	decision_ratio[1] 	0.0099905507187876
scalar tree_4_3_u04_r16_network.node[2].core_layer 	interests[2] 	77326
scalar tree_4_3_u04_r16_network.node[2].core_layer 	data[2] 	75253
scalar tree_4_3_u04_r16_network.node[2].content_store 	p_hit[2] 	0.026795644414557
scalar tree_4_3_u04_r16_network.node[2].content_store 	hits[2] 	2072
scalar tree_4_3_u04_r16_network.node[2].content_store 	misses[2] 	75254
scalar tree_4_3_u04_r16_network.node[2].content_store 	decision_yes[2] 	761
scalar tree_4_3_u04_r16_network.node[2].content_store 	decision_no[2] 	74492
scalar tree_4_3_u04_r16_network.node[2].content_store 	decision_ratio[2] 	0.010112553652346
scalar tree_4_3_u04_r16_network.node[3].core_layer 	interests[3] 	43221
scalar tree_4_3_u04_r16_network.node[3].core_layer 	data[3] 	41971
scalar tree_4_3_u04_r16_network.node[3].content_store 	p_hit[3] 	0.02896740010643
scalar tree_4_3_u04_r16_network.node[3].content_store 	hits[3] 	1252
scalar tree_4_3_u04_r16_network.node[3].content_store 	misses[3] 	41969
scalar tree_4_3_u04_r16_network.node[3].content_store 	decision_yes[3] 	400
scalar tree_4_3_u04_r16_network.node[3].content_store 	decision_no[3] 	41571
scalar tree_4_3_u04_r16_network.node[3].content_store 	decision_ratio[3] 	0.009530390031212
scalar tree_4_3_u04_r16_network.node[4].core_layer 	interests[4] 	36512
scalar tree_4_3_u04_r16_network.node[4].core_layer 	data[4] 	34534
scalar tree_4_3_u04_r16_network.node[4].content_store 	p_hit[4] 	0.054119193689746
scalar tree_4_3_u04_r16_network.node[4].content_store 	hits[4] 	1976
scalar tree_4_3_u04_r16_network.node[4].content_store 	misses[4] 	34536
scalar tree_4_3_u04_r16_network.node[4].content_store 	decision_yes[4] 	344
scalar tree_4_3_u04_r16_network.node[4].content_store 	decision_no[4] 	34190
scalar tree_4_3_u04_r16_network.node[4].content_store 	decision_ratio[4] 	0.0099611976602768
scalar tree_4_3_u04_r16_network.node[5].core_layer 	interests[5] 	18251
scalar tree_4_3_u04_r16_network.node[5].core_layer 	data[5] 	17283
scalar tree_4_3_u04_r16_network.node[5].content_store 	p_hit[5] 	0.053038189688236
scalar tree_4_3_u04_r16_network.node[5].content_store 	hits[5] 	968
scalar tree_4_3_u04_r16_network.node[5].content_store 	misses[5] 	17283
scalar tree_4_3_u04_r16_network.node[5].content_store 	decision_yes[5] 	183
scalar tree_4_3_u04_r16_network.node[5].content_store 	decision_no[5] 	17100
scalar tree_4_3_u04_r16_network.node[5].content_store 	decision_ratio[5] 	0.01058843950703
scalar tree_4_3_u04_r16_network.node[6].core_layer 	interests[6] 	27573
scalar tree_4_3_u04_r16_network.node[6].core_layer 	data[6] 	25948
scalar tree_4_3_u04_r16_network.node[6].content_store 	p_hit[6] 	0.058898197512059
scalar tree_4_3_u04_r16_network.node[6].content_store 	hits[6] 	1624
scalar tree_4_3_u04_r16_network.node[6].content_store 	misses[6] 	25949
scalar tree_4_3_u04_r16_network.node[6].content_store 	decision_yes[6] 	241
scalar tree_4_3_u04_r16_network.node[6].content_store 	decision_no[6] 	25707
scalar tree_4_3_u04_r16_network.node[6].content_store 	decision_ratio[6] 	0.0092878063819948
scalar tree_4_3_u04_r16_network.node[7].core_layer 	interests[7] 	36418
scalar tree_4_3_u04_r16_network.node[7].core_layer 	data[7] 	34507
scalar tree_4_3_u04_r16_network.node[7].content_store 	p_hit[7] 	0.052391674446702
scalar tree_4_3_u04_r16_network.node[7].content_store 	hits[7] 	1908
scalar tree_4_3_u04_r16_network.node[7].content_store 	misses[7] 	34510
scalar tree_4_3_u04_r16_network.node[7].content_store 	decision_yes[7] 	355
scalar tree_4_3_u04_r16_network.node[7].content_store 	decision_no[7] 	34152
scalar tree_4_3_u04_r16_network.node[7].content_store 	decision_ratio[7] 	0.010287767699307
scalar tree_4_3_u04_r16_network.node[8].core_layer 	interests[8] 	27187
scalar tree_4_3_u04_r16_network.node[8].core_layer 	data[8] 	25414
scalar tree_4_3_u04_r16_network.node[8].content_store 	p_hit[8] 	0.065251774745283
scalar tree_4_3_u04_r16_network.node[8].content_store 	hits[8] 	1774
scalar tree_4_3_u04_r16_network.node[8].content_store 	misses[8] 	25413
scalar tree_4_3_u04_r16_network.node[8].content_store 	decision_yes[8] 	269
scalar tree_4_3_u04_r16_network.node[8].content_store 	decision_no[8] 	25145
scalar tree_4_3_u04_r16_network.node[8].content_store 	decision_ratio[8] 	0.010584717085071
scalar tree_4_3_u04_r16_network.node[9].core_layer 	interests[9] 	18232
scalar tree_4_3_u04_r16_network.node[9].core_layer 	data[9] 	17119
scalar tree_4_3_u04_r16_network.node[9].content_store 	p_hit[9] 	0.061046511627907
scalar tree_4_3_u04_r16_network.node[9].content_store 	hits[9] 	1113
scalar tree_4_3_u04_r16_network.node[9].content_store 	misses[9] 	17119
scalar tree_4_3_u04_r16_network.node[9].content_store 	decision_yes[9] 	190
scalar tree_4_3_u04_r16_network.node[9].content_store 	decision_no[9] 	16929
scalar tree_4_3_u04_r16_network.node[9].content_store 	decision_ratio[9] 	0.011098779134295
scalar tree_4_3_u04_r16_network.node[10].core_layer 	interests[10] 	27390
scalar tree_4_3_u04_r16_network.node[10].core_layer 	data[10] 	25812
scalar tree_4_3_u04_r16_network.node[10].content_store 	p_hit[10] 	0.057685286600949
scalar tree_4_3_u04_r16_network.node[10].content_store 	hits[10] 	1580
scalar tree_4_3_u04_r16_network.node[10].content_store 	misses[10] 	25810
scalar tree_4_3_u04_r16_network.node[10].content_store 	decision_yes[10] 	261
scalar tree_4_3_u04_r16_network.node[10].content_store 	decision_no[10] 	25551
scalar tree_4_3_u04_r16_network.node[10].content_store 	decision_ratio[10] 	0.010111576011158
scalar tree_4_3_u04_r16_network.node[11].core_layer 	interests[11] 	36616
scalar tree_4_3_u04_r16_network.node[11].core_layer 	data[11] 	34793
scalar tree_4_3_u04_r16_network.node[11].content_store 	p_hit[11] 	0.049786978370111
scalar tree_4_3_u04_r16_network.node[11].content_store 	hits[11] 	1823
scalar tree_4_3_u04_r16_network.node[11].content_store 	misses[11] 	34793
scalar tree_4_3_u04_r16_network.node[11].content_store 	decision_yes[11] 	372
scalar tree_4_3_u04_r16_network.node[11].content_store 	decision_no[11] 	34421
scalar tree_4_3_u04_r16_network.node[11].content_store 	decision_ratio[11] 	0.01069180582301
scalar tree_4_3_u04_r16_network.node[12].core_layer 	interests[12] 	18427
scalar tree_4_3_u04_r16_network.node[12].core_layer 	data[12] 	17411
scalar tree_4_3_u04_r16_network.node[12].content_store 	p_hit[12] 	0.055136484506431
scalar tree_4_3_u04_r16_network.node[12].content_store 	hits[12] 	1016
scalar tree_4_3_u04_r16_network.node[12].content_store 	misses[12] 	17411
scalar tree_4_3_u04_r16_network.node[12].content_store 	decision_yes[12] 	164
scalar tree_4_3_u04_r16_network.node[12].content_store 	decision_no[12] 	17247
scalar tree_4_3_u04_r16_network.node[12].content_store 	decision_ratio[12] 	0.0094193326058239
scalar tree_4_3_u04_r16_network.node[13].core_layer 	interests[13] 	11806
scalar tree_4_3_u04_r16_network.node[13].core_layer 	data[13] 	8987
scalar tree_4_3_u04_r16_network.node[13].content_store 	p_hit[13] 	0.2387768931052
scalar tree_4_3_u04_r16_network.node[13].content_store 	hits[13] 	2819
scalar tree_4_3_u04_r16_network.node[13].content_store 	misses[13] 	8987
scalar tree_4_3_u04_r16_network.node[13].content_store 	decision_yes[13] 	95
scalar tree_4_3_u04_r16_network.node[13].content_store 	decision_no[13] 	8892
scalar tree_4_3_u04_r16_network.node[13].content_store 	decision_ratio[13] 	0.010570824524313
scalar tree_4_3_u04_r16_network.node[14].core_layer 	interests[14] 	12095
scalar tree_4_3_u04_r16_network.node[14].core_layer 	data[14] 	9136
scalar tree_4_3_u04_r16_network.node[14].content_store 	p_hit[14] 	0.2446465481604
scalar tree_4_3_u04_r16_network.node[14].content_store 	hits[14] 	2959
scalar tree_4_3_u04_r16_network.node[14].content_store 	misses[14] 	9136
scalar tree_4_3_u04_r16_network.node[14].content_store 	decision_yes[14] 	88
scalar tree_4_3_u04_r16_network.node[14].content_store 	decision_no[14] 	9048
scalar tree_4_3_u04_r16_network.node[14].content_store 	decision_ratio[14] 	0.0096322241681261
scalar tree_4_3_u04_r16_network.node[15].core_layer 	interests[15] 	12125
scalar tree_4_3_u04_r16_network.node[15].core_layer 	data[15] 	9194
scalar tree_4_3_u04_r16_network.node[15].content_store 	p_hit[15] 	0.24173195876289
scalar tree_4_3_u04_r16_network.node[15].content_store 	hits[15] 	2931
scalar tree_4_3_u04_r16_network.node[15].content_store 	misses[15] 	9194
scalar tree_4_3_u04_r16_network.node[15].content_store 	decision_yes[15] 	84
scalar tree_4_3_u04_r16_network.node[15].content_store 	decision_no[15] 	9110
scalar tree_4_3_u04_r16_network.node[15].content_store 	decision_ratio[15] 	0.0091363932999782
scalar tree_4_3_u04_r16_network.node[16].core_layer 	interests[16] 	12035
scalar tree_4_3_u04_r16_network.node[16].core_layer 	data[16] 	9195
scalar tree_4_3_u04_r16_network.node[16].content_store 	p_hit[16] 	0.235978396344
scalar tree_4_3_u04_r16_network.node[16].content_store 	hits[16] 	2840
scalar tree_4_3_u04_r16_network.node[16].content_store 	misses[16] 	9195
scalar tree_4_3_u04_r16_network.node[16].content_store 	decision_yes[16] 	75
scalar tree_4_3_u04_r16_network.node[16].content_store 	decision_no[16] 	9120
scalar tree_4_3_u04_r16_network.node[16].content_store 	decision_ratio[16] 	0.0081566068515498
scalar tree_4_3_u04_r16_network.node[17].core_layer 	interests[17] 	12035
scalar tree_4_3_u04_r16_network.node[17].core_layer 	data[17] 	8985
scalar tree_4_3_u04_r16_network.node[17].content_store 	p_hit[17] 	0.25342750311591
scalar tree_4_3_u04_r16_network.node[17].content_store 	hits[17] 	3050
scalar tree_4_3_u04_r16_network.node[17].content_store 	misses[17] 	8985
scalar tree_4_3_u04_r16_network.node[17].content_store 	decision_yes[17] 	85
scalar tree_4_3_u04_r16_network.node[17].content_store 	decision_no[17] 	8900
scalar tree_4_3_u04_r16_network.node[17].content_store 	decision_ratio[17] 	0.0094602114635504
scalar tree_4_3_u04_r16_network.node[18].core_layer 	interests[18] 	12068
scalar tree_4_3_u04_r16_network.node[18].core_layer 	data[18] 	9266
scalar tree_4_3_u04_r16_network.node[18].content_store 	p_hit[18] 	0.23218428902884
scalar tree_4_3_u04_r16_network.node[18].content_store 	hits[18] 	2802
scalar tree_4_3_u04_r16_network.node[18].content_store 	misses[18] 	9266
scalar tree_4_3_u04_r16_network.node[18].content_store 	decision_yes[18] 	96
scalar tree_4_3_u04_r16_network.node[18].content_store 	decision_no[18] 	9170
scalar tree_4_3_u04_r16_network.node[18].content_store 	decision_ratio[18] 	0.010360457586877
scalar tree_4_3_u04_r16_network.node[19].core_layer 	interests[19] 	12017
scalar tree_4_3_u04_r16_network.node[19].core_layer 	data[19] 	9157
scalar tree_4_3_u04_r16_network.node[19].content_store 	p_hit[19] 	0.23791295664475
scalar tree_4_3_u04_r16_network.node[19].content_store 	hits[19] 	2859
scalar tree_4_3_u04_r16_network.node[19].content_store 	misses[19] 	9158
scalar tree_4_3_u04_r16_network.node[19].content_store 	decision_yes[19] 	93
scalar tree_4_3_u04_r16_network.node[19].content_store 	decision_no[19] 	9064
scalar tree_4_3_u04_r16_network.node[19].content_store 	decision_ratio[19] 	0.010156164682756
scalar tree_4_3_u04_r16_network.node[20].core_layer 	interests[20] 	12198
scalar tree_4_3_u04_r16_network.node[20].core_layer 	data[20] 	9368
scalar tree_4_3_u04_r16_network.node[20].content_store 	p_hit[20] 	0.23200524676176
scalar tree_4_3_u04_r16_network.node[20].content_store 	hits[20] 	2830
scalar tree_4_3_u04_r16_network.node[20].content_store 	misses[20] 	9368
scalar tree_4_3_u04_r16_network.node[20].content_store 	decision_yes[20] 	94
scalar tree_4_3_u04_r16_network.node[20].content_store 	decision_no[20] 	9274
scalar tree_4_3_u04_r16_network.node[20].content_store 	decision_ratio[20] 	0.010034158838599
scalar tree_4_3_u04_r16_network.node[21].core_layer 	interests[21] 	12000
scalar tree_4_3_u04_r16_network.node[21].core_layer 	data[21] 	9047
scalar tree_4_3_u04_r16_network.node[21].content_store 	p_hit[21] 	0.24608333333333
scalar tree_4_3_u04_r16_network.node[21].content_store 	hits[21] 	2953
scalar tree_4_3_u04_r16_network.node[21].content_store 	misses[21] 	9047
scalar tree_4_3_u04_r16_network.node[21].content_store 	decision_yes[21] 	92
scalar tree_4_3_u04_r16_network.node[21].content_store 	decision_no[21] 	8955
scalar tree_4_3_u04_r16_network.node[21].content_store 	decision_ratio[21] 	0.01016911683431
scalar tree_4_3_u04_r16_network.node[22].core_layer 	interests[22] 	11921
scalar tree_4_3_u04_r16_network.node[22].core_layer 	data[22] 	9152
scalar tree_4_3_u04_r16_network.node[22].content_store 	p_hit[22] 	0.2321952856304
scalar tree_4_3_u04_r16_network.node[22].content_store 	hits[22] 	2768
scalar tree_4_3_u04_r16_network.node[22].content_store 	misses[22] 	9153
scalar tree_4_3_u04_r16_network.node[22].content_store 	decision_yes[22] 	107
scalar tree_4_3_u04_r16_network.node[22].content_store 	decision_no[22] 	9045
scalar tree_4_3_u04_r16_network.node[22].content_store 	decision_ratio[22] 	0.011691433566434
scalar tree_4_3_u04_r16_network.node[23].core_layer 	interests[23] 	12012
scalar tree_4_3_u04_r16_network.node[23].core_layer 	data[23] 	9125
scalar tree_4_3_u04_r16_network.node[23].content_store 	p_hit[23] 	0.24025974025974
scalar tree_4_3_u04_r16_network.node[23].content_store 	hits[23] 	2886
scalar tree_4_3_u04_r16_network.node[23].content_store 	misses[23] 	9126
scalar tree_4_3_u04_r16_network.node[23].content_store 	decision_yes[23] 	98
scalar tree_4_3_u04_r16_network.node[23].content_store 	decision_no[23] 	9027
scalar tree_4_3_u04_r16_network.node[23].content_store 	decision_ratio[23] 	0.010739726027397
scalar tree_4_3_u04_r16_network.node[24].core_layer 	interests[24] 	12087
scalar tree_4_3_u04_r16_network.node[24].core_layer 	data[24] 	9150
scalar tree_4_3_u04_r16_network.node[24].content_store 	p_hit[24] 	0.24298833457434
scalar tree_4_3_u04_r16_network.node[24].content_store 	hits[24] 	2937
scalar tree_4_3_u04_r16_network.node[24].content_store 	misses[24] 	9150
scalar tree_4_3_u04_r16_network.node[24].content_store 	decision_yes[24] 	101
scalar tree_4_3_u04_r16_network.node[24].content_store 	decision_no[24] 	9049
scalar tree_4_3_u04_r16_network.node[24].content_store 	decision_ratio[24] 	0.01103825136612
scalar tree_4_3_u04_r16_network.node[25].core_layer 	interests[25] 	11963
scalar tree_4_3_u04_r16_network.node[25].core_layer 	data[25] 	8990
scalar tree_4_3_u04_r16_network.node[25].content_store 	p_hit[25] 	0.2485162584636
scalar tree_4_3_u04_r16_network.node[25].content_store 	hits[25] 	2973
scalar tree_4_3_u04_r16_network.node[25].content_store 	misses[25] 	8990
scalar tree_4_3_u04_r16_network.node[25].content_store 	decision_yes[25] 	75
scalar tree_4_3_u04_r16_network.node[25].content_store 	decision_no[25] 	8915
scalar tree_4_3_u04_r16_network.node[25].content_store 	decision_ratio[25] 	0.0083426028921023
scalar tree_4_3_u04_r16_network.node[26].core_layer 	interests[26] 	11955
scalar tree_4_3_u04_r16_network.node[26].core_layer 	data[26] 	9126
scalar tree_4_3_u04_r16_network.node[26].content_store 	p_hit[26] 	0.2366373902133
scalar tree_4_3_u04_r16_network.node[26].content_store 	hits[26] 	2829
scalar tree_4_3_u04_r16_network.node[26].content_store 	misses[26] 	9126
scalar tree_4_3_u04_r16_network.node[26].content_store 	decision_yes[26] 	89
scalar tree_4_3_u04_r16_network.node[26].content_store 	decision_no[26] 	9037
scalar tree_4_3_u04_r16_network.node[26].content_store 	decision_ratio[26] 	0.0097523559062021
scalar tree_4_3_u04_r16_network.node[27].core_layer 	interests[27] 	11901
scalar tree_4_3_u04_r16_network.node[27].core_layer 	data[27] 	9134
scalar tree_4_3_u04_r16_network.node[27].content_store 	p_hit[27] 	0.23250147046467
scalar tree_4_3_u04_r16_network.node[27].content_store 	hits[27] 	2767
scalar tree_4_3_u04_r16_network.node[27].content_store 	misses[27] 	9134
scalar tree_4_3_u04_r16_network.node[27].content_store 	decision_yes[27] 	100
scalar tree_4_3_u04_r16_network.node[27].content_store 	decision_no[27] 	9034
scalar tree_4_3_u04_r16_network.node[27].content_store 	decision_ratio[27] 	0.010948105977666
scalar tree_4_3_u04_r16_network.node[28].core_layer 	interests[28] 	12049
scalar tree_4_3_u04_r16_network.node[28].core_layer 	data[28] 	9061
scalar tree_4_3_u04_r16_network.node[28].content_store 	p_hit[28] 	0.24798738484522
scalar tree_4_3_u04_r16_network.node[28].content_store 	hits[28] 	2988
scalar tree_4_3_u04_r16_network.node[28].content_store 	misses[28] 	9061
scalar tree_4_3_u04_r16_network.node[28].content_store 	decision_yes[28] 	89
scalar tree_4_3_u04_r16_network.node[28].content_store 	decision_no[28] 	8972
scalar tree_4_3_u04_r16_network.node[28].content_store 	decision_ratio[28] 	0.0098223154177243
scalar tree_4_3_u04_r16_network.node[29].core_layer 	interests[29] 	11872
scalar tree_4_3_u04_r16_network.node[29].core_layer 	data[29] 	8928
scalar tree_4_3_u04_r16_network.node[29].content_store 	p_hit[29] 	0.24797843665768
scalar tree_4_3_u04_r16_network.node[29].content_store 	hits[29] 	2944
scalar tree_4_3_u04_r16_network.node[29].content_store 	misses[29] 	8928
scalar tree_4_3_u04_r16_network.node[29].content_store 	decision_yes[29] 	109
scalar tree_4_3_u04_r16_network.node[29].content_store 	decision_no[29] 	8819
scalar tree_4_3_u04_r16_network.node[29].content_store 	decision_ratio[29] 	0.012208781362007
scalar tree_4_3_u04_r16_network.node[30].core_layer 	interests[30] 	12101
scalar tree_4_3_u04_r16_network.node[30].core_layer 	data[30] 	9171
scalar tree_4_3_u04_r16_network.node[30].content_store 	p_hit[30] 	0.24212874969011
scalar tree_4_3_u04_r16_network.node[30].content_store 	hits[30] 	2930
scalar tree_4_3_u04_r16_network.node[30].content_store 	misses[30] 	9171
scalar tree_4_3_u04_r16_network.node[30].content_store 	decision_yes[30] 	89
scalar tree_4_3_u04_r16_network.node[30].content_store 	decision_no[30] 	9082
scalar tree_4_3_u04_r16_network.node[30].content_store 	decision_ratio[30] 	0.0097045033257006
scalar tree_4_3_u04_r16_network.node[31].core_layer 	interests[31] 	12101
scalar tree_4_3_u04_r16_network.node[31].core_layer 	data[31] 	9190
scalar tree_4_3_u04_r16_network.node[31].content_store 	p_hit[31] 	0.24055863151806
scalar tree_4_3_u04_r16_network.node[31].content_store 	hits[31] 	2911
scalar tree_4_3_u04_r16_network.node[31].content_store 	misses[31] 	9190
scalar tree_4_3_u04_r16_network.node[31].content_store 	decision_yes[31] 	108
scalar tree_4_3_u04_r16_network.node[31].content_store 	decision_no[31] 	9082
scalar tree_4_3_u04_r16_network.node[31].content_store 	decision_ratio[31] 	0.011751904243743
scalar tree_4_3_u04_r16_network.node[32].core_layer 	interests[32] 	12022
scalar tree_4_3_u04_r16_network.node[32].core_layer 	data[32] 	9274
scalar tree_4_3_u04_r16_network.node[32].content_store 	p_hit[32] 	0.22858093495259
scalar tree_4_3_u04_r16_network.node[32].content_store 	hits[32] 	2748
scalar tree_4_3_u04_r16_network.node[32].content_store 	misses[32] 	9274
scalar tree_4_3_u04_r16_network.node[32].content_store 	decision_yes[32] 	87
scalar tree_4_3_u04_r16_network.node[32].content_store 	decision_no[32] 	9187
scalar tree_4_3_u04_r16_network.node[32].content_store 	decision_ratio[32] 	0.0093810653439724
scalar tree_4_3_u04_r16_network.node[33].core_layer 	interests[33] 	11933
scalar tree_4_3_u04_r16_network.node[33].core_layer 	data[33] 	8928
scalar tree_4_3_u04_r16_network.node[33].content_store 	p_hit[33] 	0.25190647783458
scalar tree_4_3_u04_r16_network.node[33].content_store 	hits[33] 	3006
scalar tree_4_3_u04_r16_network.node[33].content_store 	misses[33] 	8927
scalar tree_4_3_u04_r16_network.node[33].content_store 	decision_yes[33] 	82
scalar tree_4_3_u04_r16_network.node[33].content_store 	decision_no[33] 	8846
scalar tree_4_3_u04_r16_network.node[33].content_store 	decision_ratio[33] 	0.0091845878136201
scalar tree_4_3_u04_r16_network.node[34].core_layer 	interests[34] 	12018
scalar tree_4_3_u04_r16_network.node[34].core_layer 	data[34] 	9121
scalar tree_4_3_u04_r16_network.node[34].content_store 	p_hit[34] 	0.24105508404061
scalar tree_4_3_u04_r16_network.node[34].content_store 	hits[34] 	2897
scalar tree_4_3_u04_r16_network.node[34].content_store 	misses[34] 	9121
scalar tree_4_3_u04_r16_network.node[34].content_store 	decision_yes[34] 	94
scalar tree_4_3_u04_r16_network.node[34].content_store 	decision_no[34] 	9027
scalar tree_4_3_u04_r16_network.node[34].content_store 	decision_ratio[34] 	0.010305887512334
scalar tree_4_3_u04_r16_network.node[35].core_layer 	interests[35] 	12178
scalar tree_4_3_u04_r16_network.node[35].core_layer 	data[35] 	9347
scalar tree_4_3_u04_r16_network.node[35].content_store 	p_hit[35] 	0.2324683856134
scalar tree_4_3_u04_r16_network.node[35].content_store 	hits[35] 	2831
scalar tree_4_3_u04_r16_network.node[35].content_store 	misses[35] 	9347
scalar tree_4_3_u04_r16_network.node[35].content_store 	decision_yes[35] 	98
scalar tree_4_3_u04_r16_network.node[35].content_store 	decision_no[35] 	9249
scalar tree_4_3_u04_r16_network.node[35].content_store 	decision_ratio[35] 	0.010484647480475
scalar tree_4_3_u04_r16_network.node[36].core_layer 	interests[36] 	12049
scalar tree_4_3_u04_r16_network.node[36].core_layer 	data[36] 	9134
scalar tree_4_3_u04_r16_network.node[36].content_store 	p_hit[36] 	0.24192879077102
scalar tree_4_3_u04_r16_network.node[36].content_store 	hits[36] 	2915
scalar tree_4_3_u04_r16_network.node[36].content_store 	misses[36] 	9134
scalar tree_4_3_u04_r16_network.node[36].content_store 	decision_yes[36] 	89
scalar tree_4_3_u04_r16_network.node[36].content_store 	decision_no[36] 	9045
scalar tree_4_3_u04_r16_network.node[36].content_store 	decision_ratio[36] 	0.0097438143201226
scalar tree_4_3_u04_r16_network.node[37].core_layer 	interests[37] 	12110
scalar tree_4_3_u04_r16_network.node[37].core_layer 	data[37] 	9186
scalar tree_4_3_u04_r16_network.node[37].content_store 	p_hit[37] 	0.24145334434352
scalar tree_4_3_u04_r16_network.node[37].content_store 	hits[37] 	2924
scalar tree_4_3_u04_r16_network.node[37].content_store 	misses[37] 	9186
scalar tree_4_3_u04_r16_network.node[37].content_store 	decision_yes[37] 	105
scalar tree_4_3_u04_r16_network.node[37].content_store 	decision_no[37] 	9081
scalar tree_4_3_u04_r16_network.node[37].content_store 	decision_ratio[37] 	0.011430437622469
scalar tree_4_3_u04_r16_network.node[38].core_layer 	interests[38] 	11954
scalar tree_4_3_u04_r16_network.node[38].core_layer 	data[38] 	9014
scalar tree_4_3_u04_r16_network.node[38].content_store 	p_hit[38] 	0.24594278065919
scalar tree_4_3_u04_r16_network.node[38].content_store 	hits[38] 	2940
scalar tree_4_3_u04_r16_network.node[38].content_store 	misses[38] 	9014
scalar tree_4_3_u04_r16_network.node[38].content_store 	decision_yes[38] 	81
scalar tree_4_3_u04_r16_network.node[38].content_store 	decision_no[38] 	8933
scalar tree_4_3_u04_r16_network.node[38].content_store 	decision_ratio[38] 	0.0089860217439539
scalar tree_4_3_u04_r16_network.node[39].core_layer 	interests[39] 	12130
scalar tree_4_3_u04_r16_network.node[39].core_layer 	data[39] 	9241
scalar tree_4_3_u04_r16_network.node[39].content_store 	p_hit[39] 	0.23816982687552
scalar tree_4_3_u04_r16_network.node[39].content_store 	hits[39] 	2889
scalar tree_4_3_u04_r16_network.node[39].content_store 	misses[39] 	9241
scalar tree_4_3_u04_r16_network.node[39].content_store 	decision_yes[39] 	88
scalar tree_4_3_u04_r16_network.node[39].content_store 	decision_no[39] 	9153
scalar tree_4_3_u04_r16_network.node[39].content_store 	decision_ratio[39] 	0.0095227789200303
scalar tree_4_3_u04_r16_network.client[13] 	hdistance[13] 	2.8547348805692
scalar tree_4_3_u04_r16_network.client[13] 	downloads[13] 	11806
scalar tree_4_3_u04_r16_network.client[13] 	avg_time[13] 	0.004353376695
scalar tree_4_3_u04_r16_network.client[14] 	hdistance[14] 	2.8396031417941
scalar tree_4_3_u04_r16_network.client[14] 	downloads[14] 	12095
scalar tree_4_3_u04_r16_network.client[14] 	avg_time[14] 	0.004320063267
scalar tree_4_3_u04_r16_network.client[15] 	hdistance[15] 	2.8596288659794
scalar tree_4_3_u04_r16_network.client[15] 	downloads[15] 	12125
scalar tree_4_3_u04_r16_network.client[15] 	avg_time[15] 	0.004352379477
scalar tree_4_3_u04_r16_network.client[16] 	hdistance[16] 	2.8718737017034
scalar tree_4_3_u04_r16_network.client[16] 	downloads[16] 	12035
scalar tree_4_3_u04_r16_network.client[16] 	avg_time[16] 	0.004373457985
scalar tree_4_3_u04_r16_network.client[17] 	hdistance[17] 	2.8390527627752
scalar tree_4_3_u04_r16_network.client[17] 	downloads[17] 	12035
scalar tree_4_3_u04_r16_network.client[17] 	avg_time[17] 	0.004314413263
scalar tree_4_3_u04_r16_network.client[18] 	hdistance[18] 	2.8736327477627
scalar tree_4_3_u04_r16_network.client[18] 	downloads[18] 	12068
scalar tree_4_3_u04_r16_network.client[18] 	avg_time[18] 	0.004378187195
scalar tree_4_3_u04_r16_network.client[19] 	hdistance[19] 	2.8516145139814
scalar tree_4_3_u04_r16_network.client[19] 	downloads[19] 	12016
scalar tree_4_3_u04_r16_network.client[19] 	avg_time[19] 	0.004340709368
scalar tree_4_3_u04_r16_network.client[20] 	hdistance[20] 	2.8759632726676
scalar tree_4_3_u04_r16_network.client[20] 	downloads[20] 	12198
scalar tree_4_3_u04_r16_network.client[20] 	avg_time[20] 	0.004382190743
scalar tree_4_3_u04_r16_network.client[21] 	hdistance[21] 	2.8395833333333
scalar tree_4_3_u04_r16_network.client[21] 	downloads[21] 	12000
scalar tree_4_3_u04_r16_network.client[21] 	avg_time[21] 	0.004321322005
scalar tree_4_3_u04_r16_network.client[22] 	hdistance[22] 	2.8737416107383
scalar tree_4_3_u04_r16_network.client[22] 	downloads[22] 	11920
scalar tree_4_3_u04_r16_network.client[22] 	avg_time[22] 	0.004378467617
scalar tree_4_3_u04_r16_network.client[23] 	hdistance[23] 	2.8585463325285
scalar tree_4_3_u04_r16_network.client[23] 	downloads[23] 	12011
scalar tree_4_3_u04_r16_network.client[23] 	avg_time[23] 	0.004353714884
scalar tree_4_3_u04_r16_network.client[24] 	hdistance[24] 	2.8571192189956
scalar tree_4_3_u04_r16_network.client[24] 	downloads[24] 	12087
scalar tree_4_3_u04_r16_network.client[24] 	avg_time[24] 	0.004351222979
scalar tree_4_3_u04_r16_network.client[25] 	hdistance[25] 	2.8406754158656
scalar tree_4_3_u04_r16_network.client[25] 	downloads[25] 	11963
scalar tree_4_3_u04_r16_network.client[25] 	avg_time[25] 	0.004322460146
scalar tree_4_3_u04_r16_network.client[26] 	hdistance[26] 	2.8651610204935
scalar tree_4_3_u04_r16_network.client[26] 	downloads[26] 	11955
scalar tree_4_3_u04_r16_network.client[26] 	avg_time[26] 	0.004360515684
scalar tree_4_3_u04_r16_network.client[27] 	hdistance[27] 	2.8293420720948
scalar tree_4_3_u04_r16_network.client[27] 	downloads[27] 	11901
scalar tree_4_3_u04_r16_network.client[27] 	avg_time[27] 	0.004314962462
scalar tree_4_3_u04_r16_network.client[28] 	hdistance[28] 	2.8294464270894
scalar tree_4_3_u04_r16_network.client[28] 	downloads[28] 	12049
scalar tree_4_3_u04_r16_network.client[28] 	avg_time[28] 	0.004306506785
scalar tree_4_3_u04_r16_network.client[29] 	hdistance[29] 	2.82926212938
scalar tree_4_3_u04_r16_network.client[29] 	downloads[29] 	11872
scalar tree_4_3_u04_r16_network.client[29] 	avg_time[29] 	0.004305590027
scalar tree_4_3_u04_r16_network.client[30] 	hdistance[30] 	2.8345591273449
scalar tree_4_3_u04_r16_network.client[30] 	downloads[30] 	12101
scalar tree_4_3_u04_r16_network.client[30] 	avg_time[30] 	0.004315508098
scalar tree_4_3_u04_r16_network.client[31] 	hdistance[31] 	2.8468721593257
scalar tree_4_3_u04_r16_network.client[31] 	downloads[31] 	12101
scalar tree_4_3_u04_r16_network.client[31] 	avg_time[31] 	0.004334680096
scalar tree_4_3_u04_r16_network.client[32] 	hdistance[32] 	2.8971053069373
scalar tree_4_3_u04_r16_network.client[32] 	downloads[32] 	12022
scalar tree_4_3_u04_r16_network.client[32] 	avg_time[32] 	0.004409579423
scalar tree_4_3_u04_r16_network.client[33] 	hdistance[33] 	2.8109602815485
scalar tree_4_3_u04_r16_network.client[33] 	downloads[33] 	11934
scalar tree_4_3_u04_r16_network.client[33] 	avg_time[33] 	0.004278088164
scalar tree_4_3_u04_r16_network.client[34] 	hdistance[34] 	2.8683641204859
scalar tree_4_3_u04_r16_network.client[34] 	downloads[34] 	12018
scalar tree_4_3_u04_r16_network.client[34] 	avg_time[34] 	0.004364783104
scalar tree_4_3_u04_r16_network.client[35] 	hdistance[35] 	2.8925110855641
scalar tree_4_3_u04_r16_network.client[35] 	downloads[35] 	12178
scalar tree_4_3_u04_r16_network.client[35] 	avg_time[35] 	0.004404496867
scalar tree_4_3_u04_r16_network.client[36] 	hdistance[36] 	2.8721885633662
scalar tree_4_3_u04_r16_network.client[36] 	downloads[36] 	12049
scalar tree_4_3_u04_r16_network.client[36] 	avg_time[36] 	0.004366002474
scalar tree_4_3_u04_r16_network.client[37] 	hdistance[37] 	2.8645747316268
scalar tree_4_3_u04_r16_network.client[37] 	downloads[37] 	12110
scalar tree_4_3_u04_r16_network.client[37] 	avg_time[37] 	0.004353754195
scalar tree_4_3_u04_r16_network.client[38] 	hdistance[38] 	2.8485025932742
scalar tree_4_3_u04_r16_network.client[38] 	downloads[38] 	11954
scalar tree_4_3_u04_r16_network.client[38] 	avg_time[38] 	0.004335114945
scalar tree_4_3_u04_r16_network.client[39] 	hdistance[39] 	2.8582028029679
scalar tree_4_3_u04_r16_network.client[39] 	downloads[39] 	12130
scalar tree_4_3_u04_r16_network.client[39] 	avg_time[39] 	0.004351192369
