version 2
run General-99-20160819-22:07:41-9589
attr a 0.9
attr cd fix0.01
attr configname General
attr cr lru
attr datetime 20160819-22:07:41
attr experiment General
attr fsize 1
attr inifile hw5115/scenario_A/SPR-FIX0.01.ini
attr iterationvars "$name=tree_4_3, $un=04, $rep=20, $cd=fix0.01, $cr=lru, $fsize=1, $a=0.9, $sl=spr, $ttl=1000, $variance=0.05"
attr iterationvars2 "$name=tree_4_3, $un=04, $rep=20, $cd=fix0.01, $cr=lru, $fsize=1, $a=0.9, $sl=spr, $ttl=1000, $variance=0.05, $repetition=0"
attr measurement "$name=tree_4_3, $un=04, $rep=20, $cd=fix0.01, $cr=lru, $fsize=1, $a=0.9, $sl=spr, $ttl=1000, $variance=0.05"
attr name tree_4_3
attr network networks.${name}_u${un}_r${rep}_network
attr processid 9589
attr rep 20
attr repetition 0
attr replication #0
attr resultdir results
attr runnumber 99
attr seedset 20
attr sl spr
attr ttl 1000
attr un 04
attr variance 0.05

scalar . 	a 	0.9
scalar . 	fsize 	1
scalar . 	rep 	20
scalar . 	ttl 	1000
scalar . 	un 	04
scalar . 	variance 	0.05
scalar tree_4_3_u04_r20_network.content_distribution 	repo-0 	0
scalar tree_4_3_u04_r20_network.content_distribution 	client-0 	13
scalar tree_4_3_u04_r20_network.content_distribution 	client-1 	14
scalar tree_4_3_u04_r20_network.content_distribution 	client-2 	15
scalar tree_4_3_u04_r20_network.content_distribution 	client-3 	16
scalar tree_4_3_u04_r20_network.content_distribution 	client-4 	17
scalar tree_4_3_u04_r20_network.content_distribution 	client-5 	18
scalar tree_4_3_u04_r20_network.content_distribution 	client-6 	19
scalar tree_4_3_u04_r20_network.content_distribution 	client-7 	20
scalar tree_4_3_u04_r20_network.content_distribution 	client-8 	21
scalar tree_4_3_u04_r20_network.content_distribution 	client-9 	22
scalar tree_4_3_u04_r20_network.content_distribution 	client-10 	23
scalar tree_4_3_u04_r20_network.content_distribution 	client-11 	24
scalar tree_4_3_u04_r20_network.content_distribution 	client-12 	25
scalar tree_4_3_u04_r20_network.content_distribution 	client-13 	26
scalar tree_4_3_u04_r20_network.content_distribution 	client-14 	27
scalar tree_4_3_u04_r20_network.content_distribution 	client-15 	28
scalar tree_4_3_u04_r20_network.content_distribution 	client-16 	29
scalar tree_4_3_u04_r20_network.content_distribution 	client-17 	30
scalar tree_4_3_u04_r20_network.content_distribution 	client-18 	31
scalar tree_4_3_u04_r20_network.content_distribution 	client-19 	32
scalar tree_4_3_u04_r20_network.content_distribution 	client-20 	33
scalar tree_4_3_u04_r20_network.content_distribution 	client-21 	34
scalar tree_4_3_u04_r20_network.content_distribution 	client-22 	35
scalar tree_4_3_u04_r20_network.content_distribution 	client-23 	36
scalar tree_4_3_u04_r20_network.content_distribution 	client-24 	37
scalar tree_4_3_u04_r20_network.content_distribution 	client-25 	38
scalar tree_4_3_u04_r20_network.content_distribution 	client-26 	39
scalar tree_4_3_u04_r20_network.content_distribution 	repo-0_card 	100000
scalar tree_4_3_u04_r20_network.content_distribution 	repo-0_price 	0
scalar tree_4_3_u04_r20_network.statistics 	stabilization_time 	2411
scalar tree_4_3_u04_r20_network.statistics 	p_hit 	0.179529549479
scalar tree_4_3_u04_r20_network.statistics 	interests 	25677.025
scalar tree_4_3_u04_r20_network.statistics 	data 	17564.775
scalar tree_4_3_u04_r20_network.statistics 	hdistance 	2.8453611208218
scalar tree_4_3_u04_r20_network.statistics 	avg_time 	0.004330673089
scalar tree_4_3_u04_r20_network.statistics 	downloads 	324478
scalar tree_4_3_u04_r20_network.statistics 	total_cost 	0
scalar tree_4_3_u04_r20_network.statistics 	total_replicas 	100000
scalar tree_4_3_u04_r20_network.statistics 	inner_hit 	0.3200216963862
scalar tree_4_3_u04_r20_network.node[0].core_layer 	interests[0] 	225213
scalar tree_4_3_u04_r20_network.node[0].core_layer 	repo_load[0] 	220638
scalar tree_4_3_u04_r20_network.node[0].core_layer 	data[0] 	0
scalar tree_4_3_u04_r20_network.node[0].core_layer 	repo_int[0] 	220638
scalar tree_4_3_u04_r20_network.node[0].content_store 	p_hit[0] 	0.020314102649492
scalar tree_4_3_u04_r20_network.node[0].content_store 	hits[0] 	4575
scalar tree_4_3_u04_r20_network.node[0].content_store 	misses[0] 	220638
scalar tree_4_3_u04_r20_network.node[0].content_store 	decision_yes[0] 	2202
scalar tree_4_3_u04_r20_network.node[0].content_store 	decision_no[0] 	218436
scalar tree_4_3_u04_r20_network.node[0].content_store 	decision_ratio[0] 	0.0099801484785033
scalar tree_4_3_u04_r20_network.node[1].core_layer 	interests[1] 	76849
scalar tree_4_3_u04_r20_network.node[1].core_layer 	data[1] 	74728
scalar tree_4_3_u04_r20_network.node[1].content_store 	p_hit[1] 	0.027573553331859
scalar tree_4_3_u04_r20_network.node[1].content_store 	hits[1] 	2119
scalar tree_4_3_u04_r20_network.node[1].content_store 	misses[1] 	74730
scalar tree_4_3_u04_r20_network.node[1].content_store 	decision_yes[1] 	725
scalar tree_4_3_u04_r20_network.node[1].content_store 	decision_no[1] 	74003
scalar tree_4_3_u04_r20_network.node[1].content_store 	decision_ratio[1] 	0.0097018520501017
scalar tree_4_3_u04_r20_network.node[2].core_layer 	interests[2] 	103235
scalar tree_4_3_u04_r20_network.node[2].core_layer 	data[2] 	100466
scalar tree_4_3_u04_r20_network.node[2].content_store 	p_hit[2] 	0.02680292536446
scalar tree_4_3_u04_r20_network.node[2].content_store 	hits[2] 	2767
scalar tree_4_3_u04_r20_network.node[2].content_store 	misses[2] 	100468
scalar tree_4_3_u04_r20_network.node[2].content_store 	decision_yes[2] 	1063
scalar tree_4_3_u04_r20_network.node[2].content_store 	decision_no[2] 	99403
scalar tree_4_3_u04_r20_network.node[2].content_store 	decision_ratio[2] 	0.010580693966118
scalar tree_4_3_u04_r20_network.node[3].core_layer 	interests[3] 	51569
scalar tree_4_3_u04_r20_network.node[3].core_layer 	data[3] 	50018
scalar tree_4_3_u04_r20_network.node[3].content_store 	p_hit[3] 	0.030076208574919
scalar tree_4_3_u04_r20_network.node[3].content_store 	hits[3] 	1551
scalar tree_4_3_u04_r20_network.node[3].content_store 	misses[3] 	50018
scalar tree_4_3_u04_r20_network.node[3].content_store 	decision_yes[3] 	507
scalar tree_4_3_u04_r20_network.node[3].content_store 	decision_no[3] 	49511
scalar tree_4_3_u04_r20_network.node[3].content_store 	decision_ratio[3] 	0.010136350913671
scalar tree_4_3_u04_r20_network.node[4].core_layer 	interests[4] 	27242
scalar tree_4_3_u04_r20_network.node[4].core_layer 	data[4] 	25656
scalar tree_4_3_u04_r20_network.node[4].content_store 	p_hit[4] 	0.058218926657367
scalar tree_4_3_u04_r20_network.node[4].content_store 	hits[4] 	1586
scalar tree_4_3_u04_r20_network.node[4].content_store 	misses[4] 	25656
scalar tree_4_3_u04_r20_network.node[4].content_store 	decision_yes[4] 	246
scalar tree_4_3_u04_r20_network.node[4].content_store 	decision_no[4] 	25410
scalar tree_4_3_u04_r20_network.node[4].content_store 	decision_ratio[4] 	0.0095884003741815
scalar tree_4_3_u04_r20_network.node[5].core_layer 	interests[5] 	36305
scalar tree_4_3_u04_r20_network.node[5].core_layer 	data[5] 	34172
scalar tree_4_3_u04_r20_network.node[5].content_store 	p_hit[5] 	0.058697149153009
scalar tree_4_3_u04_r20_network.node[5].content_store 	hits[5] 	2131
scalar tree_4_3_u04_r20_network.node[5].content_store 	misses[5] 	34174
scalar tree_4_3_u04_r20_network.node[5].content_store 	decision_yes[5] 	360
scalar tree_4_3_u04_r20_network.node[5].content_store 	decision_no[5] 	33812
scalar tree_4_3_u04_r20_network.node[5].content_store 	decision_ratio[5] 	0.010534940887276
scalar tree_4_3_u04_r20_network.node[6].core_layer 	interests[6] 	18058
scalar tree_4_3_u04_r20_network.node[6].core_layer 	data[6] 	17019
scalar tree_4_3_u04_r20_network.node[6].content_store 	p_hit[6] 	0.057536825783586
scalar tree_4_3_u04_r20_network.node[6].content_store 	hits[6] 	1039
scalar tree_4_3_u04_r20_network.node[6].content_store 	misses[6] 	17019
scalar tree_4_3_u04_r20_network.node[6].content_store 	decision_yes[6] 	159
scalar tree_4_3_u04_r20_network.node[6].content_store 	decision_no[6] 	16860
scalar tree_4_3_u04_r20_network.node[6].content_store 	decision_ratio[6] 	0.0093424995593161
scalar tree_4_3_u04_r20_network.node[7].core_layer 	interests[7] 	45604
scalar tree_4_3_u04_r20_network.node[7].core_layer 	data[7] 	43087
scalar tree_4_3_u04_r20_network.node[7].content_store 	p_hit[7] 	0.055170599070257
scalar tree_4_3_u04_r20_network.node[7].content_store 	hits[7] 	2516
scalar tree_4_3_u04_r20_network.node[7].content_store 	misses[7] 	43088
scalar tree_4_3_u04_r20_network.node[7].content_store 	decision_yes[7] 	434
scalar tree_4_3_u04_r20_network.node[7].content_store 	decision_no[7] 	42653
scalar tree_4_3_u04_r20_network.node[7].content_store 	decision_ratio[7] 	0.010072643720844
scalar tree_4_3_u04_r20_network.node[8].core_layer 	interests[8] 	27279
scalar tree_4_3_u04_r20_network.node[8].core_layer 	data[8] 	25704
scalar tree_4_3_u04_r20_network.node[8].content_store 	p_hit[8] 	0.057700062319
scalar tree_4_3_u04_r20_network.node[8].content_store 	hits[8] 	1574
scalar tree_4_3_u04_r20_network.node[8].content_store 	misses[8] 	25705
scalar tree_4_3_u04_r20_network.node[8].content_store 	decision_yes[8] 	272
scalar tree_4_3_u04_r20_network.node[8].content_store 	decision_no[8] 	25432
scalar tree_4_3_u04_r20_network.node[8].content_store 	decision_ratio[8] 	0.010582010582011
scalar tree_4_3_u04_r20_network.node[9].core_layer 	interests[9] 	9076
scalar tree_4_3_u04_r20_network.node[9].core_layer 	data[9] 	8483
scalar tree_4_3_u04_r20_network.node[9].content_store 	p_hit[9] 	0.065337152930807
scalar tree_4_3_u04_r20_network.node[9].content_store 	hits[9] 	593
scalar tree_4_3_u04_r20_network.node[9].content_store 	misses[9] 	8483
scalar tree_4_3_u04_r20_network.node[9].content_store 	decision_yes[9] 	88
scalar tree_4_3_u04_r20_network.node[9].content_store 	decision_no[9] 	8395
scalar tree_4_3_u04_r20_network.node[9].content_store 	decision_ratio[9] 	0.010373688553578
scalar tree_4_3_u04_r20_network.node[10].core_layer 	interests[10] 	36543
scalar tree_4_3_u04_r20_network.node[10].core_layer 	data[10] 	34534
scalar tree_4_3_u04_r20_network.node[10].content_store 	p_hit[10] 	0.055003694277974
scalar tree_4_3_u04_r20_network.node[10].content_store 	hits[10] 	2010
scalar tree_4_3_u04_r20_network.node[10].content_store 	misses[10] 	34533
scalar tree_4_3_u04_r20_network.node[10].content_store 	decision_yes[10] 	341
scalar tree_4_3_u04_r20_network.node[10].content_store 	decision_no[10] 	34193
scalar tree_4_3_u04_r20_network.node[10].content_store 	decision_ratio[10] 	0.0098743267504488
scalar tree_4_3_u04_r20_network.node[11].core_layer 	interests[11] 	27475
scalar tree_4_3_u04_r20_network.node[11].core_layer 	data[11] 	25961
scalar tree_4_3_u04_r20_network.node[11].content_store 	p_hit[11] 	0.055104640582348
scalar tree_4_3_u04_r20_network.node[11].content_store 	hits[11] 	1514
scalar tree_4_3_u04_r20_network.node[11].content_store 	misses[11] 	25961
scalar tree_4_3_u04_r20_network.node[11].content_store 	decision_yes[11] 	257
scalar tree_4_3_u04_r20_network.node[11].content_store 	decision_no[11] 	25704
scalar tree_4_3_u04_r20_network.node[11].content_store 	decision_ratio[11] 	0.0098994645814876
scalar tree_4_3_u04_r20_network.node[12].core_layer 	interests[12] 	18148
scalar tree_4_3_u04_r20_network.node[12].core_layer 	data[12] 	17035
scalar tree_4_3_u04_r20_network.node[12].content_store 	p_hit[12] 	0.061329072074058
scalar tree_4_3_u04_r20_network.node[12].content_store 	hits[12] 	1113
scalar tree_4_3_u04_r20_network.node[12].content_store 	misses[12] 	17035
scalar tree_4_3_u04_r20_network.node[12].content_store 	decision_yes[12] 	163
scalar tree_4_3_u04_r20_network.node[12].content_store 	decision_no[12] 	16872
scalar tree_4_3_u04_r20_network.node[12].content_store 	decision_ratio[12] 	0.0095685353683593
scalar tree_4_3_u04_r20_network.node[13].core_layer 	interests[13] 	12004
scalar tree_4_3_u04_r20_network.node[13].core_layer 	data[13] 	8965
scalar tree_4_3_u04_r20_network.node[13].content_store 	p_hit[13] 	0.25316561146285
scalar tree_4_3_u04_r20_network.node[13].content_store 	hits[13] 	3039
scalar tree_4_3_u04_r20_network.node[13].content_store 	misses[13] 	8965
scalar tree_4_3_u04_r20_network.node[13].content_store 	decision_yes[13] 	99
scalar tree_4_3_u04_r20_network.node[13].content_store 	decision_no[13] 	8866
scalar tree_4_3_u04_r20_network.node[13].content_store 	decision_ratio[13] 	0.011042944785276
scalar tree_4_3_u04_r20_network.node[14].core_layer 	interests[14] 	12124
scalar tree_4_3_u04_r20_network.node[14].core_layer 	data[14] 	9124
scalar tree_4_3_u04_r20_network.node[14].content_store 	p_hit[14] 	0.24744308808974
scalar tree_4_3_u04_r20_network.node[14].content_store 	hits[14] 	3000
scalar tree_4_3_u04_r20_network.node[14].content_store 	misses[14] 	9124
scalar tree_4_3_u04_r20_network.node[14].content_store 	decision_yes[14] 	93
scalar tree_4_3_u04_r20_network.node[14].content_store 	decision_no[14] 	9031
scalar tree_4_3_u04_r20_network.node[14].content_store 	decision_ratio[14] 	0.010192897851819
scalar tree_4_3_u04_r20_network.node[15].core_layer 	interests[15] 	12124
scalar tree_4_3_u04_r20_network.node[15].core_layer 	data[15] 	9153
scalar tree_4_3_u04_r20_network.node[15].content_store 	p_hit[15] 	0.24505113823821
scalar tree_4_3_u04_r20_network.node[15].content_store 	hits[15] 	2971
scalar tree_4_3_u04_r20_network.node[15].content_store 	misses[15] 	9153
scalar tree_4_3_u04_r20_network.node[15].content_store 	decision_yes[15] 	85
scalar tree_4_3_u04_r20_network.node[15].content_store 	decision_no[15] 	9068
scalar tree_4_3_u04_r20_network.node[15].content_store 	decision_ratio[15] 	0.0092865727084016
scalar tree_4_3_u04_r20_network.node[16].core_layer 	interests[16] 	11977
scalar tree_4_3_u04_r20_network.node[16].core_layer 	data[16] 	9125
scalar tree_4_3_u04_r20_network.node[16].content_store 	p_hit[16] 	0.23803957585372
scalar tree_4_3_u04_r20_network.node[16].content_store 	hits[16] 	2851
scalar tree_4_3_u04_r20_network.node[16].content_store 	misses[16] 	9126
scalar tree_4_3_u04_r20_network.node[16].content_store 	decision_yes[16] 	84
scalar tree_4_3_u04_r20_network.node[16].content_store 	decision_no[16] 	9041
scalar tree_4_3_u04_r20_network.node[16].content_store 	decision_ratio[16] 	0.0092054794520548
scalar tree_4_3_u04_r20_network.node[17].core_layer 	interests[17] 	12153
scalar tree_4_3_u04_r20_network.node[17].core_layer 	data[17] 	9102
scalar tree_4_3_u04_r20_network.node[17].content_store 	p_hit[17] 	0.25096683946351
scalar tree_4_3_u04_r20_network.node[17].content_store 	hits[17] 	3050
scalar tree_4_3_u04_r20_network.node[17].content_store 	misses[17] 	9103
scalar tree_4_3_u04_r20_network.node[17].content_store 	decision_yes[17] 	84
scalar tree_4_3_u04_r20_network.node[17].content_store 	decision_no[17] 	9018
scalar tree_4_3_u04_r20_network.node[17].content_store 	decision_ratio[17] 	0.009228740936058
scalar tree_4_3_u04_r20_network.node[18].core_layer 	interests[18] 	11954
scalar tree_4_3_u04_r20_network.node[18].core_layer 	data[18] 	9142
scalar tree_4_3_u04_r20_network.node[18].content_store 	p_hit[18] 	0.23506775974569
scalar tree_4_3_u04_r20_network.node[18].content_store 	hits[18] 	2810
scalar tree_4_3_u04_r20_network.node[18].content_store 	misses[18] 	9144
scalar tree_4_3_u04_r20_network.node[18].content_store 	decision_yes[18] 	91
scalar tree_4_3_u04_r20_network.node[18].content_store 	decision_no[18] 	9051
scalar tree_4_3_u04_r20_network.node[18].content_store 	decision_ratio[18] 	0.0099540581929556
scalar tree_4_3_u04_r20_network.node[19].core_layer 	interests[19] 	12006
scalar tree_4_3_u04_r20_network.node[19].core_layer 	data[19] 	8976
scalar tree_4_3_u04_r20_network.node[19].content_store 	p_hit[19] 	0.25237381309345
scalar tree_4_3_u04_r20_network.node[19].content_store 	hits[19] 	3030
scalar tree_4_3_u04_r20_network.node[19].content_store 	misses[19] 	8976
scalar tree_4_3_u04_r20_network.node[19].content_store 	decision_yes[19] 	87
scalar tree_4_3_u04_r20_network.node[19].content_store 	decision_no[19] 	8889
scalar tree_4_3_u04_r20_network.node[19].content_store 	decision_ratio[19] 	0.009692513368984
scalar tree_4_3_u04_r20_network.node[20].core_layer 	interests[20] 	11833
scalar tree_4_3_u04_r20_network.node[20].core_layer 	data[20] 	8934
scalar tree_4_3_u04_r20_network.node[20].content_store 	p_hit[20] 	0.24499281669906
scalar tree_4_3_u04_r20_network.node[20].content_store 	hits[20] 	2899
scalar tree_4_3_u04_r20_network.node[20].content_store 	misses[20] 	8934
scalar tree_4_3_u04_r20_network.node[20].content_store 	decision_yes[20] 	97
scalar tree_4_3_u04_r20_network.node[20].content_store 	decision_no[20] 	8837
scalar tree_4_3_u04_r20_network.node[20].content_store 	decision_ratio[20] 	0.010857398701589
scalar tree_4_3_u04_r20_network.node[21].core_layer 	interests[21] 	11904
scalar tree_4_3_u04_r20_network.node[21].core_layer 	data[21] 	9082
scalar tree_4_3_u04_r20_network.node[21].content_store 	p_hit[21] 	0.23706317204301
scalar tree_4_3_u04_r20_network.node[21].content_store 	hits[21] 	2822
scalar tree_4_3_u04_r20_network.node[21].content_store 	misses[21] 	9082
scalar tree_4_3_u04_r20_network.node[21].content_store 	decision_yes[21] 	95
scalar tree_4_3_u04_r20_network.node[21].content_store 	decision_no[21] 	8987
scalar tree_4_3_u04_r20_network.node[21].content_store 	decision_ratio[21] 	0.010460251046025
scalar tree_4_3_u04_r20_network.node[22].core_layer 	interests[22] 	11922
scalar tree_4_3_u04_r20_network.node[22].core_layer 	data[22] 	9144
scalar tree_4_3_u04_r20_network.node[22].content_store 	p_hit[22] 	0.23301459486663
scalar tree_4_3_u04_r20_network.node[22].content_store 	hits[22] 	2778
scalar tree_4_3_u04_r20_network.node[22].content_store 	misses[22] 	9144
scalar tree_4_3_u04_r20_network.node[22].content_store 	decision_yes[22] 	106
scalar tree_4_3_u04_r20_network.node[22].content_store 	decision_no[22] 	9038
scalar tree_4_3_u04_r20_network.node[22].content_store 	decision_ratio[22] 	0.01159230096238
scalar tree_4_3_u04_r20_network.node[23].core_layer 	interests[23] 	11940
scalar tree_4_3_u04_r20_network.node[23].core_layer 	data[23] 	9067
scalar tree_4_3_u04_r20_network.node[23].content_store 	p_hit[23] 	0.24061976549414
scalar tree_4_3_u04_r20_network.node[23].content_store 	hits[23] 	2873
scalar tree_4_3_u04_r20_network.node[23].content_store 	misses[23] 	9067
scalar tree_4_3_u04_r20_network.node[23].content_store 	decision_yes[23] 	89
scalar tree_4_3_u04_r20_network.node[23].content_store 	decision_no[23] 	8978
scalar tree_4_3_u04_r20_network.node[23].content_store 	decision_ratio[23] 	0.0098158155950149
scalar tree_4_3_u04_r20_network.node[24].core_layer 	interests[24] 	12131
scalar tree_4_3_u04_r20_network.node[24].core_layer 	data[24] 	9214
scalar tree_4_3_u04_r20_network.node[24].content_store 	p_hit[24] 	0.24045832989861
scalar tree_4_3_u04_r20_network.node[24].content_store 	hits[24] 	2917
scalar tree_4_3_u04_r20_network.node[24].content_store 	misses[24] 	9214
scalar tree_4_3_u04_r20_network.node[24].content_store 	decision_yes[24] 	118
scalar tree_4_3_u04_r20_network.node[24].content_store 	decision_no[24] 	9096
scalar tree_4_3_u04_r20_network.node[24].content_store 	decision_ratio[24] 	0.012806598654222
scalar tree_4_3_u04_r20_network.node[25].core_layer 	interests[25] 	12005
scalar tree_4_3_u04_r20_network.node[25].core_layer 	data[25] 	9081
scalar tree_4_3_u04_r20_network.node[25].content_store 	p_hit[25] 	0.24356518117451
scalar tree_4_3_u04_r20_network.node[25].content_store 	hits[25] 	2924
scalar tree_4_3_u04_r20_network.node[25].content_store 	misses[25] 	9081
scalar tree_4_3_u04_r20_network.node[25].content_store 	decision_yes[25] 	80
scalar tree_4_3_u04_r20_network.node[25].content_store 	decision_no[25] 	9001
scalar tree_4_3_u04_r20_network.node[25].content_store 	decision_ratio[25] 	0.0088096024666887
scalar tree_4_3_u04_r20_network.node[26].core_layer 	interests[26] 	11970
scalar tree_4_3_u04_r20_network.node[26].core_layer 	data[26] 	9056
scalar tree_4_3_u04_r20_network.node[26].content_store 	p_hit[26] 	0.24335839598997
scalar tree_4_3_u04_r20_network.node[26].content_store 	hits[26] 	2913
scalar tree_4_3_u04_r20_network.node[26].content_store 	misses[26] 	9057
scalar tree_4_3_u04_r20_network.node[26].content_store 	decision_yes[26] 	77
scalar tree_4_3_u04_r20_network.node[26].content_store 	decision_no[26] 	8979
scalar tree_4_3_u04_r20_network.node[26].content_store 	decision_ratio[26] 	0.0085026501766784
scalar tree_4_3_u04_r20_network.node[27].core_layer 	interests[27] 	11923
scalar tree_4_3_u04_r20_network.node[27].core_layer 	data[27] 	9072
scalar tree_4_3_u04_r20_network.node[27].content_store 	p_hit[27] 	0.23911767172691
scalar tree_4_3_u04_r20_network.node[27].content_store 	hits[27] 	2851
scalar tree_4_3_u04_r20_network.node[27].content_store 	misses[27] 	9072
scalar tree_4_3_u04_r20_network.node[27].content_store 	decision_yes[27] 	103
scalar tree_4_3_u04_r20_network.node[27].content_store 	decision_no[27] 	8969
scalar tree_4_3_u04_r20_network.node[27].content_store 	decision_ratio[27] 	0.011353615520282
scalar tree_4_3_u04_r20_network.node[28].core_layer 	interests[28] 	11968
scalar tree_4_3_u04_r20_network.node[28].core_layer 	data[28] 	9098
scalar tree_4_3_u04_r20_network.node[28].content_store 	p_hit[28] 	0.23980614973262
scalar tree_4_3_u04_r20_network.node[28].content_store 	hits[28] 	2870
scalar tree_4_3_u04_r20_network.node[28].content_store 	misses[28] 	9098
scalar tree_4_3_u04_r20_network.node[28].content_store 	decision_yes[28] 	103
scalar tree_4_3_u04_r20_network.node[28].content_store 	decision_no[28] 	8995
scalar tree_4_3_u04_r20_network.node[28].content_store 	decision_ratio[28] 	0.0113211694878
scalar tree_4_3_u04_r20_network.node[29].core_layer 	interests[29] 	12091
scalar tree_4_3_u04_r20_network.node[29].core_layer 	data[29] 	9150
scalar tree_4_3_u04_r20_network.node[29].content_store 	p_hit[29] 	0.24315606649574
scalar tree_4_3_u04_r20_network.node[29].content_store 	hits[29] 	2940
scalar tree_4_3_u04_r20_network.node[29].content_store 	misses[29] 	9151
scalar tree_4_3_u04_r20_network.node[29].content_store 	decision_yes[29] 	98
scalar tree_4_3_u04_r20_network.node[29].content_store 	decision_no[29] 	9052
scalar tree_4_3_u04_r20_network.node[29].content_store 	decision_ratio[29] 	0.010710382513661
scalar tree_4_3_u04_r20_network.node[30].core_layer 	interests[30] 	11851
scalar tree_4_3_u04_r20_network.node[30].core_layer 	data[30] 	9076
scalar tree_4_3_u04_r20_network.node[30].content_store 	p_hit[30] 	0.23415745506708
scalar tree_4_3_u04_r20_network.node[30].content_store 	hits[30] 	2775
scalar tree_4_3_u04_r20_network.node[30].content_store 	misses[30] 	9076
scalar tree_4_3_u04_r20_network.node[30].content_store 	decision_yes[30] 	82
scalar tree_4_3_u04_r20_network.node[30].content_store 	decision_no[30] 	8994
scalar tree_4_3_u04_r20_network.node[30].content_store 	decision_ratio[30] 	0.0090348171000441
scalar tree_4_3_u04_r20_network.node[31].core_layer 	interests[31] 	11939
scalar tree_4_3_u04_r20_network.node[31].core_layer 	data[31] 	8958
scalar tree_4_3_u04_r20_network.node[31].content_store 	p_hit[31] 	0.24968590334199
scalar tree_4_3_u04_r20_network.node[31].content_store 	hits[31] 	2981
scalar tree_4_3_u04_r20_network.node[31].content_store 	misses[31] 	8958
scalar tree_4_3_u04_r20_network.node[31].content_store 	decision_yes[31] 	88
scalar tree_4_3_u04_r20_network.node[31].content_store 	decision_no[31] 	8870
scalar tree_4_3_u04_r20_network.node[31].content_store 	decision_ratio[31] 	0.00982362134405
scalar tree_4_3_u04_r20_network.node[32].core_layer 	interests[32] 	12198
scalar tree_4_3_u04_r20_network.node[32].core_layer 	data[32] 	9211
scalar tree_4_3_u04_r20_network.node[32].content_store 	p_hit[32] 	0.24487620921463
scalar tree_4_3_u04_r20_network.node[32].content_store 	hits[32] 	2987
scalar tree_4_3_u04_r20_network.node[32].content_store 	misses[32] 	9211
scalar tree_4_3_u04_r20_network.node[32].content_store 	decision_yes[32] 	85
scalar tree_4_3_u04_r20_network.node[32].content_store 	decision_no[32] 	9126
scalar tree_4_3_u04_r20_network.node[32].content_store 	decision_ratio[32] 	0.0092280968407339
scalar tree_4_3_u04_r20_network.node[33].core_layer 	interests[33] 	12075
scalar tree_4_3_u04_r20_network.node[33].core_layer 	data[33] 	9109
scalar tree_4_3_u04_r20_network.node[33].content_store 	p_hit[33] 	0.2456314699793
scalar tree_4_3_u04_r20_network.node[33].content_store 	hits[33] 	2966
scalar tree_4_3_u04_r20_network.node[33].content_store 	misses[33] 	9109
scalar tree_4_3_u04_r20_network.node[33].content_store 	decision_yes[33] 	76
scalar tree_4_3_u04_r20_network.node[33].content_store 	decision_no[33] 	9033
scalar tree_4_3_u04_r20_network.node[33].content_store 	decision_ratio[33] 	0.008343396640685
scalar tree_4_3_u04_r20_network.node[34].core_layer 	interests[34] 	11974
scalar tree_4_3_u04_r20_network.node[34].core_layer 	data[34] 	8948
scalar tree_4_3_u04_r20_network.node[34].content_store 	p_hit[34] 	0.25271421413062
scalar tree_4_3_u04_r20_network.node[34].content_store 	hits[34] 	3026
scalar tree_4_3_u04_r20_network.node[34].content_store 	misses[34] 	8948
scalar tree_4_3_u04_r20_network.node[34].content_store 	decision_yes[34] 	83
scalar tree_4_3_u04_r20_network.node[34].content_store 	decision_no[34] 	8865
scalar tree_4_3_u04_r20_network.node[34].content_store 	decision_ratio[34] 	0.0092758158247653
scalar tree_4_3_u04_r20_network.node[35].core_layer 	interests[35] 	12083
scalar tree_4_3_u04_r20_network.node[35].core_layer 	data[35] 	9225
scalar tree_4_3_u04_r20_network.node[35].content_store 	p_hit[35] 	0.23653066291484
scalar tree_4_3_u04_r20_network.node[35].content_store 	hits[35] 	2858
scalar tree_4_3_u04_r20_network.node[35].content_store 	misses[35] 	9225
scalar tree_4_3_u04_r20_network.node[35].content_store 	decision_yes[35] 	101
scalar tree_4_3_u04_r20_network.node[35].content_store 	decision_no[35] 	9124
scalar tree_4_3_u04_r20_network.node[35].content_store 	decision_ratio[35] 	0.010948509485095
scalar tree_4_3_u04_r20_network.node[36].core_layer 	interests[36] 	12196
scalar tree_4_3_u04_r20_network.node[36].core_layer 	data[36] 	9302
scalar tree_4_3_u04_r20_network.node[36].content_store 	p_hit[36] 	0.23729091505412
scalar tree_4_3_u04_r20_network.node[36].content_store 	hits[36] 	2894
scalar tree_4_3_u04_r20_network.node[36].content_store 	misses[36] 	9302
scalar tree_4_3_u04_r20_network.node[36].content_store 	decision_yes[36] 	93
scalar tree_4_3_u04_r20_network.node[36].content_store 	decision_no[36] 	9209
scalar tree_4_3_u04_r20_network.node[36].content_store 	decision_ratio[36] 	0.0099978499247474
scalar tree_4_3_u04_r20_network.node[37].core_layer 	interests[37] 	12253
scalar tree_4_3_u04_r20_network.node[37].core_layer 	data[37] 	9266
scalar tree_4_3_u04_r20_network.node[37].content_store 	p_hit[37] 	0.24369542152942
scalar tree_4_3_u04_r20_network.node[37].content_store 	hits[37] 	2986
scalar tree_4_3_u04_r20_network.node[37].content_store 	misses[37] 	9267
scalar tree_4_3_u04_r20_network.node[37].content_store 	decision_yes[37] 	98
scalar tree_4_3_u04_r20_network.node[37].content_store 	decision_no[37] 	9168
scalar tree_4_3_u04_r20_network.node[37].content_store 	decision_ratio[37] 	0.01057630045327
scalar tree_4_3_u04_r20_network.node[38].core_layer 	interests[38] 	11818
scalar tree_4_3_u04_r20_network.node[38].core_layer 	data[38] 	9000
scalar tree_4_3_u04_r20_network.node[38].content_store 	p_hit[38] 	0.23844982230496
scalar tree_4_3_u04_r20_network.node[38].content_store 	hits[38] 	2818
scalar tree_4_3_u04_r20_network.node[38].content_store 	misses[38] 	9000
scalar tree_4_3_u04_r20_network.node[38].content_store 	decision_yes[38] 	94
scalar tree_4_3_u04_r20_network.node[38].content_store 	decision_no[38] 	8906
scalar tree_4_3_u04_r20_network.node[38].content_store 	decision_ratio[38] 	0.010444444444444
scalar tree_4_3_u04_r20_network.node[39].core_layer 	interests[39] 	12069
scalar tree_4_3_u04_r20_network.node[39].core_layer 	data[39] 	9148
scalar tree_4_3_u04_r20_network.node[39].content_store 	p_hit[39] 	0.24202502278565
scalar tree_4_3_u04_r20_network.node[39].content_store 	hits[39] 	2921
scalar tree_4_3_u04_r20_network.node[39].content_store 	misses[39] 	9148
scalar tree_4_3_u04_r20_network.node[39].content_store 	decision_yes[39] 	85
scalar tree_4_3_u04_r20_network.node[39].content_store 	decision_no[39] 	9063
scalar tree_4_3_u04_r20_network.node[39].content_store 	decision_ratio[39] 	0.0092916484477481
scalar tree_4_3_u04_r20_network.client[13] 	hdistance[13] 	2.8089803398867
scalar tree_4_3_u04_r20_network.client[13] 	downloads[13] 	12004
scalar tree_4_3_u04_r20_network.client[13] 	avg_time[13] 	0.004271906324
scalar tree_4_3_u04_r20_network.client[14] 	hdistance[14] 	2.8439458924447
scalar tree_4_3_u04_r20_network.client[14] 	downloads[14] 	12124
scalar tree_4_3_u04_r20_network.client[14] 	avg_time[14] 	0.004324477342
scalar tree_4_3_u04_r20_network.client[15] 	hdistance[15] 	2.8177169251072
scalar tree_4_3_u04_r20_network.client[15] 	downloads[15] 	12124
scalar tree_4_3_u04_r20_network.client[15] 	avg_time[15] 	0.004290660103
scalar tree_4_3_u04_r20_network.client[16] 	hdistance[16] 	2.8596359385437
scalar tree_4_3_u04_r20_network.client[16] 	downloads[16] 	11976
scalar tree_4_3_u04_r20_network.client[16] 	avg_time[16] 	0.004357545461
scalar tree_4_3_u04_r20_network.client[17] 	hdistance[17] 	2.8122119815668
scalar tree_4_3_u04_r20_network.client[17] 	downloads[17] 	12152
scalar tree_4_3_u04_r20_network.client[17] 	avg_time[17] 	0.004282748772
scalar tree_4_3_u04_r20_network.client[18] 	hdistance[18] 	2.842453145917
scalar tree_4_3_u04_r20_network.client[18] 	downloads[18] 	11952
scalar tree_4_3_u04_r20_network.client[18] 	avg_time[18] 	0.004332682324
scalar tree_4_3_u04_r20_network.client[19] 	hdistance[19] 	2.8097617857738
scalar tree_4_3_u04_r20_network.client[19] 	downloads[19] 	12006
scalar tree_4_3_u04_r20_network.client[19] 	avg_time[19] 	0.004275525878
scalar tree_4_3_u04_r20_network.client[20] 	hdistance[20] 	2.8509253781797
scalar tree_4_3_u04_r20_network.client[20] 	downloads[20] 	11833
scalar tree_4_3_u04_r20_network.client[20] 	avg_time[20] 	0.004334992392
scalar tree_4_3_u04_r20_network.client[21] 	hdistance[21] 	2.8723958333333
scalar tree_4_3_u04_r20_network.client[21] 	downloads[21] 	11904
scalar tree_4_3_u04_r20_network.client[21] 	avg_time[21] 	0.004366515504
scalar tree_4_3_u04_r20_network.client[22] 	hdistance[22] 	2.893474249287
scalar tree_4_3_u04_r20_network.client[22] 	downloads[22] 	11922
scalar tree_4_3_u04_r20_network.client[22] 	avg_time[22] 	0.004403978996
scalar tree_4_3_u04_r20_network.client[23] 	hdistance[23] 	2.8545226130653
scalar tree_4_3_u04_r20_network.client[23] 	downloads[23] 	11940
scalar tree_4_3_u04_r20_network.client[23] 	avg_time[23] 	0.004344218117
scalar tree_4_3_u04_r20_network.client[24] 	hdistance[24] 	2.8593685598879
scalar tree_4_3_u04_r20_network.client[24] 	downloads[24] 	12131
scalar tree_4_3_u04_r20_network.client[24] 	avg_time[24] 	0.004351328268
scalar tree_4_3_u04_r20_network.client[25] 	hdistance[25] 	2.830403998334
scalar tree_4_3_u04_r20_network.client[25] 	downloads[25] 	12005
scalar tree_4_3_u04_r20_network.client[25] 	avg_time[25] 	0.004308035333
scalar tree_4_3_u04_r20_network.client[26] 	hdistance[26] 	2.8315648759295
scalar tree_4_3_u04_r20_network.client[26] 	downloads[26] 	11969
scalar tree_4_3_u04_r20_network.client[26] 	avg_time[26] 	0.004311134109
scalar tree_4_3_u04_r20_network.client[27] 	hdistance[27] 	2.8668120439487
scalar tree_4_3_u04_r20_network.client[27] 	downloads[27] 	11923
scalar tree_4_3_u04_r20_network.client[27] 	avg_time[27] 	0.004363484919
scalar tree_4_3_u04_r20_network.client[28] 	hdistance[28] 	2.869067513369
scalar tree_4_3_u04_r20_network.client[28] 	downloads[28] 	11968
scalar tree_4_3_u04_r20_network.client[28] 	avg_time[28] 	0.004369482283
scalar tree_4_3_u04_r20_network.client[29] 	hdistance[29] 	2.8514474772539
scalar tree_4_3_u04_r20_network.client[29] 	downloads[29] 	12090
scalar tree_4_3_u04_r20_network.client[29] 	avg_time[29] 	0.00433593266
scalar tree_4_3_u04_r20_network.client[30] 	hdistance[30] 	2.8600118133491
scalar tree_4_3_u04_r20_network.client[30] 	downloads[30] 	11851
scalar tree_4_3_u04_r20_network.client[30] 	avg_time[30] 	0.004357604009
scalar tree_4_3_u04_r20_network.client[31] 	hdistance[31] 	2.8306390820002
scalar tree_4_3_u04_r20_network.client[31] 	downloads[31] 	11939
scalar tree_4_3_u04_r20_network.client[31] 	avg_time[31] 	0.004306734666
scalar tree_4_3_u04_r20_network.client[32] 	hdistance[32] 	2.8402197081489
scalar tree_4_3_u04_r20_network.client[32] 	downloads[32] 	12198
scalar tree_4_3_u04_r20_network.client[32] 	avg_time[32] 	0.004322508807
scalar tree_4_3_u04_r20_network.client[33] 	hdistance[33] 	2.8407453416149
scalar tree_4_3_u04_r20_network.client[33] 	downloads[33] 	12075
scalar tree_4_3_u04_r20_network.client[33] 	avg_time[33] 	0.004320493838
scalar tree_4_3_u04_r20_network.client[34] 	hdistance[34] 	2.8240354100551
scalar tree_4_3_u04_r20_network.client[34] 	downloads[34] 	11974
scalar tree_4_3_u04_r20_network.client[34] 	avg_time[34] 	0.004294134298
scalar tree_4_3_u04_r20_network.client[35] 	hdistance[35] 	2.8814863858313
scalar tree_4_3_u04_r20_network.client[35] 	downloads[35] 	12083
scalar tree_4_3_u04_r20_network.client[35] 	avg_time[35] 	0.004382517865
scalar tree_4_3_u04_r20_network.client[36] 	hdistance[36] 	2.8576582486061
scalar tree_4_3_u04_r20_network.client[36] 	downloads[36] 	12196
scalar tree_4_3_u04_r20_network.client[36] 	avg_time[36] 	0.004348799855
scalar tree_4_3_u04_r20_network.client[37] 	hdistance[37] 	2.8321090434215
scalar tree_4_3_u04_r20_network.client[37] 	downloads[37] 	12252
scalar tree_4_3_u04_r20_network.client[37] 	avg_time[37] 	0.004313928134
scalar tree_4_3_u04_r20_network.client[38] 	hdistance[38] 	2.8646133017431
scalar tree_4_3_u04_r20_network.client[38] 	downloads[38] 	11818
scalar tree_4_3_u04_r20_network.client[38] 	avg_time[38] 	0.004362664175
scalar tree_4_3_u04_r20_network.client[39] 	hdistance[39] 	2.8185433755903
scalar tree_4_3_u04_r20_network.client[39] 	downloads[39] 	12069
scalar tree_4_3_u04_r20_network.client[39] 	avg_time[39] 	0.00429413899
