version 2
run General-82-20160819-21:30:53-9589
attr a 0.9
attr cd fix0.01
attr configname General
attr cr lru
attr datetime 20160819-21:30:53
attr experiment General
attr fsize 1
attr inifile hw5115/scenario_A/SPR-FIX0.01.ini
attr iterationvars "$name=tree_4_3, $un=04, $rep=3, $cd=fix0.01, $cr=lru, $fsize=1, $a=0.9, $sl=spr, $ttl=1000, $variance=0.05"
attr iterationvars2 "$name=tree_4_3, $un=04, $rep=3, $cd=fix0.01, $cr=lru, $fsize=1, $a=0.9, $sl=spr, $ttl=1000, $variance=0.05, $repetition=0"
attr measurement "$name=tree_4_3, $un=04, $rep=3, $cd=fix0.01, $cr=lru, $fsize=1, $a=0.9, $sl=spr, $ttl=1000, $variance=0.05"
attr name tree_4_3
attr network networks.${name}_u${un}_r${rep}_network
attr processid 9589
attr rep 3
attr repetition 0
attr replication #0
attr resultdir results
attr runnumber 82
attr seedset 3
attr sl spr
attr ttl 1000
attr un 04
attr variance 0.05

scalar . 	a 	0.9
scalar . 	fsize 	1
scalar . 	rep 	3
scalar . 	ttl 	1000
scalar . 	un 	04
scalar . 	variance 	0.05
scalar tree_4_3_u04_r3_network.content_distribution 	repo-0 	0
scalar tree_4_3_u04_r3_network.content_distribution 	client-0 	13
scalar tree_4_3_u04_r3_network.content_distribution 	client-1 	14
scalar tree_4_3_u04_r3_network.content_distribution 	client-2 	15
scalar tree_4_3_u04_r3_network.content_distribution 	client-3 	16
scalar tree_4_3_u04_r3_network.content_distribution 	client-4 	17
scalar tree_4_3_u04_r3_network.content_distribution 	client-5 	18
scalar tree_4_3_u04_r3_network.content_distribution 	client-6 	19
scalar tree_4_3_u04_r3_network.content_distribution 	client-7 	20
scalar tree_4_3_u04_r3_network.content_distribution 	client-8 	21
scalar tree_4_3_u04_r3_network.content_distribution 	client-9 	22
scalar tree_4_3_u04_r3_network.content_distribution 	client-10 	23
scalar tree_4_3_u04_r3_network.content_distribution 	client-11 	24
scalar tree_4_3_u04_r3_network.content_distribution 	client-12 	25
scalar tree_4_3_u04_r3_network.content_distribution 	client-13 	26
scalar tree_4_3_u04_r3_network.content_distribution 	client-14 	27
scalar tree_4_3_u04_r3_network.content_distribution 	client-15 	28
scalar tree_4_3_u04_r3_network.content_distribution 	client-16 	29
scalar tree_4_3_u04_r3_network.content_distribution 	client-17 	30
scalar tree_4_3_u04_r3_network.content_distribution 	client-18 	31
scalar tree_4_3_u04_r3_network.content_distribution 	client-19 	32
scalar tree_4_3_u04_r3_network.content_distribution 	client-20 	33
scalar tree_4_3_u04_r3_network.content_distribution 	client-21 	34
scalar tree_4_3_u04_r3_network.content_distribution 	client-22 	35
scalar tree_4_3_u04_r3_network.content_distribution 	client-23 	36
scalar tree_4_3_u04_r3_network.content_distribution 	client-24 	37
scalar tree_4_3_u04_r3_network.content_distribution 	client-25 	38
scalar tree_4_3_u04_r3_network.content_distribution 	client-26 	39
scalar tree_4_3_u04_r3_network.content_distribution 	repo-0_card 	100000
scalar tree_4_3_u04_r3_network.content_distribution 	repo-0_price 	0
scalar tree_4_3_u04_r3_network.statistics 	stabilization_time 	2410.1
scalar tree_4_3_u04_r3_network.statistics 	p_hit 	0.17749624786297
scalar tree_4_3_u04_r3_network.statistics 	interests 	25662.275
scalar tree_4_3_u04_r3_network.statistics 	data 	17573.8
scalar tree_4_3_u04_r3_network.statistics 	hdistance 	2.8545423952495
scalar tree_4_3_u04_r3_network.statistics 	avg_time 	0.004345601519
scalar tree_4_3_u04_r3_network.statistics 	downloads 	323526
scalar tree_4_3_u04_r3_network.statistics 	total_cost 	0
scalar tree_4_3_u04_r3_network.statistics 	total_replicas 	100000
scalar tree_4_3_u04_r3_network.statistics 	inner_hit 	0.31831753862132
scalar tree_4_3_u04_r3_network.node[0].core_layer 	interests[0] 	225119
scalar tree_4_3_u04_r3_network.node[0].core_layer 	repo_load[0] 	220542
scalar tree_4_3_u04_r3_network.node[0].core_layer 	data[0] 	0
scalar tree_4_3_u04_r3_network.node[0].core_layer 	repo_int[0] 	220542
scalar tree_4_3_u04_r3_network.node[0].content_store 	p_hit[0] 	0.020331469134102
scalar tree_4_3_u04_r3_network.node[0].content_store 	hits[0] 	4577
scalar tree_4_3_u04_r3_network.node[0].content_store 	misses[0] 	220542
scalar tree_4_3_u04_r3_network.node[0].content_store 	decision_yes[0] 	2225
scalar tree_4_3_u04_r3_network.node[0].content_store 	decision_no[0] 	218317
scalar tree_4_3_u04_r3_network.node[0].content_store 	decision_ratio[0] 	0.010088781275222
scalar tree_4_3_u04_r3_network.node[1].core_layer 	interests[1] 	120089
scalar tree_4_3_u04_r3_network.node[1].core_layer 	data[1] 	117008
scalar tree_4_3_u04_r3_network.node[1].content_store 	p_hit[1] 	0.0256559718209
scalar tree_4_3_u04_r3_network.node[1].content_store 	hits[1] 	3081
scalar tree_4_3_u04_r3_network.node[1].content_store 	misses[1] 	117008
scalar tree_4_3_u04_r3_network.node[1].content_store 	decision_yes[1] 	1178
scalar tree_4_3_u04_r3_network.node[1].content_store 	decision_no[1] 	115830
scalar tree_4_3_u04_r3_network.node[1].content_store 	decision_ratio[1] 	0.010067687679475
scalar tree_4_3_u04_r3_network.node[2].core_layer 	interests[2] 	77413
scalar tree_4_3_u04_r3_network.node[2].core_layer 	data[2] 	74893
scalar tree_4_3_u04_r3_network.node[2].content_store 	p_hit[2] 	0.032513918850839
scalar tree_4_3_u04_r3_network.node[2].content_store 	hits[2] 	2517
scalar tree_4_3_u04_r3_network.node[2].content_store 	misses[2] 	74896
scalar tree_4_3_u04_r3_network.node[2].content_store 	decision_yes[2] 	755
scalar tree_4_3_u04_r3_network.node[2].content_store 	decision_no[2] 	74138
scalar tree_4_3_u04_r3_network.node[2].content_store 	decision_ratio[2] 	0.010081048963187
scalar tree_4_3_u04_r3_network.node[3].core_layer 	interests[3] 	34253
scalar tree_4_3_u04_r3_network.node[3].core_layer 	data[3] 	33219
scalar tree_4_3_u04_r3_network.node[3].content_store 	p_hit[3] 	0.030157942370011
scalar tree_4_3_u04_r3_network.node[3].content_store 	hits[3] 	1033
scalar tree_4_3_u04_r3_network.node[3].content_store 	misses[3] 	33220
scalar tree_4_3_u04_r3_network.node[3].content_store 	decision_yes[3] 	329
scalar tree_4_3_u04_r3_network.node[3].content_store 	decision_no[3] 	32890
scalar tree_4_3_u04_r3_network.node[3].content_store 	decision_ratio[3] 	0.0099039706192239
scalar tree_4_3_u04_r3_network.node[4].core_layer 	interests[4] 	45130
scalar tree_4_3_u04_r3_network.node[4].core_layer 	data[4] 	42551
scalar tree_4_3_u04_r3_network.node[4].content_store 	p_hit[4] 	0.057123864391757
scalar tree_4_3_u04_r3_network.node[4].content_store 	hits[4] 	2578
scalar tree_4_3_u04_r3_network.node[4].content_store 	misses[4] 	42552
scalar tree_4_3_u04_r3_network.node[4].content_store 	decision_yes[4] 	449
scalar tree_4_3_u04_r3_network.node[4].content_store 	decision_no[4] 	42102
scalar tree_4_3_u04_r3_network.node[4].content_store 	decision_ratio[4] 	0.010552043430237
scalar tree_4_3_u04_r3_network.node[5].core_layer 	interests[5] 	18319
scalar tree_4_3_u04_r3_network.node[5].core_layer 	data[5] 	17175
scalar tree_4_3_u04_r3_network.node[5].content_store 	p_hit[5] 	0.062394235493204
scalar tree_4_3_u04_r3_network.node[5].content_store 	hits[5] 	1143
scalar tree_4_3_u04_r3_network.node[5].content_store 	misses[5] 	17176
scalar tree_4_3_u04_r3_network.node[5].content_store 	decision_yes[5] 	168
scalar tree_4_3_u04_r3_network.node[5].content_store 	decision_no[5] 	17007
scalar tree_4_3_u04_r3_network.node[5].content_store 	decision_ratio[5] 	0.0097816593886463
scalar tree_4_3_u04_r3_network.node[6].core_layer 	interests[6] 	18286
scalar tree_4_3_u04_r3_network.node[6].core_layer 	data[6] 	17151
scalar tree_4_3_u04_r3_network.node[6].content_store 	p_hit[6] 	0.062124029312042
scalar tree_4_3_u04_r3_network.node[6].content_store 	hits[6] 	1136
scalar tree_4_3_u04_r3_network.node[6].content_store 	misses[6] 	17150
scalar tree_4_3_u04_r3_network.node[6].content_store 	decision_yes[6] 	173
scalar tree_4_3_u04_r3_network.node[6].content_store 	decision_no[6] 	16978
scalar tree_4_3_u04_r3_network.node[6].content_store 	decision_ratio[6] 	0.010086875400851
scalar tree_4_3_u04_r3_network.node[7].core_layer 	interests[7] 	27579
scalar tree_4_3_u04_r3_network.node[7].core_layer 	data[7] 	26075
scalar tree_4_3_u04_r3_network.node[7].content_store 	p_hit[7] 	0.054461728126473
scalar tree_4_3_u04_r3_network.node[7].content_store 	hits[7] 	1502
scalar tree_4_3_u04_r3_network.node[7].content_store 	misses[7] 	26077
scalar tree_4_3_u04_r3_network.node[7].content_store 	decision_yes[7] 	282
scalar tree_4_3_u04_r3_network.node[7].content_store 	decision_no[7] 	25793
scalar tree_4_3_u04_r3_network.node[7].content_store 	decision_ratio[7] 	0.010814956855225
scalar tree_4_3_u04_r3_network.node[8].core_layer 	interests[8] 	27383
scalar tree_4_3_u04_r3_network.node[8].core_layer 	data[8] 	25601
scalar tree_4_3_u04_r3_network.node[8].content_store 	p_hit[8] 	0.065076872512143
scalar tree_4_3_u04_r3_network.node[8].content_store 	hits[8] 	1782
scalar tree_4_3_u04_r3_network.node[8].content_store 	misses[8] 	25601
scalar tree_4_3_u04_r3_network.node[8].content_store 	decision_yes[8] 	250
scalar tree_4_3_u04_r3_network.node[8].content_store 	decision_no[8] 	25351
scalar tree_4_3_u04_r3_network.node[8].content_store 	decision_ratio[8] 	0.009765243545174
scalar tree_4_3_u04_r3_network.node[9].core_layer 	interests[9] 	27312
scalar tree_4_3_u04_r3_network.node[9].core_layer 	data[9] 	25735
scalar tree_4_3_u04_r3_network.node[9].content_store 	p_hit[9] 	0.057740187463386
scalar tree_4_3_u04_r3_network.node[9].content_store 	hits[9] 	1577
scalar tree_4_3_u04_r3_network.node[9].content_store 	misses[9] 	25735
scalar tree_4_3_u04_r3_network.node[9].content_store 	decision_yes[9] 	249
scalar tree_4_3_u04_r3_network.node[9].content_store 	decision_no[9] 	25486
scalar tree_4_3_u04_r3_network.node[9].content_store 	decision_ratio[9] 	0.0096755391490188
scalar tree_4_3_u04_r3_network.node[10].core_layer 	interests[10] 	45754
scalar tree_4_3_u04_r3_network.node[10].core_layer 	data[10] 	43211
scalar tree_4_3_u04_r3_network.node[10].content_store 	p_hit[10] 	0.055557984001399
scalar tree_4_3_u04_r3_network.node[10].content_store 	hits[10] 	2542
scalar tree_4_3_u04_r3_network.node[10].content_store 	misses[10] 	43212
scalar tree_4_3_u04_r3_network.node[10].content_store 	decision_yes[10] 	412
scalar tree_4_3_u04_r3_network.node[10].content_store 	decision_no[10] 	42799
scalar tree_4_3_u04_r3_network.node[10].content_store 	decision_ratio[10] 	0.0095346092430168
scalar tree_4_3_u04_r3_network.node[11].core_layer 	interests[11] 	17989
scalar tree_4_3_u04_r3_network.node[11].core_layer 	data[11] 	16990
scalar tree_4_3_u04_r3_network.node[11].content_store 	p_hit[11] 	0.055533937406193
scalar tree_4_3_u04_r3_network.node[11].content_store 	hits[11] 	999
scalar tree_4_3_u04_r3_network.node[11].content_store 	misses[11] 	16990
scalar tree_4_3_u04_r3_network.node[11].content_store 	decision_yes[11] 	173
scalar tree_4_3_u04_r3_network.node[11].content_store 	decision_no[11] 	16817
scalar tree_4_3_u04_r3_network.node[11].content_store 	decision_ratio[11] 	0.010182460270747
scalar tree_4_3_u04_r3_network.node[12].core_layer 	interests[12] 	18330
scalar tree_4_3_u04_r3_network.node[12].core_layer 	data[12] 	17263
scalar tree_4_3_u04_r3_network.node[12].content_store 	p_hit[12] 	0.058210583742499
scalar tree_4_3_u04_r3_network.node[12].content_store 	hits[12] 	1067
scalar tree_4_3_u04_r3_network.node[12].content_store 	misses[12] 	17263
scalar tree_4_3_u04_r3_network.node[12].content_store 	decision_yes[12] 	162
scalar tree_4_3_u04_r3_network.node[12].content_store 	decision_no[12] 	17101
scalar tree_4_3_u04_r3_network.node[12].content_store 	decision_ratio[12] 	0.0093842321728552
scalar tree_4_3_u04_r3_network.node[13].core_layer 	interests[13] 	11893
scalar tree_4_3_u04_r3_network.node[13].core_layer 	data[13] 	9214
scalar tree_4_3_u04_r3_network.node[13].content_store 	p_hit[13] 	0.22525855545279
scalar tree_4_3_u04_r3_network.node[13].content_store 	hits[13] 	2679
scalar tree_4_3_u04_r3_network.node[13].content_store 	misses[13] 	9214
scalar tree_4_3_u04_r3_network.node[13].content_store 	decision_yes[13] 	101
scalar tree_4_3_u04_r3_network.node[13].content_store 	decision_no[13] 	9113
scalar tree_4_3_u04_r3_network.node[13].content_store 	decision_ratio[13] 	0.010961580204037
scalar tree_4_3_u04_r3_network.node[14].core_layer 	interests[14] 	11762
scalar tree_4_3_u04_r3_network.node[14].core_layer 	data[14] 	8973
scalar tree_4_3_u04_r3_network.node[14].content_store 	p_hit[14] 	0.23711953749362
scalar tree_4_3_u04_r3_network.node[14].content_store 	hits[14] 	2789
scalar tree_4_3_u04_r3_network.node[14].content_store 	misses[14] 	8973
scalar tree_4_3_u04_r3_network.node[14].content_store 	decision_yes[14] 	85
scalar tree_4_3_u04_r3_network.node[14].content_store 	decision_no[14] 	8888
scalar tree_4_3_u04_r3_network.node[14].content_store 	decision_ratio[14] 	0.0094728630335451
scalar tree_4_3_u04_r3_network.node[15].core_layer 	interests[15] 	11856
scalar tree_4_3_u04_r3_network.node[15].core_layer 	data[15] 	8895
scalar tree_4_3_u04_r3_network.node[15].content_store 	p_hit[15] 	0.24974696356275
scalar tree_4_3_u04_r3_network.node[15].content_store 	hits[15] 	2961
scalar tree_4_3_u04_r3_network.node[15].content_store 	misses[15] 	8895
scalar tree_4_3_u04_r3_network.node[15].content_store 	decision_yes[15] 	94
scalar tree_4_3_u04_r3_network.node[15].content_store 	decision_no[15] 	8801
scalar tree_4_3_u04_r3_network.node[15].content_store 	decision_ratio[15] 	0.010567734682406
scalar tree_4_3_u04_r3_network.node[16].core_layer 	interests[16] 	11904
scalar tree_4_3_u04_r3_network.node[16].core_layer 	data[16] 	8928
scalar tree_4_3_u04_r3_network.node[16].content_store 	p_hit[16] 	0.24991599462366
scalar tree_4_3_u04_r3_network.node[16].content_store 	hits[16] 	2975
scalar tree_4_3_u04_r3_network.node[16].content_store 	misses[16] 	8929
scalar tree_4_3_u04_r3_network.node[16].content_store 	decision_yes[16] 	81
scalar tree_4_3_u04_r3_network.node[16].content_store 	decision_no[16] 	8847
scalar tree_4_3_u04_r3_network.node[16].content_store 	decision_ratio[16] 	0.0090725806451613
scalar tree_4_3_u04_r3_network.node[17].core_layer 	interests[17] 	12009
scalar tree_4_3_u04_r3_network.node[17].core_layer 	data[17] 	9255
scalar tree_4_3_u04_r3_network.node[17].content_store 	p_hit[17] 	0.229328003997
scalar tree_4_3_u04_r3_network.node[17].content_store 	hits[17] 	2754
scalar tree_4_3_u04_r3_network.node[17].content_store 	misses[17] 	9255
scalar tree_4_3_u04_r3_network.node[17].content_store 	decision_yes[17] 	90
scalar tree_4_3_u04_r3_network.node[17].content_store 	decision_no[17] 	9165
scalar tree_4_3_u04_r3_network.node[17].content_store 	decision_ratio[17] 	0.0097244732576985
scalar tree_4_3_u04_r3_network.node[18].core_layer 	interests[18] 	11977
scalar tree_4_3_u04_r3_network.node[18].core_layer 	data[18] 	9063
scalar tree_4_3_u04_r3_network.node[18].content_store 	p_hit[18] 	0.24321616431494
scalar tree_4_3_u04_r3_network.node[18].content_store 	hits[18] 	2913
scalar tree_4_3_u04_r3_network.node[18].content_store 	misses[18] 	9064
scalar tree_4_3_u04_r3_network.node[18].content_store 	decision_yes[18] 	96
scalar tree_4_3_u04_r3_network.node[18].content_store 	decision_no[18] 	8967
scalar tree_4_3_u04_r3_network.node[18].content_store 	decision_ratio[18] 	0.010592519033433
scalar tree_4_3_u04_r3_network.node[19].core_layer 	interests[19] 	11968
scalar tree_4_3_u04_r3_network.node[19].core_layer 	data[19] 	9119
scalar tree_4_3_u04_r3_network.node[19].content_store 	p_hit[19] 	0.2379679144385
scalar tree_4_3_u04_r3_network.node[19].content_store 	hits[19] 	2848
scalar tree_4_3_u04_r3_network.node[19].content_store 	misses[19] 	9120
scalar tree_4_3_u04_r3_network.node[19].content_store 	decision_yes[19] 	86
scalar tree_4_3_u04_r3_network.node[19].content_store 	decision_no[19] 	9033
scalar tree_4_3_u04_r3_network.node[19].content_store 	decision_ratio[19] 	0.0094308586467814
scalar tree_4_3_u04_r3_network.node[20].core_layer 	interests[20] 	11906
scalar tree_4_3_u04_r3_network.node[20].core_layer 	data[20] 	9079
scalar tree_4_3_u04_r3_network.node[20].content_store 	p_hit[20] 	0.23744330589619
scalar tree_4_3_u04_r3_network.node[20].content_store 	hits[20] 	2827
scalar tree_4_3_u04_r3_network.node[20].content_store 	misses[20] 	9079
scalar tree_4_3_u04_r3_network.node[20].content_store 	decision_yes[20] 	100
scalar tree_4_3_u04_r3_network.node[20].content_store 	decision_no[20] 	8979
scalar tree_4_3_u04_r3_network.node[20].content_store 	decision_ratio[20] 	0.011014428901861
scalar tree_4_3_u04_r3_network.node[21].core_layer 	interests[21] 	12015
scalar tree_4_3_u04_r3_network.node[21].core_layer 	data[21] 	9208
scalar tree_4_3_u04_r3_network.node[21].content_store 	p_hit[21] 	0.23370786516854
scalar tree_4_3_u04_r3_network.node[21].content_store 	hits[21] 	2808
scalar tree_4_3_u04_r3_network.node[21].content_store 	misses[21] 	9207
scalar tree_4_3_u04_r3_network.node[21].content_store 	decision_yes[21] 	100
scalar tree_4_3_u04_r3_network.node[21].content_store 	decision_no[21] 	9108
scalar tree_4_3_u04_r3_network.node[21].content_store 	decision_ratio[21] 	0.010860121633362
scalar tree_4_3_u04_r3_network.node[22].core_layer 	interests[22] 	12087
scalar tree_4_3_u04_r3_network.node[22].core_layer 	data[22] 	9179
scalar tree_4_3_u04_r3_network.node[22].content_store 	p_hit[22] 	0.24050632911392
scalar tree_4_3_u04_r3_network.node[22].content_store 	hits[22] 	2907
scalar tree_4_3_u04_r3_network.node[22].content_store 	misses[22] 	9180
scalar tree_4_3_u04_r3_network.node[22].content_store 	decision_yes[22] 	96
scalar tree_4_3_u04_r3_network.node[22].content_store 	decision_no[22] 	9083
scalar tree_4_3_u04_r3_network.node[22].content_store 	decision_ratio[22] 	0.010458655626975
scalar tree_4_3_u04_r3_network.node[23].core_layer 	interests[23] 	12127
scalar tree_4_3_u04_r3_network.node[23].core_layer 	data[23] 	9182
scalar tree_4_3_u04_r3_network.node[23].content_store 	p_hit[23] 	0.24276408015173
scalar tree_4_3_u04_r3_network.node[23].content_store 	hits[23] 	2944
scalar tree_4_3_u04_r3_network.node[23].content_store 	misses[23] 	9183
scalar tree_4_3_u04_r3_network.node[23].content_store 	decision_yes[23] 	92
scalar tree_4_3_u04_r3_network.node[23].content_store 	decision_no[23] 	9090
scalar tree_4_3_u04_r3_network.node[23].content_store 	decision_ratio[23] 	0.010019603572206
scalar tree_4_3_u04_r3_network.node[24].core_layer 	interests[24] 	12159
scalar tree_4_3_u04_r3_network.node[24].core_layer 	data[24] 	9216
scalar tree_4_3_u04_r3_network.node[24].content_store 	p_hit[24] 	0.24196068755654
scalar tree_4_3_u04_r3_network.node[24].content_store 	hits[24] 	2942
scalar tree_4_3_u04_r3_network.node[24].content_store 	misses[24] 	9217
scalar tree_4_3_u04_r3_network.node[24].content_store 	decision_yes[24] 	99
scalar tree_4_3_u04_r3_network.node[24].content_store 	decision_no[24] 	9117
scalar tree_4_3_u04_r3_network.node[24].content_store 	decision_ratio[24] 	0.0107421875
scalar tree_4_3_u04_r3_network.node[25].core_layer 	interests[25] 	11917
scalar tree_4_3_u04_r3_network.node[25].core_layer 	data[25] 	8989
scalar tree_4_3_u04_r3_network.node[25].content_store 	p_hit[25] 	0.24569942099522
scalar tree_4_3_u04_r3_network.node[25].content_store 	hits[25] 	2928
scalar tree_4_3_u04_r3_network.node[25].content_store 	misses[25] 	8989
scalar tree_4_3_u04_r3_network.node[25].content_store 	decision_yes[25] 	110
scalar tree_4_3_u04_r3_network.node[25].content_store 	decision_no[25] 	8879
scalar tree_4_3_u04_r3_network.node[25].content_store 	decision_ratio[25] 	0.012237178774057
scalar tree_4_3_u04_r3_network.node[26].core_layer 	interests[26] 	12129
scalar tree_4_3_u04_r3_network.node[26].core_layer 	data[26] 	9195
scalar tree_4_3_u04_r3_network.node[26].content_store 	p_hit[26] 	0.24189957952016
scalar tree_4_3_u04_r3_network.node[26].content_store 	hits[26] 	2934
scalar tree_4_3_u04_r3_network.node[26].content_store 	misses[26] 	9195
scalar tree_4_3_u04_r3_network.node[26].content_store 	decision_yes[26] 	97
scalar tree_4_3_u04_r3_network.node[26].content_store 	decision_no[26] 	9098
scalar tree_4_3_u04_r3_network.node[26].content_store 	decision_ratio[26] 	0.010549211528004
scalar tree_4_3_u04_r3_network.node[27].core_layer 	interests[27] 	12002
scalar tree_4_3_u04_r3_network.node[27].core_layer 	data[27] 	9199
scalar tree_4_3_u04_r3_network.node[27].content_store 	p_hit[27] 	0.23354440926512
scalar tree_4_3_u04_r3_network.node[27].content_store 	hits[27] 	2803
scalar tree_4_3_u04_r3_network.node[27].content_store 	misses[27] 	9199
scalar tree_4_3_u04_r3_network.node[27].content_store 	decision_yes[27] 	88
scalar tree_4_3_u04_r3_network.node[27].content_store 	decision_no[27] 	9111
scalar tree_4_3_u04_r3_network.node[27].content_store 	decision_ratio[27] 	0.0095662572018698
scalar tree_4_3_u04_r3_network.node[28].core_layer 	interests[28] 	11997
scalar tree_4_3_u04_r3_network.node[28].core_layer 	data[28] 	9064
scalar tree_4_3_u04_r3_network.node[28].content_store 	p_hit[28] 	0.24439443194132
scalar tree_4_3_u04_r3_network.node[28].content_store 	hits[28] 	2932
scalar tree_4_3_u04_r3_network.node[28].content_store 	misses[28] 	9065
scalar tree_4_3_u04_r3_network.node[28].content_store 	decision_yes[28] 	80
scalar tree_4_3_u04_r3_network.node[28].content_store 	decision_no[28] 	8984
scalar tree_4_3_u04_r3_network.node[28].content_store 	decision_ratio[28] 	0.0088261253309797
scalar tree_4_3_u04_r3_network.node[29].core_layer 	interests[29] 	11914
scalar tree_4_3_u04_r3_network.node[29].core_layer 	data[29] 	9220
scalar tree_4_3_u04_r3_network.node[29].content_store 	p_hit[29] 	0.22603659560181
scalar tree_4_3_u04_r3_network.node[29].content_store 	hits[29] 	2693
scalar tree_4_3_u04_r3_network.node[29].content_store 	misses[29] 	9221
scalar tree_4_3_u04_r3_network.node[29].content_store 	decision_yes[29] 	103
scalar tree_4_3_u04_r3_network.node[29].content_store 	decision_no[29] 	9117
scalar tree_4_3_u04_r3_network.node[29].content_store 	decision_ratio[29] 	0.01117136659436
scalar tree_4_3_u04_r3_network.node[30].core_layer 	interests[30] 	11994
scalar tree_4_3_u04_r3_network.node[30].core_layer 	data[30] 	9028
scalar tree_4_3_u04_r3_network.node[30].content_store 	p_hit[30] 	0.24729031182258
scalar tree_4_3_u04_r3_network.node[30].content_store 	hits[30] 	2966
scalar tree_4_3_u04_r3_network.node[30].content_store 	misses[30] 	9028
scalar tree_4_3_u04_r3_network.node[30].content_store 	decision_yes[30] 	88
scalar tree_4_3_u04_r3_network.node[30].content_store 	decision_no[30] 	8940
scalar tree_4_3_u04_r3_network.node[30].content_store 	decision_ratio[30] 	0.0097474523704032
scalar tree_4_3_u04_r3_network.node[31].core_layer 	interests[31] 	12045
scalar tree_4_3_u04_r3_network.node[31].core_layer 	data[31] 	9188
scalar tree_4_3_u04_r3_network.node[31].content_store 	p_hit[31] 	0.23719385637194
scalar tree_4_3_u04_r3_network.node[31].content_store 	hits[31] 	2857
scalar tree_4_3_u04_r3_network.node[31].content_store 	misses[31] 	9188
scalar tree_4_3_u04_r3_network.node[31].content_store 	decision_yes[31] 	89
scalar tree_4_3_u04_r3_network.node[31].content_store 	decision_no[31] 	9099
scalar tree_4_3_u04_r3_network.node[31].content_store 	decision_ratio[31] 	0.0096865476708751
scalar tree_4_3_u04_r3_network.node[32].core_layer 	interests[32] 	11998
scalar tree_4_3_u04_r3_network.node[32].core_layer 	data[32] 	9286
scalar tree_4_3_u04_r3_network.node[32].content_store 	p_hit[32] 	0.22603767294549
scalar tree_4_3_u04_r3_network.node[32].content_store 	hits[32] 	2712
scalar tree_4_3_u04_r3_network.node[32].content_store 	misses[32] 	9286
scalar tree_4_3_u04_r3_network.node[32].content_store 	decision_yes[32] 	80
scalar tree_4_3_u04_r3_network.node[32].content_store 	decision_no[32] 	9206
scalar tree_4_3_u04_r3_network.node[32].content_store 	decision_ratio[32] 	0.0086151195347835
scalar tree_4_3_u04_r3_network.node[33].core_layer 	interests[33] 	11883
scalar tree_4_3_u04_r3_network.node[33].core_layer 	data[33] 	9051
scalar tree_4_3_u04_r3_network.node[33].content_store 	p_hit[33] 	0.23832365564251
scalar tree_4_3_u04_r3_network.node[33].content_store 	hits[33] 	2832
scalar tree_4_3_u04_r3_network.node[33].content_store 	misses[33] 	9051
scalar tree_4_3_u04_r3_network.node[33].content_store 	decision_yes[33] 	96
scalar tree_4_3_u04_r3_network.node[33].content_store 	decision_no[33] 	8955
scalar tree_4_3_u04_r3_network.node[33].content_store 	decision_ratio[33] 	0.010606562810739
scalar tree_4_3_u04_r3_network.node[34].core_layer 	interests[34] 	12112
scalar tree_4_3_u04_r3_network.node[34].core_layer 	data[34] 	9183
scalar tree_4_3_u04_r3_network.node[34].content_store 	p_hit[34] 	0.24190885072655
scalar tree_4_3_u04_r3_network.node[34].content_store 	hits[34] 	2930
scalar tree_4_3_u04_r3_network.node[34].content_store 	misses[34] 	9182
scalar tree_4_3_u04_r3_network.node[34].content_store 	decision_yes[34] 	88
scalar tree_4_3_u04_r3_network.node[34].content_store 	decision_no[34] 	9095
scalar tree_4_3_u04_r3_network.node[34].content_store 	decision_ratio[34] 	0.0095829249700534
scalar tree_4_3_u04_r3_network.node[35].core_layer 	interests[35] 	11852
scalar tree_4_3_u04_r3_network.node[35].core_layer 	data[35] 	8942
scalar tree_4_3_u04_r3_network.node[35].content_store 	p_hit[35] 	0.24552818089774
scalar tree_4_3_u04_r3_network.node[35].content_store 	hits[35] 	2910
scalar tree_4_3_u04_r3_network.node[35].content_store 	misses[35] 	8942
scalar tree_4_3_u04_r3_network.node[35].content_store 	decision_yes[35] 	100
scalar tree_4_3_u04_r3_network.node[35].content_store 	decision_no[35] 	8842
scalar tree_4_3_u04_r3_network.node[35].content_store 	decision_ratio[35] 	0.011183180496533
scalar tree_4_3_u04_r3_network.node[36].core_layer 	interests[36] 	11968
scalar tree_4_3_u04_r3_network.node[36].core_layer 	data[36] 	9047
scalar tree_4_3_u04_r3_network.node[36].content_store 	p_hit[36] 	0.24406751336898
scalar tree_4_3_u04_r3_network.node[36].content_store 	hits[36] 	2921
scalar tree_4_3_u04_r3_network.node[36].content_store 	misses[36] 	9047
scalar tree_4_3_u04_r3_network.node[36].content_store 	decision_yes[36] 	99
scalar tree_4_3_u04_r3_network.node[36].content_store 	decision_no[36] 	8948
scalar tree_4_3_u04_r3_network.node[36].content_store 	decision_ratio[36] 	0.010942853984746
scalar tree_4_3_u04_r3_network.node[37].core_layer 	interests[37] 	11856
scalar tree_4_3_u04_r3_network.node[37].core_layer 	data[37] 	9047
scalar tree_4_3_u04_r3_network.node[37].content_store 	p_hit[37] 	0.23684210526316
scalar tree_4_3_u04_r3_network.node[37].content_store 	hits[37] 	2808
scalar tree_4_3_u04_r3_network.node[37].content_store 	misses[37] 	9048
scalar tree_4_3_u04_r3_network.node[37].content_store 	decision_yes[37] 	106
scalar tree_4_3_u04_r3_network.node[37].content_store 	decision_no[37] 	8941
scalar tree_4_3_u04_r3_network.node[37].content_store 	decision_ratio[37] 	0.011716591135183
scalar tree_4_3_u04_r3_network.node[38].core_layer 	interests[38] 	12094
scalar tree_4_3_u04_r3_network.node[38].core_layer 	data[38] 	9214
scalar tree_4_3_u04_r3_network.node[38].content_store 	p_hit[38] 	0.23805192657516
scalar tree_4_3_u04_r3_network.node[38].content_store 	hits[38] 	2879
scalar tree_4_3_u04_r3_network.node[38].content_store 	misses[38] 	9215
scalar tree_4_3_u04_r3_network.node[38].content_store 	decision_yes[38] 	91
scalar tree_4_3_u04_r3_network.node[38].content_store 	decision_no[38] 	9123
scalar tree_4_3_u04_r3_network.node[38].content_store 	decision_ratio[38] 	0.0098762752333406
scalar tree_4_3_u04_r3_network.node[39].core_layer 	interests[39] 	12111
scalar tree_4_3_u04_r3_network.node[39].core_layer 	data[39] 	9116
scalar tree_4_3_u04_r3_network.node[39].content_store 	p_hit[39] 	0.24721327718603
scalar tree_4_3_u04_r3_network.node[39].content_store 	hits[39] 	2994
scalar tree_4_3_u04_r3_network.node[39].content_store 	misses[39] 	9117
scalar tree_4_3_u04_r3_network.node[39].content_store 	decision_yes[39] 	74
scalar tree_4_3_u04_r3_network.node[39].content_store 	decision_no[39] 	9042
scalar tree_4_3_u04_r3_network.node[39].content_store 	decision_ratio[39] 	0.008117595436595
scalar tree_4_3_u04_r3_network.client[13] 	hdistance[13] 	2.8782477087362
scalar tree_4_3_u04_r3_network.client[13] 	downloads[13] 	11893
scalar tree_4_3_u04_r3_network.client[13] 	avg_time[13] 	0.004389301661
scalar tree_4_3_u04_r3_network.client[14] 	hdistance[14] 	2.8649039279034
scalar tree_4_3_u04_r3_network.client[14] 	downloads[14] 	11762
scalar tree_4_3_u04_r3_network.client[14] 	avg_time[14] 	0.004362180344
scalar tree_4_3_u04_r3_network.client[15] 	hdistance[15] 	2.8291160593792
scalar tree_4_3_u04_r3_network.client[15] 	downloads[15] 	11856
scalar tree_4_3_u04_r3_network.client[15] 	avg_time[15] 	0.004306171101
scalar tree_4_3_u04_r3_network.client[16] 	hdistance[16] 	2.8390321767622
scalar tree_4_3_u04_r3_network.client[16] 	downloads[16] 	11903
scalar tree_4_3_u04_r3_network.client[16] 	avg_time[16] 	0.004316779244
scalar tree_4_3_u04_r3_network.client[17] 	hdistance[17] 	2.8707635939712
scalar tree_4_3_u04_r3_network.client[17] 	downloads[17] 	12009
scalar tree_4_3_u04_r3_network.client[17] 	avg_time[17] 	0.004376048245
scalar tree_4_3_u04_r3_network.client[18] 	hdistance[18] 	2.8527889111556
scalar tree_4_3_u04_r3_network.client[18] 	downloads[18] 	11976
scalar tree_4_3_u04_r3_network.client[18] 	avg_time[18] 	0.004338340356
scalar tree_4_3_u04_r3_network.client[19] 	hdistance[19] 	2.8700593298237
scalar tree_4_3_u04_r3_network.client[19] 	downloads[19] 	11967
scalar tree_4_3_u04_r3_network.client[19] 	avg_time[19] 	0.004363997988
scalar tree_4_3_u04_r3_network.client[20] 	hdistance[20] 	2.8780446833529
scalar tree_4_3_u04_r3_network.client[20] 	downloads[20] 	11906
scalar tree_4_3_u04_r3_network.client[20] 	avg_time[20] 	0.004377117828
scalar tree_4_3_u04_r3_network.client[21] 	hdistance[21] 	2.853861517976
scalar tree_4_3_u04_r3_network.client[21] 	downloads[21] 	12016
scalar tree_4_3_u04_r3_network.client[21] 	avg_time[21] 	0.004348532251
scalar tree_4_3_u04_r3_network.client[22] 	hdistance[22] 	2.8526394175079
scalar tree_4_3_u04_r3_network.client[22] 	downloads[22] 	12086
scalar tree_4_3_u04_r3_network.client[22] 	avg_time[22] 	0.004343369493
scalar tree_4_3_u04_r3_network.client[23] 	hdistance[23] 	2.8428170872505
scalar tree_4_3_u04_r3_network.client[23] 	downloads[23] 	12126
scalar tree_4_3_u04_r3_network.client[23] 	avg_time[23] 	0.004331719547
scalar tree_4_3_u04_r3_network.client[24] 	hdistance[24] 	2.8371442671492
scalar tree_4_3_u04_r3_network.client[24] 	downloads[24] 	12158
scalar tree_4_3_u04_r3_network.client[24] 	avg_time[24] 	0.004325516591
scalar tree_4_3_u04_r3_network.client[25] 	hdistance[25] 	2.8365360409499
scalar tree_4_3_u04_r3_network.client[25] 	downloads[25] 	11917
scalar tree_4_3_u04_r3_network.client[25] 	avg_time[25] 	0.004312659603
scalar tree_4_3_u04_r3_network.client[26] 	hdistance[26] 	2.823893148652
scalar tree_4_3_u04_r3_network.client[26] 	downloads[26] 	12129
scalar tree_4_3_u04_r3_network.client[26] 	avg_time[26] 	0.004299774374
scalar tree_4_3_u04_r3_network.client[27] 	hdistance[27] 	2.8511081486419
scalar tree_4_3_u04_r3_network.client[27] 	downloads[27] 	12002
scalar tree_4_3_u04_r3_network.client[27] 	avg_time[27] 	0.00434393967
scalar tree_4_3_u04_r3_network.client[28] 	hdistance[28] 	2.8384461487162
scalar tree_4_3_u04_r3_network.client[28] 	downloads[28] 	11996
scalar tree_4_3_u04_r3_network.client[28] 	avg_time[28] 	0.004323504804
scalar tree_4_3_u04_r3_network.client[29] 	hdistance[29] 	2.8725761772853
scalar tree_4_3_u04_r3_network.client[29] 	downloads[29] 	11913
scalar tree_4_3_u04_r3_network.client[29] 	avg_time[29] 	0.004381505666
scalar tree_4_3_u04_r3_network.client[30] 	hdistance[30] 	2.8359179589795
scalar tree_4_3_u04_r3_network.client[30] 	downloads[30] 	11994
scalar tree_4_3_u04_r3_network.client[30] 	avg_time[30] 	0.004318156117
scalar tree_4_3_u04_r3_network.client[31] 	hdistance[31] 	2.8747198007472
scalar tree_4_3_u04_r3_network.client[31] 	downloads[31] 	12045
scalar tree_4_3_u04_r3_network.client[31] 	avg_time[31] 	0.004371912562
scalar tree_4_3_u04_r3_network.client[32] 	hdistance[32] 	2.9049008168028
scalar tree_4_3_u04_r3_network.client[32] 	downloads[32] 	11998
scalar tree_4_3_u04_r3_network.client[32] 	avg_time[32] 	0.004419566933
scalar tree_4_3_u04_r3_network.client[33] 	hdistance[33] 	2.8752840191871
scalar tree_4_3_u04_r3_network.client[33] 	downloads[33] 	11883
scalar tree_4_3_u04_r3_network.client[33] 	avg_time[33] 	0.004375828057
scalar tree_4_3_u04_r3_network.client[34] 	hdistance[34] 	2.8597374721374
scalar tree_4_3_u04_r3_network.client[34] 	downloads[34] 	12113
scalar tree_4_3_u04_r3_network.client[34] 	avg_time[34] 	0.004350199218
scalar tree_4_3_u04_r3_network.client[35] 	hdistance[35] 	2.8444988187648
scalar tree_4_3_u04_r3_network.client[35] 	downloads[35] 	11852
scalar tree_4_3_u04_r3_network.client[35] 	avg_time[35] 	0.004324330485
scalar tree_4_3_u04_r3_network.client[36] 	hdistance[36] 	2.8350601604278
scalar tree_4_3_u04_r3_network.client[36] 	downloads[36] 	11968
scalar tree_4_3_u04_r3_network.client[36] 	avg_time[36] 	0.00431634063
scalar tree_4_3_u04_r3_network.client[37] 	hdistance[37] 	2.8689160691691
scalar tree_4_3_u04_r3_network.client[37] 	downloads[37] 	11855
scalar tree_4_3_u04_r3_network.client[37] 	avg_time[37] 	0.00436505779
scalar tree_4_3_u04_r3_network.client[38] 	hdistance[38] 	2.8561151079137
scalar tree_4_3_u04_r3_network.client[38] 	downloads[38] 	12093
scalar tree_4_3_u04_r3_network.client[38] 	avg_time[38] 	0.004350506614
scalar tree_4_3_u04_r3_network.client[39] 	hdistance[39] 	2.8255161023947
scalar tree_4_3_u04_r3_network.client[39] 	downloads[39] 	12110
scalar tree_4_3_u04_r3_network.client[39] 	avg_time[39] 	0.004298883857
