version 2
run General-99-20160819-03:06:41-14109
attr a 0.9
attr cd fix0.01
attr configname General
attr cr lru
attr datetime 20160819-03:06:41
attr experiment General
attr fsize 1
attr inifile hw5115/scenario_A/NRR-FIX0.01.ini
attr iterationvars "$name=tree_4_3, $un=04, $rep=20, $cd=fix0.01, $cr=lru, $fsize=1, $a=0.9, $sl=nrr, $ttl=1000, $variance=0.05"
attr iterationvars2 "$name=tree_4_3, $un=04, $rep=20, $cd=fix0.01, $cr=lru, $fsize=1, $a=0.9, $sl=nrr, $ttl=1000, $variance=0.05, $repetition=0"
attr measurement "$name=tree_4_3, $un=04, $rep=20, $cd=fix0.01, $cr=lru, $fsize=1, $a=0.9, $sl=nrr, $ttl=1000, $variance=0.05"
attr name tree_4_3
attr network networks.${name}_u${un}_r${rep}_network
attr processid 14109
attr rep 20
attr repetition 0
attr replication #0
attr resultdir results
attr runnumber 99
attr seedset 20
attr sl nrr
attr ttl 1000
attr un 04
attr variance 0.05

scalar . 	a 	0.9
scalar . 	fsize 	1
scalar . 	rep 	20
scalar . 	ttl 	1000
scalar . 	un 	04
scalar . 	variance 	0.05
scalar tree_4_3_u04_r20_network.content_distribution 	repo-0 	0
scalar tree_4_3_u04_r20_network.content_distribution 	client-0 	13
scalar tree_4_3_u04_r20_network.content_distribution 	client-1 	14
scalar tree_4_3_u04_r20_network.content_distribution 	client-2 	15
scalar tree_4_3_u04_r20_network.content_distribution 	client-3 	16
scalar tree_4_3_u04_r20_network.content_distribution 	client-4 	17
scalar tree_4_3_u04_r20_network.content_distribution 	client-5 	18
scalar tree_4_3_u04_r20_network.content_distribution 	client-6 	19
scalar tree_4_3_u04_r20_network.content_distribution 	client-7 	20
scalar tree_4_3_u04_r20_network.content_distribution 	client-8 	21
scalar tree_4_3_u04_r20_network.content_distribution 	client-9 	22
scalar tree_4_3_u04_r20_network.content_distribution 	client-10 	23
scalar tree_4_3_u04_r20_network.content_distribution 	client-11 	24
scalar tree_4_3_u04_r20_network.content_distribution 	client-12 	25
scalar tree_4_3_u04_r20_network.content_distribution 	client-13 	26
scalar tree_4_3_u04_r20_network.content_distribution 	client-14 	27
scalar tree_4_3_u04_r20_network.content_distribution 	client-15 	28
scalar tree_4_3_u04_r20_network.content_distribution 	client-16 	29
scalar tree_4_3_u04_r20_network.content_distribution 	client-17 	30
scalar tree_4_3_u04_r20_network.content_distribution 	client-18 	31
scalar tree_4_3_u04_r20_network.content_distribution 	client-19 	32
scalar tree_4_3_u04_r20_network.content_distribution 	client-20 	33
scalar tree_4_3_u04_r20_network.content_distribution 	client-21 	34
scalar tree_4_3_u04_r20_network.content_distribution 	client-22 	35
scalar tree_4_3_u04_r20_network.content_distribution 	client-23 	36
scalar tree_4_3_u04_r20_network.content_distribution 	client-24 	37
scalar tree_4_3_u04_r20_network.content_distribution 	client-25 	38
scalar tree_4_3_u04_r20_network.content_distribution 	client-26 	39
scalar tree_4_3_u04_r20_network.content_distribution 	repo-0_card 	100000
scalar tree_4_3_u04_r20_network.content_distribution 	repo-0_price 	0
scalar tree_4_3_u04_r20_network.statistics 	stabilization_time 	1626.5
scalar tree_4_3_u04_r20_network.statistics 	p_hit 	0.2223742208805
scalar tree_4_3_u04_r20_network.statistics 	interests 	25560.45
scalar tree_4_3_u04_r20_network.statistics 	data 	17447.825
scalar tree_4_3_u04_r20_network.statistics 	hdistance 	2.7338715889901
scalar tree_4_3_u04_r20_network.statistics 	avg_time 	0.004301350491
scalar tree_4_3_u04_r20_network.statistics 	downloads 	324491
scalar tree_4_3_u04_r20_network.statistics 	total_cost 	0
scalar tree_4_3_u04_r20_network.statistics 	total_replicas 	100000
scalar tree_4_3_u04_r20_network.statistics 	inner_hit 	0.41692373594337
scalar tree_4_3_u04_r20_network.node[0].core_layer 	interests[0] 	190842
scalar tree_4_3_u04_r20_network.node[0].core_layer 	repo_load[0] 	189203
scalar tree_4_3_u04_r20_network.node[0].core_layer 	data[0] 	0
scalar tree_4_3_u04_r20_network.node[0].core_layer 	repo_int[0] 	189203
scalar tree_4_3_u04_r20_network.node[0].content_store 	p_hit[0] 	0.0085882562538645
scalar tree_4_3_u04_r20_network.node[0].content_store 	hits[0] 	1639
scalar tree_4_3_u04_r20_network.node[0].content_store 	misses[0] 	189203
scalar tree_4_3_u04_r20_network.node[0].content_store 	decision_yes[0] 	1843
scalar tree_4_3_u04_r20_network.node[0].content_store 	decision_no[0] 	187360
scalar tree_4_3_u04_r20_network.node[0].content_store 	decision_ratio[0] 	0.0097408603457662
scalar tree_4_3_u04_r20_network.node[1].core_layer 	interests[1] 	70996
scalar tree_4_3_u04_r20_network.node[1].core_layer 	data[1] 	69635
scalar tree_4_3_u04_r20_network.node[1].content_store 	p_hit[1] 	0.019156008789228
scalar tree_4_3_u04_r20_network.node[1].content_store 	hits[1] 	1360
scalar tree_4_3_u04_r20_network.node[1].content_store 	misses[1] 	69636
scalar tree_4_3_u04_r20_network.node[1].content_store 	decision_yes[1] 	766
scalar tree_4_3_u04_r20_network.node[1].content_store 	decision_no[1] 	68869
scalar tree_4_3_u04_r20_network.node[1].content_store 	decision_ratio[1] 	0.011000215408918
scalar tree_4_3_u04_r20_network.node[2].core_layer 	interests[2] 	92533
scalar tree_4_3_u04_r20_network.node[2].core_layer 	data[2] 	90782
scalar tree_4_3_u04_r20_network.node[2].content_store 	p_hit[2] 	0.018901364918462
scalar tree_4_3_u04_r20_network.node[2].content_store 	hits[2] 	1749
scalar tree_4_3_u04_r20_network.node[2].content_store 	misses[2] 	90784
scalar tree_4_3_u04_r20_network.node[2].content_store 	decision_yes[2] 	875
scalar tree_4_3_u04_r20_network.node[2].content_store 	decision_no[2] 	89907
scalar tree_4_3_u04_r20_network.node[2].content_store 	decision_ratio[2] 	0.0096384745874733
scalar tree_4_3_u04_r20_network.node[3].core_layer 	interests[3] 	48365
scalar tree_4_3_u04_r20_network.node[3].core_layer 	data[3] 	46727
scalar tree_4_3_u04_r20_network.node[3].content_store 	p_hit[3] 	0.033867466142872
scalar tree_4_3_u04_r20_network.node[3].content_store 	hits[3] 	1638
scalar tree_4_3_u04_r20_network.node[3].content_store 	misses[3] 	46727
scalar tree_4_3_u04_r20_network.node[3].content_store 	decision_yes[3] 	505
scalar tree_4_3_u04_r20_network.node[3].content_store 	decision_no[3] 	46222
scalar tree_4_3_u04_r20_network.node[3].content_store 	decision_ratio[3] 	0.010807456074646
scalar tree_4_3_u04_r20_network.node[4].core_layer 	interests[4] 	29518
scalar tree_4_3_u04_r20_network.node[4].core_layer 	data[4] 	26816
scalar tree_4_3_u04_r20_network.node[4].content_store 	p_hit[4] 	0.091469611762315
scalar tree_4_3_u04_r20_network.node[4].content_store 	hits[4] 	2700
scalar tree_4_3_u04_r20_network.node[4].content_store 	misses[4] 	26818
scalar tree_4_3_u04_r20_network.node[4].content_store 	decision_yes[4] 	251
scalar tree_4_3_u04_r20_network.node[4].content_store 	decision_no[4] 	26565
scalar tree_4_3_u04_r20_network.node[4].content_store 	decision_ratio[4] 	0.0093600835322196
scalar tree_4_3_u04_r20_network.node[5].core_layer 	interests[5] 	37382
scalar tree_4_3_u04_r20_network.node[5].core_layer 	data[5] 	34338
scalar tree_4_3_u04_r20_network.node[5].content_store 	p_hit[5] 	0.081429565031298
scalar tree_4_3_u04_r20_network.node[5].content_store 	hits[5] 	3044
scalar tree_4_3_u04_r20_network.node[5].content_store 	misses[5] 	34338
scalar tree_4_3_u04_r20_network.node[5].content_store 	decision_yes[5] 	317
scalar tree_4_3_u04_r20_network.node[5].content_store 	decision_no[5] 	34021
scalar tree_4_3_u04_r20_network.node[5].content_store 	decision_ratio[5] 	0.0092317549071
scalar tree_4_3_u04_r20_network.node[6].core_layer 	interests[6] 	21610
scalar tree_4_3_u04_r20_network.node[6].core_layer 	data[6] 	18382
scalar tree_4_3_u04_r20_network.node[6].content_store 	p_hit[6] 	0.14937528921795
scalar tree_4_3_u04_r20_network.node[6].content_store 	hits[6] 	3228
scalar tree_4_3_u04_r20_network.node[6].content_store 	misses[6] 	18382
scalar tree_4_3_u04_r20_network.node[6].content_store 	decision_yes[6] 	182
scalar tree_4_3_u04_r20_network.node[6].content_store 	decision_no[6] 	18200
scalar tree_4_3_u04_r20_network.node[6].content_store 	decision_ratio[6] 	0.0099009900990099
scalar tree_4_3_u04_r20_network.node[7].core_layer 	interests[7] 	46605
scalar tree_4_3_u04_r20_network.node[7].core_layer 	data[7] 	43050
scalar tree_4_3_u04_r20_network.node[7].content_store 	p_hit[7] 	0.076257912241176
scalar tree_4_3_u04_r20_network.node[7].content_store 	hits[7] 	3554
scalar tree_4_3_u04_r20_network.node[7].content_store 	misses[7] 	43051
scalar tree_4_3_u04_r20_network.node[7].content_store 	decision_yes[7] 	435
scalar tree_4_3_u04_r20_network.node[7].content_store 	decision_no[7] 	42615
scalar tree_4_3_u04_r20_network.node[7].content_store 	decision_ratio[7] 	0.010104529616725
scalar tree_4_3_u04_r20_network.node[8].core_layer 	interests[8] 	29992
scalar tree_4_3_u04_r20_network.node[8].core_layer 	data[8] 	27102
scalar tree_4_3_u04_r20_network.node[8].content_store 	p_hit[8] 	0.096325686849827
scalar tree_4_3_u04_r20_network.node[8].content_store 	hits[8] 	2889
scalar tree_4_3_u04_r20_network.node[8].content_store 	misses[8] 	27103
scalar tree_4_3_u04_r20_network.node[8].content_store 	decision_yes[8] 	301
scalar tree_4_3_u04_r20_network.node[8].content_store 	decision_no[8] 	26801
scalar tree_4_3_u04_r20_network.node[8].content_store 	decision_ratio[8] 	0.011106191424987
scalar tree_4_3_u04_r20_network.node[9].core_layer 	interests[9] 	13106
scalar tree_4_3_u04_r20_network.node[9].core_layer 	data[9] 	9996
scalar tree_4_3_u04_r20_network.node[9].content_store 	p_hit[9] 	0.23729589500992
scalar tree_4_3_u04_r20_network.node[9].content_store 	hits[9] 	3110
scalar tree_4_3_u04_r20_network.node[9].content_store 	misses[9] 	9996
scalar tree_4_3_u04_r20_network.node[9].content_store 	decision_yes[9] 	98
scalar tree_4_3_u04_r20_network.node[9].content_store 	decision_no[9] 	9898
scalar tree_4_3_u04_r20_network.node[9].content_store 	decision_ratio[9] 	0.0098039215686275
scalar tree_4_3_u04_r20_network.node[10].core_layer 	interests[10] 	36223
scalar tree_4_3_u04_r20_network.node[10].core_layer 	data[10] 	34026
scalar tree_4_3_u04_r20_network.node[10].content_store 	p_hit[10] 	0.060624465118847
scalar tree_4_3_u04_r20_network.node[10].content_store 	hits[10] 	2196
scalar tree_4_3_u04_r20_network.node[10].content_store 	misses[10] 	34027
scalar tree_4_3_u04_r20_network.node[10].content_store 	decision_yes[10] 	356
scalar tree_4_3_u04_r20_network.node[10].content_store 	decision_no[10] 	33670
scalar tree_4_3_u04_r20_network.node[10].content_store 	decision_ratio[10] 	0.010462587433139
scalar tree_4_3_u04_r20_network.node[11].core_layer 	interests[11] 	30687
scalar tree_4_3_u04_r20_network.node[11].core_layer 	data[11] 	27446
scalar tree_4_3_u04_r20_network.node[11].content_store 	p_hit[11] 	0.1056147554339
scalar tree_4_3_u04_r20_network.node[11].content_store 	hits[11] 	3241
scalar tree_4_3_u04_r20_network.node[11].content_store 	misses[11] 	27446
scalar tree_4_3_u04_r20_network.node[11].content_store 	decision_yes[11] 	283
scalar tree_4_3_u04_r20_network.node[11].content_store 	decision_no[11] 	27163
scalar tree_4_3_u04_r20_network.node[11].content_store 	decision_ratio[11] 	0.010311156452671
scalar tree_4_3_u04_r20_network.node[12].core_layer 	interests[12] 	22228
scalar tree_4_3_u04_r20_network.node[12].core_layer 	data[12] 	18567
scalar tree_4_3_u04_r20_network.node[12].content_store 	p_hit[12] 	0.16470217743387
scalar tree_4_3_u04_r20_network.node[12].content_store 	hits[12] 	3661
scalar tree_4_3_u04_r20_network.node[12].content_store 	misses[12] 	18567
scalar tree_4_3_u04_r20_network.node[12].content_store 	decision_yes[12] 	178
scalar tree_4_3_u04_r20_network.node[12].content_store 	decision_no[12] 	18389
scalar tree_4_3_u04_r20_network.node[12].content_store 	decision_ratio[12] 	0.0095869014918942
scalar tree_4_3_u04_r20_network.node[13].core_layer 	interests[13] 	12724
scalar tree_4_3_u04_r20_network.node[13].core_layer 	data[13] 	9208
scalar tree_4_3_u04_r20_network.node[13].content_store 	p_hit[13] 	0.27632819867966
scalar tree_4_3_u04_r20_network.node[13].content_store 	hits[13] 	3516
scalar tree_4_3_u04_r20_network.node[13].content_store 	misses[13] 	9208
scalar tree_4_3_u04_r20_network.node[13].content_store 	decision_yes[13] 	98
scalar tree_4_3_u04_r20_network.node[13].content_store 	decision_no[13] 	9110
scalar tree_4_3_u04_r20_network.node[13].content_store 	decision_ratio[13] 	0.010642919200695
scalar tree_4_3_u04_r20_network.node[14].core_layer 	interests[14] 	12847
scalar tree_4_3_u04_r20_network.node[14].core_layer 	data[14] 	9160
scalar tree_4_3_u04_r20_network.node[14].content_store 	p_hit[14] 	0.28691523312836
scalar tree_4_3_u04_r20_network.node[14].content_store 	hits[14] 	3686
scalar tree_4_3_u04_r20_network.node[14].content_store 	misses[14] 	9161
scalar tree_4_3_u04_r20_network.node[14].content_store 	decision_yes[14] 	89
scalar tree_4_3_u04_r20_network.node[14].content_store 	decision_no[14] 	9071
scalar tree_4_3_u04_r20_network.node[14].content_store 	decision_ratio[14] 	0.0097161572052402
scalar tree_4_3_u04_r20_network.node[15].core_layer 	interests[15] 	13020
scalar tree_4_3_u04_r20_network.node[15].core_layer 	data[15] 	9398
scalar tree_4_3_u04_r20_network.node[15].content_store 	p_hit[15] 	0.27818740399386
scalar tree_4_3_u04_r20_network.node[15].content_store 	hits[15] 	3622
scalar tree_4_3_u04_r20_network.node[15].content_store 	misses[15] 	9398
scalar tree_4_3_u04_r20_network.node[15].content_store 	decision_yes[15] 	83
scalar tree_4_3_u04_r20_network.node[15].content_store 	decision_no[15] 	9315
scalar tree_4_3_u04_r20_network.node[15].content_store 	decision_ratio[15] 	0.0088316663119813
scalar tree_4_3_u04_r20_network.node[16].core_layer 	interests[16] 	12877
scalar tree_4_3_u04_r20_network.node[16].core_layer 	data[16] 	9484
scalar tree_4_3_u04_r20_network.node[16].content_store 	p_hit[16] 	0.26349304962336
scalar tree_4_3_u04_r20_network.node[16].content_store 	hits[16] 	3393
scalar tree_4_3_u04_r20_network.node[16].content_store 	misses[16] 	9484
scalar tree_4_3_u04_r20_network.node[16].content_store 	decision_yes[16] 	92
scalar tree_4_3_u04_r20_network.node[16].content_store 	decision_no[16] 	9392
scalar tree_4_3_u04_r20_network.node[16].content_store 	decision_ratio[16] 	0.00970054829186
scalar tree_4_3_u04_r20_network.node[17].core_layer 	interests[17] 	12820
scalar tree_4_3_u04_r20_network.node[17].core_layer 	data[17] 	9280
scalar tree_4_3_u04_r20_network.node[17].content_store 	p_hit[17] 	0.27613104524181
scalar tree_4_3_u04_r20_network.node[17].content_store 	hits[17] 	3540
scalar tree_4_3_u04_r20_network.node[17].content_store 	misses[17] 	9280
scalar tree_4_3_u04_r20_network.node[17].content_store 	decision_yes[17] 	111
scalar tree_4_3_u04_r20_network.node[17].content_store 	decision_no[17] 	9169
scalar tree_4_3_u04_r20_network.node[17].content_store 	decision_ratio[17] 	0.011961206896552
scalar tree_4_3_u04_r20_network.node[18].core_layer 	interests[18] 	13354
scalar tree_4_3_u04_r20_network.node[18].core_layer 	data[18] 	9121
scalar tree_4_3_u04_r20_network.node[18].content_store 	p_hit[18] 	0.31698367530328
scalar tree_4_3_u04_r20_network.node[18].content_store 	hits[18] 	4233
scalar tree_4_3_u04_r20_network.node[18].content_store 	misses[18] 	9121
scalar tree_4_3_u04_r20_network.node[18].content_store 	decision_yes[18] 	94
scalar tree_4_3_u04_r20_network.node[18].content_store 	decision_no[18] 	9027
scalar tree_4_3_u04_r20_network.node[18].content_store 	decision_ratio[18] 	0.010305887512334
scalar tree_4_3_u04_r20_network.node[19].core_layer 	interests[19] 	12896
scalar tree_4_3_u04_r20_network.node[19].core_layer 	data[19] 	9214
scalar tree_4_3_u04_r20_network.node[19].content_store 	p_hit[19] 	0.28551488833747
scalar tree_4_3_u04_r20_network.node[19].content_store 	hits[19] 	3682
scalar tree_4_3_u04_r20_network.node[19].content_store 	misses[19] 	9214
scalar tree_4_3_u04_r20_network.node[19].content_store 	decision_yes[19] 	89
scalar tree_4_3_u04_r20_network.node[19].content_store 	decision_no[19] 	9125
scalar tree_4_3_u04_r20_network.node[19].content_store 	decision_ratio[19] 	0.0096592142392012
scalar tree_4_3_u04_r20_network.node[20].core_layer 	interests[20] 	13148
scalar tree_4_3_u04_r20_network.node[20].core_layer 	data[20] 	9302
scalar tree_4_3_u04_r20_network.node[20].content_store 	p_hit[20] 	0.29251597201095
scalar tree_4_3_u04_r20_network.node[20].content_store 	hits[20] 	3846
scalar tree_4_3_u04_r20_network.node[20].content_store 	misses[20] 	9302
scalar tree_4_3_u04_r20_network.node[20].content_store 	decision_yes[20] 	97
scalar tree_4_3_u04_r20_network.node[20].content_store 	decision_no[20] 	9205
scalar tree_4_3_u04_r20_network.node[20].content_store 	decision_ratio[20] 	0.010427864975274
scalar tree_4_3_u04_r20_network.node[21].core_layer 	interests[21] 	12752
scalar tree_4_3_u04_r20_network.node[21].core_layer 	data[21] 	9128
scalar tree_4_3_u04_r20_network.node[21].content_store 	p_hit[21] 	0.2840338770389
scalar tree_4_3_u04_r20_network.node[21].content_store 	hits[21] 	3622
scalar tree_4_3_u04_r20_network.node[21].content_store 	misses[21] 	9130
scalar tree_4_3_u04_r20_network.node[21].content_store 	decision_yes[21] 	93
scalar tree_4_3_u04_r20_network.node[21].content_store 	decision_no[21] 	9035
scalar tree_4_3_u04_r20_network.node[21].content_store 	decision_ratio[21] 	0.010188431200701
scalar tree_4_3_u04_r20_network.node[22].core_layer 	interests[22] 	12936
scalar tree_4_3_u04_r20_network.node[22].core_layer 	data[22] 	9294
scalar tree_4_3_u04_r20_network.node[22].content_store 	p_hit[22] 	0.28146258503401
scalar tree_4_3_u04_r20_network.node[22].content_store 	hits[22] 	3641
scalar tree_4_3_u04_r20_network.node[22].content_store 	misses[22] 	9295
scalar tree_4_3_u04_r20_network.node[22].content_store 	decision_yes[22] 	85
scalar tree_4_3_u04_r20_network.node[22].content_store 	decision_no[22] 	9209
scalar tree_4_3_u04_r20_network.node[22].content_store 	decision_ratio[22] 	0.0091456853884226
scalar tree_4_3_u04_r20_network.node[23].core_layer 	interests[23] 	12984
scalar tree_4_3_u04_r20_network.node[23].core_layer 	data[23] 	9358
scalar tree_4_3_u04_r20_network.node[23].content_store 	p_hit[23] 	0.27911275415896
scalar tree_4_3_u04_r20_network.node[23].content_store 	hits[23] 	3624
scalar tree_4_3_u04_r20_network.node[23].content_store 	misses[23] 	9360
scalar tree_4_3_u04_r20_network.node[23].content_store 	decision_yes[23] 	88
scalar tree_4_3_u04_r20_network.node[23].content_store 	decision_no[23] 	9270
scalar tree_4_3_u04_r20_network.node[23].content_store 	decision_ratio[23] 	0.0094037187433212
scalar tree_4_3_u04_r20_network.node[24].core_layer 	interests[24] 	13558
scalar tree_4_3_u04_r20_network.node[24].core_layer 	data[24] 	9339
scalar tree_4_3_u04_r20_network.node[24].content_store 	p_hit[24] 	0.31125534739637
scalar tree_4_3_u04_r20_network.node[24].content_store 	hits[24] 	4220
scalar tree_4_3_u04_r20_network.node[24].content_store 	misses[24] 	9338
scalar tree_4_3_u04_r20_network.node[24].content_store 	decision_yes[24] 	101
scalar tree_4_3_u04_r20_network.node[24].content_store 	decision_no[24] 	9238
scalar tree_4_3_u04_r20_network.node[24].content_store 	decision_ratio[24] 	0.010814862404968
scalar tree_4_3_u04_r20_network.node[25].core_layer 	interests[25] 	13802
scalar tree_4_3_u04_r20_network.node[25].core_layer 	data[25] 	9413
scalar tree_4_3_u04_r20_network.node[25].content_store 	p_hit[25] 	0.31799739168236
scalar tree_4_3_u04_r20_network.node[25].content_store 	hits[25] 	4389
scalar tree_4_3_u04_r20_network.node[25].content_store 	misses[25] 	9413
scalar tree_4_3_u04_r20_network.node[25].content_store 	decision_yes[25] 	90
scalar tree_4_3_u04_r20_network.node[25].content_store 	decision_no[25] 	9323
scalar tree_4_3_u04_r20_network.node[25].content_store 	decision_ratio[25] 	0.0095612450865824
scalar tree_4_3_u04_r20_network.node[26].core_layer 	interests[26] 	12986
scalar tree_4_3_u04_r20_network.node[26].core_layer 	data[26] 	9519
scalar tree_4_3_u04_r20_network.node[26].content_store 	p_hit[26] 	0.26697982442631
scalar tree_4_3_u04_r20_network.node[26].content_store 	hits[26] 	3467
scalar tree_4_3_u04_r20_network.node[26].content_store 	misses[26] 	9519
scalar tree_4_3_u04_r20_network.node[26].content_store 	decision_yes[26] 	114
scalar tree_4_3_u04_r20_network.node[26].content_store 	decision_no[26] 	9405
scalar tree_4_3_u04_r20_network.node[26].content_store 	decision_ratio[26] 	0.011976047904192
scalar tree_4_3_u04_r20_network.node[27].core_layer 	interests[27] 	13103
scalar tree_4_3_u04_r20_network.node[27].core_layer 	data[27] 	9342
scalar tree_4_3_u04_r20_network.node[27].content_store 	p_hit[27] 	0.28703350377776
scalar tree_4_3_u04_r20_network.node[27].content_store 	hits[27] 	3761
scalar tree_4_3_u04_r20_network.node[27].content_store 	misses[27] 	9342
scalar tree_4_3_u04_r20_network.node[27].content_store 	decision_yes[27] 	98
scalar tree_4_3_u04_r20_network.node[27].content_store 	decision_no[27] 	9244
scalar tree_4_3_u04_r20_network.node[27].content_store 	decision_ratio[27] 	0.010490259045172
scalar tree_4_3_u04_r20_network.node[28].core_layer 	interests[28] 	13204
scalar tree_4_3_u04_r20_network.node[28].core_layer 	data[28] 	9388
scalar tree_4_3_u04_r20_network.node[28].content_store 	p_hit[28] 	0.28900333232354
scalar tree_4_3_u04_r20_network.node[28].content_store 	hits[28] 	3816
scalar tree_4_3_u04_r20_network.node[28].content_store 	misses[28] 	9388
scalar tree_4_3_u04_r20_network.node[28].content_store 	decision_yes[28] 	89
scalar tree_4_3_u04_r20_network.node[28].content_store 	decision_no[28] 	9299
scalar tree_4_3_u04_r20_network.node[28].content_store 	decision_ratio[28] 	0.0094801874733703
scalar tree_4_3_u04_r20_network.node[29].core_layer 	interests[29] 	13422
scalar tree_4_3_u04_r20_network.node[29].core_layer 	data[29] 	9453
scalar tree_4_3_u04_r20_network.node[29].content_store 	p_hit[29] 	0.29570853822083
scalar tree_4_3_u04_r20_network.node[29].content_store 	hits[29] 	3969
scalar tree_4_3_u04_r20_network.node[29].content_store 	misses[29] 	9453
scalar tree_4_3_u04_r20_network.node[29].content_store 	decision_yes[29] 	114
scalar tree_4_3_u04_r20_network.node[29].content_store 	decision_no[29] 	9339
scalar tree_4_3_u04_r20_network.node[29].content_store 	decision_ratio[29] 	0.012059663598858
scalar tree_4_3_u04_r20_network.node[30].core_layer 	interests[30] 	12664
scalar tree_4_3_u04_r20_network.node[30].core_layer 	data[30] 	9314
scalar tree_4_3_u04_r20_network.node[30].content_store 	p_hit[30] 	0.26452937460518
scalar tree_4_3_u04_r20_network.node[30].content_store 	hits[30] 	3350
scalar tree_4_3_u04_r20_network.node[30].content_store 	misses[30] 	9314
scalar tree_4_3_u04_r20_network.node[30].content_store 	decision_yes[30] 	100
scalar tree_4_3_u04_r20_network.node[30].content_store 	decision_no[30] 	9214
scalar tree_4_3_u04_r20_network.node[30].content_store 	decision_ratio[30] 	0.010736525660296
scalar tree_4_3_u04_r20_network.node[31].core_layer 	interests[31] 	12665
scalar tree_4_3_u04_r20_network.node[31].core_layer 	data[31] 	9311
scalar tree_4_3_u04_r20_network.node[31].content_store 	p_hit[31] 	0.26482431898934
scalar tree_4_3_u04_r20_network.node[31].content_store 	hits[31] 	3354
scalar tree_4_3_u04_r20_network.node[31].content_store 	misses[31] 	9311
scalar tree_4_3_u04_r20_network.node[31].content_store 	decision_yes[31] 	87
scalar tree_4_3_u04_r20_network.node[31].content_store 	decision_no[31] 	9224
scalar tree_4_3_u04_r20_network.node[31].content_store 	decision_ratio[31] 	0.0093437869186983
scalar tree_4_3_u04_r20_network.node[32].core_layer 	interests[32] 	12639
scalar tree_4_3_u04_r20_network.node[32].core_layer 	data[32] 	9248
scalar tree_4_3_u04_r20_network.node[32].content_store 	p_hit[32] 	0.26821742226442
scalar tree_4_3_u04_r20_network.node[32].content_store 	hits[32] 	3390
scalar tree_4_3_u04_r20_network.node[32].content_store 	misses[32] 	9249
scalar tree_4_3_u04_r20_network.node[32].content_store 	decision_yes[32] 	98
scalar tree_4_3_u04_r20_network.node[32].content_store 	decision_no[32] 	9150
scalar tree_4_3_u04_r20_network.node[32].content_store 	decision_ratio[32] 	0.010596885813149
scalar tree_4_3_u04_r20_network.node[33].core_layer 	interests[33] 	13267
scalar tree_4_3_u04_r20_network.node[33].core_layer 	data[33] 	9165
scalar tree_4_3_u04_r20_network.node[33].content_store 	p_hit[33] 	0.3091128363609
scalar tree_4_3_u04_r20_network.node[33].content_store 	hits[33] 	4101
scalar tree_4_3_u04_r20_network.node[33].content_store 	misses[33] 	9166
scalar tree_4_3_u04_r20_network.node[33].content_store 	decision_yes[33] 	105
scalar tree_4_3_u04_r20_network.node[33].content_store 	decision_no[33] 	9060
scalar tree_4_3_u04_r20_network.node[33].content_store 	decision_ratio[33] 	0.011456628477905
scalar tree_4_3_u04_r20_network.node[34].core_layer 	interests[34] 	13111
scalar tree_4_3_u04_r20_network.node[34].core_layer 	data[34] 	9292
scalar tree_4_3_u04_r20_network.node[34].content_store 	p_hit[34] 	0.29120585767676
scalar tree_4_3_u04_r20_network.node[34].content_store 	hits[34] 	3818
scalar tree_4_3_u04_r20_network.node[34].content_store 	misses[34] 	9293
scalar tree_4_3_u04_r20_network.node[34].content_store 	decision_yes[34] 	96
scalar tree_4_3_u04_r20_network.node[34].content_store 	decision_no[34] 	9196
scalar tree_4_3_u04_r20_network.node[34].content_store 	decision_ratio[34] 	0.010331467929402
scalar tree_4_3_u04_r20_network.node[35].core_layer 	interests[35] 	13195
scalar tree_4_3_u04_r20_network.node[35].core_layer 	data[35] 	9403
scalar tree_4_3_u04_r20_network.node[35].content_store 	p_hit[35] 	0.28738158393331
scalar tree_4_3_u04_r20_network.node[35].content_store 	hits[35] 	3792
scalar tree_4_3_u04_r20_network.node[35].content_store 	misses[35] 	9403
scalar tree_4_3_u04_r20_network.node[35].content_store 	decision_yes[35] 	107
scalar tree_4_3_u04_r20_network.node[35].content_store 	decision_no[35] 	9296
scalar tree_4_3_u04_r20_network.node[35].content_store 	decision_ratio[35] 	0.011379347016909
scalar tree_4_3_u04_r20_network.node[36].core_layer 	interests[36] 	13876
scalar tree_4_3_u04_r20_network.node[36].core_layer 	data[36] 	9437
scalar tree_4_3_u04_r20_network.node[36].content_store 	p_hit[36] 	0.31990487172096
scalar tree_4_3_u04_r20_network.node[36].content_store 	hits[36] 	4439
scalar tree_4_3_u04_r20_network.node[36].content_store 	misses[36] 	9437
scalar tree_4_3_u04_r20_network.node[36].content_store 	decision_yes[36] 	91
scalar tree_4_3_u04_r20_network.node[36].content_store 	decision_no[36] 	9346
scalar tree_4_3_u04_r20_network.node[36].content_store 	decision_ratio[36] 	0.0096428949878139
scalar tree_4_3_u04_r20_network.node[37].core_layer 	interests[37] 	13187
scalar tree_4_3_u04_r20_network.node[37].core_layer 	data[37] 	9259
scalar tree_4_3_u04_r20_network.node[37].content_store 	p_hit[37] 	0.29786911352089
scalar tree_4_3_u04_r20_network.node[37].content_store 	hits[37] 	3928
scalar tree_4_3_u04_r20_network.node[37].content_store 	misses[37] 	9259
scalar tree_4_3_u04_r20_network.node[37].content_store 	decision_yes[37] 	102
scalar tree_4_3_u04_r20_network.node[37].content_store 	decision_no[37] 	9157
scalar tree_4_3_u04_r20_network.node[37].content_store 	decision_ratio[37] 	0.011016308456637
scalar tree_4_3_u04_r20_network.node[38].core_layer 	interests[38] 	12590
scalar tree_4_3_u04_r20_network.node[38].core_layer 	data[38] 	9067
scalar tree_4_3_u04_r20_network.node[38].content_store 	p_hit[38] 	0.27982525814138
scalar tree_4_3_u04_r20_network.node[38].content_store 	hits[38] 	3523
scalar tree_4_3_u04_r20_network.node[38].content_store 	misses[38] 	9067
scalar tree_4_3_u04_r20_network.node[38].content_store 	decision_yes[38] 	110
scalar tree_4_3_u04_r20_network.node[38].content_store 	decision_no[38] 	8957
scalar tree_4_3_u04_r20_network.node[38].content_store 	decision_ratio[38] 	0.012131906915187
scalar tree_4_3_u04_r20_network.node[39].core_layer 	interests[39] 	12704
scalar tree_4_3_u04_r20_network.node[39].core_layer 	data[39] 	9149
scalar tree_4_3_u04_r20_network.node[39].content_store 	p_hit[39] 	0.27983312342569
scalar tree_4_3_u04_r20_network.node[39].content_store 	hits[39] 	3555
scalar tree_4_3_u04_r20_network.node[39].content_store 	misses[39] 	9149
scalar tree_4_3_u04_r20_network.node[39].content_store 	decision_yes[39] 	83
scalar tree_4_3_u04_r20_network.node[39].content_store 	decision_no[39] 	9066
scalar tree_4_3_u04_r20_network.node[39].content_store 	decision_ratio[39] 	0.0090720297300251
scalar tree_4_3_u04_r20_network.client[13] 	hdistance[13] 	2.7784641068447
scalar tree_4_3_u04_r20_network.client[13] 	downloads[13] 	11980
scalar tree_4_3_u04_r20_network.client[13] 	avg_time[13] 	0.004369779951
scalar tree_4_3_u04_r20_network.client[14] 	hdistance[14] 	2.7578066136459
scalar tree_4_3_u04_r20_network.client[14] 	downloads[14] 	11945
scalar tree_4_3_u04_r20_network.client[14] 	avg_time[14] 	0.004340556789
scalar tree_4_3_u04_r20_network.client[15] 	hdistance[15] 	2.7859440732492
scalar tree_4_3_u04_r20_network.client[15] 	downloads[15] 	12123
scalar tree_4_3_u04_r20_network.client[15] 	avg_time[15] 	0.004387194868
scalar tree_4_3_u04_r20_network.client[16] 	hdistance[16] 	2.7902596863851
scalar tree_4_3_u04_r20_network.client[16] 	downloads[16] 	12053
scalar tree_4_3_u04_r20_network.client[16] 	avg_time[16] 	0.00438894577
scalar tree_4_3_u04_r20_network.client[17] 	hdistance[17] 	2.7709515859766
scalar tree_4_3_u04_r20_network.client[17] 	downloads[17] 	11980
scalar tree_4_3_u04_r20_network.client[17] 	avg_time[17] 	0.004349245738
scalar tree_4_3_u04_r20_network.client[18] 	hdistance[18] 	2.6641759717908
scalar tree_4_3_u04_r20_network.client[18] 	downloads[18] 	11911
scalar tree_4_3_u04_r20_network.client[18] 	avg_time[18] 	0.004147423747
scalar tree_4_3_u04_r20_network.client[19] 	hdistance[19] 	2.7299833887043
scalar tree_4_3_u04_r20_network.client[19] 	downloads[19] 	12040
scalar tree_4_3_u04_r20_network.client[19] 	avg_time[19] 	0.004290528534
scalar tree_4_3_u04_r20_network.client[20] 	hdistance[20] 	2.6980431848853
scalar tree_4_3_u04_r20_network.client[20] 	downloads[20] 	11856
scalar tree_4_3_u04_r20_network.client[20] 	avg_time[20] 	0.004208330348
scalar tree_4_3_u04_r20_network.client[21] 	hdistance[21] 	2.7388805597201
scalar tree_4_3_u04_r20_network.client[21] 	downloads[21] 	12006
scalar tree_4_3_u04_r20_network.client[21] 	avg_time[21] 	0.004296533658
scalar tree_4_3_u04_r20_network.client[22] 	hdistance[22] 	2.7433539541883
scalar tree_4_3_u04_r20_network.client[22] 	downloads[22] 	11962
scalar tree_4_3_u04_r20_network.client[22] 	avg_time[22] 	0.004334054906
scalar tree_4_3_u04_r20_network.client[23] 	hdistance[23] 	2.7352699144174
scalar tree_4_3_u04_r20_network.client[23] 	downloads[23] 	12152
scalar tree_4_3_u04_r20_network.client[23] 	avg_time[23] 	0.004325295687
scalar tree_4_3_u04_r20_network.client[24] 	hdistance[24] 	2.6634844868735
scalar tree_4_3_u04_r20_network.client[24] 	downloads[24] 	12151
scalar tree_4_3_u04_r20_network.client[24] 	avg_time[24] 	0.004180722834
scalar tree_4_3_u04_r20_network.client[25] 	hdistance[25] 	2.6897356791462
scalar tree_4_3_u04_r20_network.client[25] 	downloads[25] 	11993
scalar tree_4_3_u04_r20_network.client[25] 	avg_time[25] 	0.004219992503
scalar tree_4_3_u04_r20_network.client[26] 	hdistance[26] 	2.7780354480702
scalar tree_4_3_u04_r20_network.client[26] 	downloads[26] 	12074
scalar tree_4_3_u04_r20_network.client[26] 	avg_time[26] 	0.004409079099
scalar tree_4_3_u04_r20_network.client[27] 	hdistance[27] 	2.7438043656655
scalar tree_4_3_u04_r20_network.client[27] 	downloads[27] 	12186
scalar tree_4_3_u04_r20_network.client[27] 	avg_time[27] 	0.004344654771
scalar tree_4_3_u04_r20_network.client[28] 	hdistance[28] 	2.70533467539
scalar tree_4_3_u04_r20_network.client[28] 	downloads[28] 	11922
scalar tree_4_3_u04_r20_network.client[28] 	avg_time[28] 	0.004248061967
scalar tree_4_3_u04_r20_network.client[29] 	hdistance[29] 	2.6856719123342
scalar tree_4_3_u04_r20_network.client[29] 	downloads[29] 	12137
scalar tree_4_3_u04_r20_network.client[29] 	avg_time[29] 	0.004219656714
scalar tree_4_3_u04_r20_network.client[30] 	hdistance[30] 	2.7881798282539
scalar tree_4_3_u04_r20_network.client[30] 	downloads[30] 	11878
scalar tree_4_3_u04_r20_network.client[30] 	avg_time[30] 	0.004415386821
scalar tree_4_3_u04_r20_network.client[31] 	hdistance[31] 	2.7707276507276
scalar tree_4_3_u04_r20_network.client[31] 	downloads[31] 	12025
scalar tree_4_3_u04_r20_network.client[31] 	avg_time[31] 	0.004361078056
scalar tree_4_3_u04_r20_network.client[32] 	hdistance[32] 	2.7803555036301
scalar tree_4_3_u04_r20_network.client[32] 	downloads[32] 	11983
scalar tree_4_3_u04_r20_network.client[32] 	avg_time[32] 	0.004364346498
scalar tree_4_3_u04_r20_network.client[33] 	hdistance[33] 	2.7081627537806
scalar tree_4_3_u04_r20_network.client[33] 	downloads[33] 	11969
scalar tree_4_3_u04_r20_network.client[33] 	avg_time[33] 	0.004204358272
scalar tree_4_3_u04_r20_network.client[34] 	hdistance[34] 	2.7514749262537
scalar tree_4_3_u04_r20_network.client[34] 	downloads[34] 	12204
scalar tree_4_3_u04_r20_network.client[34] 	avg_time[34] 	0.004393175173
scalar tree_4_3_u04_r20_network.client[35] 	hdistance[35] 	2.7625672877847
scalar tree_4_3_u04_r20_network.client[35] 	downloads[35] 	12075
scalar tree_4_3_u04_r20_network.client[35] 	avg_time[35] 	0.004411756816
scalar tree_4_3_u04_r20_network.client[36] 	hdistance[36] 	2.680715409456
scalar tree_4_3_u04_r20_network.client[36] 	downloads[36] 	12077
scalar tree_4_3_u04_r20_network.client[36] 	avg_time[36] 	0.004251715104
scalar tree_4_3_u04_r20_network.client[37] 	hdistance[37] 	2.6882790931147
scalar tree_4_3_u04_r20_network.client[37] 	downloads[37] 	11953
scalar tree_4_3_u04_r20_network.client[37] 	avg_time[37] 	0.0041815414
scalar tree_4_3_u04_r20_network.client[38] 	hdistance[38] 	2.7109072546709
scalar tree_4_3_u04_r20_network.client[38] 	downloads[38] 	11882
scalar tree_4_3_u04_r20_network.client[38] 	avg_time[38] 	0.004237162483
scalar tree_4_3_u04_r20_network.client[39] 	hdistance[39] 	2.7139635877735
scalar tree_4_3_u04_r20_network.client[39] 	downloads[39] 	11974
scalar tree_4_3_u04_r20_network.client[39] 	avg_time[39] 	0.004255884775
