version 2
run General-633-20160901-16:03:54-8710
attr a 0.9
attr cd ffc
attr configname General
attr cr lru
attr datetime 20160901-16:03:54
attr experiment General
attr fsize 1
attr inifile hw5115/scenario_Y/omnetp.ini
attr iterationvars "$name=tree_4_3, $un=10, $rep=12, $cd=ffc, $cr=lru, $fsize=1, $a=0.9, $sl=nrr, $ttl=1000, $variance=0.05"
attr iterationvars2 "$name=tree_4_3, $un=10, $rep=12, $cd=ffc, $cr=lru, $fsize=1, $a=0.9, $sl=nrr, $ttl=1000, $variance=0.05, $repetition=0"
attr measurement "$name=tree_4_3, $un=10, $rep=12, $cd=ffc, $cr=lru, $fsize=1, $a=0.9, $sl=nrr, $ttl=1000, $variance=0.05"
attr name tree_4_3
attr network networks.${name}_u${un}_r${rep}_network
attr processid 8710
attr rep 12
attr repetition 0
attr replication #0
attr resultdir results
attr runnumber 633
attr seedset 12
attr sl nrr
attr ttl 1000
attr un 10
attr variance 0.05

scalar . 	a 	0.9
scalar . 	fsize 	1
scalar . 	rep 	12
scalar . 	ttl 	1000
scalar . 	un 	10
scalar . 	variance 	0.05
scalar tree_4_3_u10_r12_network.content_distribution 	repo-0 	0
scalar tree_4_3_u10_r12_network.content_distribution 	client-0 	13
scalar tree_4_3_u10_r12_network.content_distribution 	client-1 	14
scalar tree_4_3_u10_r12_network.content_distribution 	client-2 	15
scalar tree_4_3_u10_r12_network.content_distribution 	client-3 	16
scalar tree_4_3_u10_r12_network.content_distribution 	client-4 	17
scalar tree_4_3_u10_r12_network.content_distribution 	client-5 	18
scalar tree_4_3_u10_r12_network.content_distribution 	client-6 	19
scalar tree_4_3_u10_r12_network.content_distribution 	client-7 	20
scalar tree_4_3_u10_r12_network.content_distribution 	client-8 	21
scalar tree_4_3_u10_r12_network.content_distribution 	client-9 	22
scalar tree_4_3_u10_r12_network.content_distribution 	client-10 	23
scalar tree_4_3_u10_r12_network.content_distribution 	client-11 	24
scalar tree_4_3_u10_r12_network.content_distribution 	client-12 	25
scalar tree_4_3_u10_r12_network.content_distribution 	client-13 	26
scalar tree_4_3_u10_r12_network.content_distribution 	client-14 	27
scalar tree_4_3_u10_r12_network.content_distribution 	client-15 	28
scalar tree_4_3_u10_r12_network.content_distribution 	client-16 	29
scalar tree_4_3_u10_r12_network.content_distribution 	client-17 	30
scalar tree_4_3_u10_r12_network.content_distribution 	client-18 	31
scalar tree_4_3_u10_r12_network.content_distribution 	client-19 	32
scalar tree_4_3_u10_r12_network.content_distribution 	client-20 	33
scalar tree_4_3_u10_r12_network.content_distribution 	client-21 	34
scalar tree_4_3_u10_r12_network.content_distribution 	client-22 	35
scalar tree_4_3_u10_r12_network.content_distribution 	client-23 	36
scalar tree_4_3_u10_r12_network.content_distribution 	client-24 	37
scalar tree_4_3_u10_r12_network.content_distribution 	client-25 	38
scalar tree_4_3_u10_r12_network.content_distribution 	client-26 	39
scalar tree_4_3_u10_r12_network.content_distribution 	repo-0_card 	100000
scalar tree_4_3_u10_r12_network.content_distribution 	repo-0_price 	0
scalar tree_4_3_u10_r12_network.statistics 	stabilization_time 	1024.6
scalar tree_4_3_u10_r12_network.statistics 	p_hit 	0.24657148829613
scalar tree_4_3_u10_r12_network.statistics 	interests 	24651.825
scalar tree_4_3_u10_r12_network.statistics 	data 	16558.2
scalar tree_4_3_u10_r12_network.statistics 	hdistance 	2.5994014804423
scalar tree_4_3_u10_r12_network.statistics 	avg_time 	0.004091629719
scalar tree_4_3_u10_r12_network.statistics 	downloads 	323741
scalar tree_4_3_u10_r12_network.statistics 	total_cost 	0
scalar tree_4_3_u10_r12_network.statistics 	total_replicas 	100000
scalar tree_4_3_u10_r12_network.statistics 	inner_hit 	0.44643403214298
scalar tree_4_3_u10_r12_network.node[0].core_layer 	interests[0] 	181309
scalar tree_4_3_u10_r12_network.node[0].core_layer 	repo_load[0] 	179212
scalar tree_4_3_u10_r12_network.node[0].core_layer 	data[0] 	0
scalar tree_4_3_u10_r12_network.node[0].core_layer 	repo_int[0] 	179212
scalar tree_4_3_u10_r12_network.node[0].content_store 	p_hit[0] 	0.011565890275717
scalar tree_4_3_u10_r12_network.node[0].content_store 	hits[0] 	2097
scalar tree_4_3_u10_r12_network.node[0].content_store 	misses[0] 	179212
scalar tree_4_3_u10_r12_network.node[0].content_store 	decision_yes[0] 	746
scalar tree_4_3_u10_r12_network.node[0].content_store 	decision_no[0] 	178466
scalar tree_4_3_u10_r12_network.node[0].content_store 	decision_ratio[0] 	0.0041626676785037
scalar tree_4_3_u10_r12_network.node[1].core_layer 	interests[1] 	136841
scalar tree_4_3_u10_r12_network.node[1].core_layer 	data[1] 	134388
scalar tree_4_3_u10_r12_network.node[1].content_store 	p_hit[1] 	0.017903990763002
scalar tree_4_3_u10_r12_network.node[1].content_store 	hits[1] 	2450
scalar tree_4_3_u10_r12_network.node[1].content_store 	misses[1] 	134391
scalar tree_4_3_u10_r12_network.node[1].content_store 	decision_yes[1] 	610
scalar tree_4_3_u10_r12_network.node[1].content_store 	decision_no[1] 	133778
scalar tree_4_3_u10_r12_network.node[1].content_store 	decision_ratio[1] 	0.004539095752597
scalar tree_4_3_u10_r12_network.node[2].core_layer 	interests[2] 	55592
scalar tree_4_3_u10_r12_network.node[2].core_layer 	data[2] 	52534
scalar tree_4_3_u10_r12_network.node[2].content_store 	p_hit[2] 	0.055007914807886
scalar tree_4_3_u10_r12_network.node[2].content_store 	hits[2] 	3058
scalar tree_4_3_u10_r12_network.node[2].content_store 	misses[2] 	52534
scalar tree_4_3_u10_r12_network.node[2].content_store 	decision_yes[2] 	362
scalar tree_4_3_u10_r12_network.node[2].content_store 	decision_no[2] 	52172
scalar tree_4_3_u10_r12_network.node[2].content_store 	decision_ratio[2] 	0.0068907754977729
scalar tree_4_3_u10_r12_network.node[3].core_layer 	interests[3] 	13655
scalar tree_4_3_u10_r12_network.node[3].core_layer 	data[3] 	10250
scalar tree_4_3_u10_r12_network.node[3].content_store 	p_hit[3] 	0.24935920908092
scalar tree_4_3_u10_r12_network.node[3].content_store 	hits[3] 	3405
scalar tree_4_3_u10_r12_network.node[3].content_store 	misses[3] 	10250
scalar tree_4_3_u10_r12_network.node[3].content_store 	decision_yes[3] 	319
scalar tree_4_3_u10_r12_network.node[3].content_store 	decision_no[3] 	9931
scalar tree_4_3_u10_r12_network.node[3].content_store 	decision_ratio[3] 	0.031121951219512
scalar tree_4_3_u10_r12_network.node[4].core_layer 	interests[4] 	41857
scalar tree_4_3_u10_r12_network.node[4].core_layer 	data[4] 	39265
scalar tree_4_3_u10_r12_network.node[4].content_store 	p_hit[4] 	0.061901235157799
scalar tree_4_3_u10_r12_network.node[4].content_store 	hits[4] 	2591
scalar tree_4_3_u10_r12_network.node[4].content_store 	misses[4] 	39266
scalar tree_4_3_u10_r12_network.node[4].content_store 	decision_yes[4] 	312
scalar tree_4_3_u10_r12_network.node[4].content_store 	decision_no[4] 	38953
scalar tree_4_3_u10_r12_network.node[4].content_store 	decision_ratio[4] 	0.0079460078950719
scalar tree_4_3_u10_r12_network.node[5].core_layer 	interests[5] 	29219
scalar tree_4_3_u10_r12_network.node[5].core_layer 	data[5] 	25878
scalar tree_4_3_u10_r12_network.node[5].content_store 	p_hit[5] 	0.11430918238133
scalar tree_4_3_u10_r12_network.node[5].content_store 	hits[5] 	3340
scalar tree_4_3_u10_r12_network.node[5].content_store 	misses[5] 	25879
scalar tree_4_3_u10_r12_network.node[5].content_store 	decision_yes[5] 	352
scalar tree_4_3_u10_r12_network.node[5].content_store 	decision_no[5] 	25526
scalar tree_4_3_u10_r12_network.node[5].content_store 	decision_ratio[5] 	0.01360228765747
scalar tree_4_3_u10_r12_network.node[6].core_layer 	interests[6] 	14116
scalar tree_4_3_u10_r12_network.node[6].core_layer 	data[6] 	10854
scalar tree_4_3_u10_r12_network.node[6].content_store 	p_hit[6] 	0.23101445168603
scalar tree_4_3_u10_r12_network.node[6].content_store 	hits[6] 	3261
scalar tree_4_3_u10_r12_network.node[6].content_store 	misses[6] 	10855
scalar tree_4_3_u10_r12_network.node[6].content_store 	decision_yes[6] 	314
scalar tree_4_3_u10_r12_network.node[6].content_store 	decision_no[6] 	10540
scalar tree_4_3_u10_r12_network.node[6].content_store 	decision_ratio[6] 	0.028929426939377
scalar tree_4_3_u10_r12_network.node[7].core_layer 	interests[7] 	43614
scalar tree_4_3_u10_r12_network.node[7].core_layer 	data[7] 	40283
scalar tree_4_3_u10_r12_network.node[7].content_store 	p_hit[7] 	0.076351630210483
scalar tree_4_3_u10_r12_network.node[7].content_store 	hits[7] 	3330
scalar tree_4_3_u10_r12_network.node[7].content_store 	misses[7] 	40284
scalar tree_4_3_u10_r12_network.node[7].content_store 	decision_yes[7] 	351
scalar tree_4_3_u10_r12_network.node[7].content_store 	decision_no[7] 	39932
scalar tree_4_3_u10_r12_network.node[7].content_store 	decision_ratio[7] 	0.0087133530273316
scalar tree_4_3_u10_r12_network.node[8].core_layer 	interests[8] 	26861
scalar tree_4_3_u10_r12_network.node[8].core_layer 	data[8] 	24192
scalar tree_4_3_u10_r12_network.node[8].content_store 	p_hit[8] 	0.099363389300473
scalar tree_4_3_u10_r12_network.node[8].content_store 	hits[8] 	2669
scalar tree_4_3_u10_r12_network.node[8].content_store 	misses[8] 	24192
scalar tree_4_3_u10_r12_network.node[8].content_store 	decision_yes[8] 	246
scalar tree_4_3_u10_r12_network.node[8].content_store 	decision_no[8] 	23946
scalar tree_4_3_u10_r12_network.node[8].content_store 	decision_ratio[8] 	0.010168650793651
scalar tree_4_3_u10_r12_network.node[9].core_layer 	interests[9] 	14128
scalar tree_4_3_u10_r12_network.node[9].core_layer 	data[9] 	10832
scalar tree_4_3_u10_r12_network.node[9].content_store 	p_hit[9] 	0.23329558323896
scalar tree_4_3_u10_r12_network.node[9].content_store 	hits[9] 	3296
scalar tree_4_3_u10_r12_network.node[9].content_store 	misses[9] 	10832
scalar tree_4_3_u10_r12_network.node[9].content_store 	decision_yes[9] 	311
scalar tree_4_3_u10_r12_network.node[9].content_store 	decision_no[9] 	10521
scalar tree_4_3_u10_r12_network.node[9].content_store 	decision_ratio[9] 	0.028711225997046
scalar tree_4_3_u10_r12_network.node[10].core_layer 	interests[10] 	43478
scalar tree_4_3_u10_r12_network.node[10].core_layer 	data[10] 	40265
scalar tree_4_3_u10_r12_network.node[10].content_store 	p_hit[10] 	0.07389944339666
scalar tree_4_3_u10_r12_network.node[10].content_store 	hits[10] 	3213
scalar tree_4_3_u10_r12_network.node[10].content_store 	misses[10] 	40265
scalar tree_4_3_u10_r12_network.node[10].content_store 	decision_yes[10] 	345
scalar tree_4_3_u10_r12_network.node[10].content_store 	decision_no[10] 	39920
scalar tree_4_3_u10_r12_network.node[10].content_store 	decision_ratio[10] 	0.0085682354402086
scalar tree_4_3_u10_r12_network.node[11].core_layer 	interests[11] 	29025
scalar tree_4_3_u10_r12_network.node[11].core_layer 	data[11] 	25968
scalar tree_4_3_u10_r12_network.node[11].content_store 	p_hit[11] 	0.10528854435831
scalar tree_4_3_u10_r12_network.node[11].content_store 	hits[11] 	3056
scalar tree_4_3_u10_r12_network.node[11].content_store 	misses[11] 	25969
scalar tree_4_3_u10_r12_network.node[11].content_store 	decision_yes[11] 	274
scalar tree_4_3_u10_r12_network.node[11].content_store 	decision_no[11] 	25694
scalar tree_4_3_u10_r12_network.node[11].content_store 	decision_ratio[11] 	0.010551447935921
scalar tree_4_3_u10_r12_network.node[12].core_layer 	interests[12] 	11993
scalar tree_4_3_u10_r12_network.node[12].core_layer 	data[12] 	9191
scalar tree_4_3_u10_r12_network.node[12].content_store 	p_hit[12] 	0.23363628783457
scalar tree_4_3_u10_r12_network.node[12].content_store 	hits[12] 	2802
scalar tree_4_3_u10_r12_network.node[12].content_store 	misses[12] 	9191
scalar tree_4_3_u10_r12_network.node[12].content_store 	decision_yes[12] 	174
scalar tree_4_3_u10_r12_network.node[12].content_store 	decision_no[12] 	9017
scalar tree_4_3_u10_r12_network.node[12].content_store 	decision_ratio[12] 	0.018931563486019
scalar tree_4_3_u10_r12_network.node[13].core_layer 	interests[13] 	12648
scalar tree_4_3_u10_r12_network.node[13].core_layer 	data[13] 	8950
scalar tree_4_3_u10_r12_network.node[13].content_store 	p_hit[13] 	0.29237824161923
scalar tree_4_3_u10_r12_network.node[13].content_store 	hits[13] 	3698
scalar tree_4_3_u10_r12_network.node[13].content_store 	misses[13] 	8950
scalar tree_4_3_u10_r12_network.node[13].content_store 	decision_yes[13] 	126
scalar tree_4_3_u10_r12_network.node[13].content_store 	decision_no[13] 	8824
scalar tree_4_3_u10_r12_network.node[13].content_store 	decision_ratio[13] 	0.014078212290503
scalar tree_4_3_u10_r12_network.node[14].core_layer 	interests[14] 	12960
scalar tree_4_3_u10_r12_network.node[14].core_layer 	data[14] 	8825
scalar tree_4_3_u10_r12_network.node[14].content_store 	p_hit[14] 	0.31905864197531
scalar tree_4_3_u10_r12_network.node[14].content_store 	hits[14] 	4135
scalar tree_4_3_u10_r12_network.node[14].content_store 	misses[14] 	8825
scalar tree_4_3_u10_r12_network.node[14].content_store 	decision_yes[14] 	122
scalar tree_4_3_u10_r12_network.node[14].content_store 	decision_no[14] 	8703
scalar tree_4_3_u10_r12_network.node[14].content_store 	decision_ratio[14] 	0.013824362606232
scalar tree_4_3_u10_r12_network.node[15].core_layer 	interests[15] 	12954
scalar tree_4_3_u10_r12_network.node[15].core_layer 	data[15] 	8801
scalar tree_4_3_u10_r12_network.node[15].content_store 	p_hit[15] 	0.3205959549174
scalar tree_4_3_u10_r12_network.node[15].content_store 	hits[15] 	4153
scalar tree_4_3_u10_r12_network.node[15].content_store 	misses[15] 	8801
scalar tree_4_3_u10_r12_network.node[15].content_store 	decision_yes[15] 	101
scalar tree_4_3_u10_r12_network.node[15].content_store 	decision_no[15] 	8700
scalar tree_4_3_u10_r12_network.node[15].content_store 	decision_ratio[15] 	0.011475968639927
scalar tree_4_3_u10_r12_network.node[16].core_layer 	interests[16] 	12981
scalar tree_4_3_u10_r12_network.node[16].core_layer 	data[16] 	8818
scalar tree_4_3_u10_r12_network.node[16].content_store 	p_hit[16] 	0.32069948386103
scalar tree_4_3_u10_r12_network.node[16].content_store 	hits[16] 	4163
scalar tree_4_3_u10_r12_network.node[16].content_store 	misses[16] 	8818
scalar tree_4_3_u10_r12_network.node[16].content_store 	decision_yes[16] 	108
scalar tree_4_3_u10_r12_network.node[16].content_store 	decision_no[16] 	8710
scalar tree_4_3_u10_r12_network.node[16].content_store 	decision_ratio[16] 	0.012247675209798
scalar tree_4_3_u10_r12_network.node[17].core_layer 	interests[17] 	12461
scalar tree_4_3_u10_r12_network.node[17].core_layer 	data[17] 	8897
scalar tree_4_3_u10_r12_network.node[17].content_store 	p_hit[17] 	0.2860123585587
scalar tree_4_3_u10_r12_network.node[17].content_store 	hits[17] 	3564
scalar tree_4_3_u10_r12_network.node[17].content_store 	misses[17] 	8897
scalar tree_4_3_u10_r12_network.node[17].content_store 	decision_yes[17] 	124
scalar tree_4_3_u10_r12_network.node[17].content_store 	decision_no[17] 	8773
scalar tree_4_3_u10_r12_network.node[17].content_store 	decision_ratio[17] 	0.013937282229965
scalar tree_4_3_u10_r12_network.node[18].core_layer 	interests[18] 	12794
scalar tree_4_3_u10_r12_network.node[18].core_layer 	data[18] 	8683
scalar tree_4_3_u10_r12_network.node[18].content_store 	p_hit[18] 	0.32132249491949
scalar tree_4_3_u10_r12_network.node[18].content_store 	hits[18] 	4111
scalar tree_4_3_u10_r12_network.node[18].content_store 	misses[18] 	8683
scalar tree_4_3_u10_r12_network.node[18].content_store 	decision_yes[18] 	100
scalar tree_4_3_u10_r12_network.node[18].content_store 	decision_no[18] 	8583
scalar tree_4_3_u10_r12_network.node[18].content_store 	decision_ratio[18] 	0.011516756881262
scalar tree_4_3_u10_r12_network.node[19].core_layer 	interests[19] 	13061
scalar tree_4_3_u10_r12_network.node[19].core_layer 	data[19] 	8856
scalar tree_4_3_u10_r12_network.node[19].content_store 	p_hit[19] 	0.32195084603017
scalar tree_4_3_u10_r12_network.node[19].content_store 	hits[19] 	4205
scalar tree_4_3_u10_r12_network.node[19].content_store 	misses[19] 	8856
scalar tree_4_3_u10_r12_network.node[19].content_store 	decision_yes[19] 	99
scalar tree_4_3_u10_r12_network.node[19].content_store 	decision_no[19] 	8757
scalar tree_4_3_u10_r12_network.node[19].content_store 	decision_ratio[19] 	0.011178861788618
scalar tree_4_3_u10_r12_network.node[20].core_layer 	interests[20] 	13001
scalar tree_4_3_u10_r12_network.node[20].core_layer 	data[20] 	8915
scalar tree_4_3_u10_r12_network.node[20].content_store 	p_hit[20] 	0.31428351665257
scalar tree_4_3_u10_r12_network.node[20].content_store 	hits[20] 	4086
scalar tree_4_3_u10_r12_network.node[20].content_store 	misses[20] 	8915
scalar tree_4_3_u10_r12_network.node[20].content_store 	decision_yes[20] 	118
scalar tree_4_3_u10_r12_network.node[20].content_store 	decision_no[20] 	8797
scalar tree_4_3_u10_r12_network.node[20].content_store 	decision_ratio[20] 	0.013236118900729
scalar tree_4_3_u10_r12_network.node[21].core_layer 	interests[21] 	12504
scalar tree_4_3_u10_r12_network.node[21].core_layer 	data[21] 	8900
scalar tree_4_3_u10_r12_network.node[21].content_store 	p_hit[21] 	0.28822776711452
scalar tree_4_3_u10_r12_network.node[21].content_store 	hits[21] 	3604
scalar tree_4_3_u10_r12_network.node[21].content_store 	misses[21] 	8900
scalar tree_4_3_u10_r12_network.node[21].content_store 	decision_yes[21] 	103
scalar tree_4_3_u10_r12_network.node[21].content_store 	decision_no[21] 	8797
scalar tree_4_3_u10_r12_network.node[21].content_store 	decision_ratio[21] 	0.011573033707865
scalar tree_4_3_u10_r12_network.node[22].core_layer 	interests[22] 	12261
scalar tree_4_3_u10_r12_network.node[22].core_layer 	data[22] 	8594
scalar tree_4_3_u10_r12_network.node[22].content_store 	p_hit[22] 	0.29899681918277
scalar tree_4_3_u10_r12_network.node[22].content_store 	hits[22] 	3666
scalar tree_4_3_u10_r12_network.node[22].content_store 	misses[22] 	8595
scalar tree_4_3_u10_r12_network.node[22].content_store 	decision_yes[22] 	107
scalar tree_4_3_u10_r12_network.node[22].content_store 	decision_no[22] 	8487
scalar tree_4_3_u10_r12_network.node[22].content_store 	decision_ratio[22] 	0.012450546893181
scalar tree_4_3_u10_r12_network.node[23].core_layer 	interests[23] 	13036
scalar tree_4_3_u10_r12_network.node[23].core_layer 	data[23] 	8888
scalar tree_4_3_u10_r12_network.node[23].content_store 	p_hit[23] 	0.31811905492482
scalar tree_4_3_u10_r12_network.node[23].content_store 	hits[23] 	4147
scalar tree_4_3_u10_r12_network.node[23].content_store 	misses[23] 	8889
scalar tree_4_3_u10_r12_network.node[23].content_store 	decision_yes[23] 	131
scalar tree_4_3_u10_r12_network.node[23].content_store 	decision_no[23] 	8757
scalar tree_4_3_u10_r12_network.node[23].content_store 	decision_ratio[23] 	0.01473897389739
scalar tree_4_3_u10_r12_network.node[24].core_layer 	interests[24] 	12921
scalar tree_4_3_u10_r12_network.node[24].core_layer 	data[24] 	8848
scalar tree_4_3_u10_r12_network.node[24].content_store 	p_hit[24] 	0.31514588654129
scalar tree_4_3_u10_r12_network.node[24].content_store 	hits[24] 	4072
scalar tree_4_3_u10_r12_network.node[24].content_store 	misses[24] 	8849
scalar tree_4_3_u10_r12_network.node[24].content_store 	decision_yes[24] 	133
scalar tree_4_3_u10_r12_network.node[24].content_store 	decision_no[24] 	8715
scalar tree_4_3_u10_r12_network.node[24].content_store 	decision_ratio[24] 	0.01503164556962
scalar tree_4_3_u10_r12_network.node[25].core_layer 	interests[25] 	12955
scalar tree_4_3_u10_r12_network.node[25].core_layer 	data[25] 	8904
scalar tree_4_3_u10_r12_network.node[25].content_store 	p_hit[25] 	0.31269780007719
scalar tree_4_3_u10_r12_network.node[25].content_store 	hits[25] 	4051
scalar tree_4_3_u10_r12_network.node[25].content_store 	misses[25] 	8904
scalar tree_4_3_u10_r12_network.node[25].content_store 	decision_yes[25] 	106
scalar tree_4_3_u10_r12_network.node[25].content_store 	decision_no[25] 	8798
scalar tree_4_3_u10_r12_network.node[25].content_store 	decision_ratio[25] 	0.011904761904762
scalar tree_4_3_u10_r12_network.node[26].core_layer 	interests[26] 	12394
scalar tree_4_3_u10_r12_network.node[26].core_layer 	data[26] 	8931
scalar tree_4_3_u10_r12_network.node[26].content_store 	p_hit[26] 	0.27940939164112
scalar tree_4_3_u10_r12_network.node[26].content_store 	hits[26] 	3463
scalar tree_4_3_u10_r12_network.node[26].content_store 	misses[26] 	8931
scalar tree_4_3_u10_r12_network.node[26].content_store 	decision_yes[26] 	124
scalar tree_4_3_u10_r12_network.node[26].content_store 	decision_no[26] 	8807
scalar tree_4_3_u10_r12_network.node[26].content_store 	decision_ratio[26] 	0.01388422349121
scalar tree_4_3_u10_r12_network.node[27].core_layer 	interests[27] 	12917
scalar tree_4_3_u10_r12_network.node[27].core_layer 	data[27] 	8780
scalar tree_4_3_u10_r12_network.node[27].content_store 	p_hit[27] 	0.32027560579082
scalar tree_4_3_u10_r12_network.node[27].content_store 	hits[27] 	4137
scalar tree_4_3_u10_r12_network.node[27].content_store 	misses[27] 	8780
scalar tree_4_3_u10_r12_network.node[27].content_store 	decision_yes[27] 	117
scalar tree_4_3_u10_r12_network.node[27].content_store 	decision_no[27] 	8663
scalar tree_4_3_u10_r12_network.node[27].content_store 	decision_ratio[27] 	0.013325740318907
scalar tree_4_3_u10_r12_network.node[28].core_layer 	interests[28] 	13039
scalar tree_4_3_u10_r12_network.node[28].core_layer 	data[28] 	8822
scalar tree_4_3_u10_r12_network.node[28].content_store 	p_hit[28] 	0.32341437226781
scalar tree_4_3_u10_r12_network.node[28].content_store 	hits[28] 	4217
scalar tree_4_3_u10_r12_network.node[28].content_store 	misses[28] 	8822
scalar tree_4_3_u10_r12_network.node[28].content_store 	decision_yes[28] 	111
scalar tree_4_3_u10_r12_network.node[28].content_store 	decision_no[28] 	8711
scalar tree_4_3_u10_r12_network.node[28].content_store 	decision_ratio[28] 	0.012582180911358
scalar tree_4_3_u10_r12_network.node[29].core_layer 	interests[29] 	12809
scalar tree_4_3_u10_r12_network.node[29].core_layer 	data[29] 	8707
scalar tree_4_3_u10_r12_network.node[29].content_store 	p_hit[29] 	0.3202435787337
scalar tree_4_3_u10_r12_network.node[29].content_store 	hits[29] 	4102
scalar tree_4_3_u10_r12_network.node[29].content_store 	misses[29] 	8707
scalar tree_4_3_u10_r12_network.node[29].content_store 	decision_yes[29] 	117
scalar tree_4_3_u10_r12_network.node[29].content_store 	decision_no[29] 	8590
scalar tree_4_3_u10_r12_network.node[29].content_store 	decision_ratio[29] 	0.013437464109337
scalar tree_4_3_u10_r12_network.node[30].core_layer 	interests[30] 	12267
scalar tree_4_3_u10_r12_network.node[30].core_layer 	data[30] 	8797
scalar tree_4_3_u10_r12_network.node[30].content_store 	p_hit[30] 	0.28287274802315
scalar tree_4_3_u10_r12_network.node[30].content_store 	hits[30] 	3470
scalar tree_4_3_u10_r12_network.node[30].content_store 	misses[30] 	8797
scalar tree_4_3_u10_r12_network.node[30].content_store 	decision_yes[30] 	96
scalar tree_4_3_u10_r12_network.node[30].content_store 	decision_no[30] 	8701
scalar tree_4_3_u10_r12_network.node[30].content_store 	decision_ratio[30] 	0.010912811185631
scalar tree_4_3_u10_r12_network.node[31].core_layer 	interests[31] 	12565
scalar tree_4_3_u10_r12_network.node[31].core_layer 	data[31] 	8821
scalar tree_4_3_u10_r12_network.node[31].content_store 	p_hit[31] 	0.29797055312376
scalar tree_4_3_u10_r12_network.node[31].content_store 	hits[31] 	3744
scalar tree_4_3_u10_r12_network.node[31].content_store 	misses[31] 	8821
scalar tree_4_3_u10_r12_network.node[31].content_store 	decision_yes[31] 	100
scalar tree_4_3_u10_r12_network.node[31].content_store 	decision_no[31] 	8721
scalar tree_4_3_u10_r12_network.node[31].content_store 	decision_ratio[31] 	0.011336583153837
scalar tree_4_3_u10_r12_network.node[32].core_layer 	interests[32] 	12857
scalar tree_4_3_u10_r12_network.node[32].core_layer 	data[32] 	8780
scalar tree_4_3_u10_r12_network.node[32].content_store 	p_hit[32] 	0.31710352337248
scalar tree_4_3_u10_r12_network.node[32].content_store 	hits[32] 	4077
scalar tree_4_3_u10_r12_network.node[32].content_store 	misses[32] 	8780
scalar tree_4_3_u10_r12_network.node[32].content_store 	decision_yes[32] 	108
scalar tree_4_3_u10_r12_network.node[32].content_store 	decision_no[32] 	8672
scalar tree_4_3_u10_r12_network.node[32].content_store 	decision_ratio[32] 	0.012300683371298
scalar tree_4_3_u10_r12_network.node[33].core_layer 	interests[33] 	12705
scalar tree_4_3_u10_r12_network.node[33].core_layer 	data[33] 	8721
scalar tree_4_3_u10_r12_network.node[33].content_store 	p_hit[33] 	0.31357733175915
scalar tree_4_3_u10_r12_network.node[33].content_store 	hits[33] 	3984
scalar tree_4_3_u10_r12_network.node[33].content_store 	misses[33] 	8721
scalar tree_4_3_u10_r12_network.node[33].content_store 	decision_yes[33] 	105
scalar tree_4_3_u10_r12_network.node[33].content_store 	decision_no[33] 	8616
scalar tree_4_3_u10_r12_network.node[33].content_store 	decision_ratio[33] 	0.012039903680771
scalar tree_4_3_u10_r12_network.node[34].core_layer 	interests[34] 	12807
scalar tree_4_3_u10_r12_network.node[34].core_layer 	data[34] 	8741
scalar tree_4_3_u10_r12_network.node[34].content_store 	p_hit[34] 	0.31748262668853
scalar tree_4_3_u10_r12_network.node[34].content_store 	hits[34] 	4066
scalar tree_4_3_u10_r12_network.node[34].content_store 	misses[34] 	8741
scalar tree_4_3_u10_r12_network.node[34].content_store 	decision_yes[34] 	128
scalar tree_4_3_u10_r12_network.node[34].content_store 	decision_no[34] 	8613
scalar tree_4_3_u10_r12_network.node[34].content_store 	decision_ratio[34] 	0.01464363345155
scalar tree_4_3_u10_r12_network.node[35].core_layer 	interests[35] 	12654
scalar tree_4_3_u10_r12_network.node[35].core_layer 	data[35] 	8893
scalar tree_4_3_u10_r12_network.node[35].content_store 	p_hit[35] 	0.29721827090248
scalar tree_4_3_u10_r12_network.node[35].content_store 	hits[35] 	3761
scalar tree_4_3_u10_r12_network.node[35].content_store 	misses[35] 	8893
scalar tree_4_3_u10_r12_network.node[35].content_store 	decision_yes[35] 	128
scalar tree_4_3_u10_r12_network.node[35].content_store 	decision_no[35] 	8765
scalar tree_4_3_u10_r12_network.node[35].content_store 	decision_ratio[35] 	0.014393343078826
scalar tree_4_3_u10_r12_network.node[36].core_layer 	interests[36] 	12691
scalar tree_4_3_u10_r12_network.node[36].core_layer 	data[36] 	8708
scalar tree_4_3_u10_r12_network.node[36].content_store 	p_hit[36] 	0.31376566070444
scalar tree_4_3_u10_r12_network.node[36].content_store 	hits[36] 	3982
scalar tree_4_3_u10_r12_network.node[36].content_store 	misses[36] 	8709
scalar tree_4_3_u10_r12_network.node[36].content_store 	decision_yes[36] 	121
scalar tree_4_3_u10_r12_network.node[36].content_store 	decision_no[36] 	8587
scalar tree_4_3_u10_r12_network.node[36].content_store 	decision_ratio[36] 	0.01389526871842
scalar tree_4_3_u10_r12_network.node[37].core_layer 	interests[37] 	12886
scalar tree_4_3_u10_r12_network.node[37].core_layer 	data[37] 	8930
scalar tree_4_3_u10_r12_network.node[37].content_store 	p_hit[37] 	0.3069998447928
scalar tree_4_3_u10_r12_network.node[37].content_store 	hits[37] 	3956
scalar tree_4_3_u10_r12_network.node[37].content_store 	misses[37] 	8930
scalar tree_4_3_u10_r12_network.node[37].content_store 	decision_yes[37] 	130
scalar tree_4_3_u10_r12_network.node[37].content_store 	decision_no[37] 	8800
scalar tree_4_3_u10_r12_network.node[37].content_store 	decision_ratio[37] 	0.014557670772676
scalar tree_4_3_u10_r12_network.node[38].core_layer 	interests[38] 	13102
scalar tree_4_3_u10_r12_network.node[38].core_layer 	data[38] 	9112
scalar tree_4_3_u10_r12_network.node[38].content_store 	p_hit[38] 	0.30453365898336
scalar tree_4_3_u10_r12_network.node[38].content_store 	hits[38] 	3990
scalar tree_4_3_u10_r12_network.node[38].content_store 	misses[38] 	9112
scalar tree_4_3_u10_r12_network.node[38].content_store 	decision_yes[38] 	133
scalar tree_4_3_u10_r12_network.node[38].content_store 	decision_no[38] 	8979
scalar tree_4_3_u10_r12_network.node[38].content_store 	decision_ratio[38] 	0.014596136962248
scalar tree_4_3_u10_r12_network.node[39].core_layer 	interests[39] 	12155
scalar tree_4_3_u10_r12_network.node[39].core_layer 	data[39] 	8806
scalar tree_4_3_u10_r12_network.node[39].content_store 	p_hit[39] 	0.27560674619498
scalar tree_4_3_u10_r12_network.node[39].content_store 	hits[39] 	3350
scalar tree_4_3_u10_r12_network.node[39].content_store 	misses[39] 	8805
scalar tree_4_3_u10_r12_network.node[39].content_store 	decision_yes[39] 	127
scalar tree_4_3_u10_r12_network.node[39].content_store 	decision_no[39] 	8679
scalar tree_4_3_u10_r12_network.node[39].content_store 	decision_ratio[39] 	0.01442198501022
scalar tree_4_3_u10_r12_network.client[13] 	hdistance[13] 	2.6656552402821
scalar tree_4_3_u10_r12_network.client[13] 	downloads[13] 	12194
scalar tree_4_3_u10_r12_network.client[13] 	avg_time[13] 	0.00418992643
scalar tree_4_3_u10_r12_network.client[14] 	hdistance[14] 	2.5794189064724
scalar tree_4_3_u10_r12_network.client[14] 	downloads[14] 	11943
scalar tree_4_3_u10_r12_network.client[14] 	avg_time[14] 	0.004062871533
scalar tree_4_3_u10_r12_network.client[15] 	hdistance[15] 	2.6007046388726
scalar tree_4_3_u10_r12_network.client[15] 	downloads[15] 	11921
scalar tree_4_3_u10_r12_network.client[15] 	avg_time[15] 	0.004082776699
scalar tree_4_3_u10_r12_network.client[16] 	hdistance[16] 	2.5794127460794
scalar tree_4_3_u10_r12_network.client[16] 	downloads[16] 	11988
scalar tree_4_3_u10_r12_network.client[16] 	avg_time[16] 	0.004062059082
scalar tree_4_3_u10_r12_network.client[17] 	hdistance[17] 	2.6541478884994
scalar tree_4_3_u10_r12_network.client[17] 	downloads[17] 	11982
scalar tree_4_3_u10_r12_network.client[17] 	avg_time[17] 	0.004204470384
scalar tree_4_3_u10_r12_network.client[18] 	hdistance[18] 	2.5599288979177
scalar tree_4_3_u10_r12_network.client[18] 	downloads[18] 	11814
scalar tree_4_3_u10_r12_network.client[18] 	avg_time[18] 	0.004023359162
scalar tree_4_3_u10_r12_network.client[19] 	hdistance[19] 	2.5916701374427
scalar tree_4_3_u10_r12_network.client[19] 	downloads[19] 	12005
scalar tree_4_3_u10_r12_network.client[19] 	avg_time[19] 	0.004074132766
scalar tree_4_3_u10_r12_network.client[20] 	hdistance[20] 	2.5589108910891
scalar tree_4_3_u10_r12_network.client[20] 	downloads[20] 	12120
scalar tree_4_3_u10_r12_network.client[20] 	avg_time[20] 	0.004028886785
scalar tree_4_3_u10_r12_network.client[21] 	hdistance[21] 	2.6357561257322
scalar tree_4_3_u10_r12_network.client[21] 	downloads[21] 	12121
scalar tree_4_3_u10_r12_network.client[21] 	avg_time[21] 	0.004161204545
scalar tree_4_3_u10_r12_network.client[22] 	hdistance[22] 	2.6096755062272
scalar tree_4_3_u10_r12_network.client[22] 	downloads[22] 	11803
scalar tree_4_3_u10_r12_network.client[22] 	avg_time[22] 	0.004130906602
scalar tree_4_3_u10_r12_network.client[23] 	hdistance[23] 	2.5788120126099
scalar tree_4_3_u10_r12_network.client[23] 	downloads[23] 	12054
scalar tree_4_3_u10_r12_network.client[23] 	avg_time[23] 	0.00405713601
scalar tree_4_3_u10_r12_network.client[24] 	hdistance[24] 	2.5588161941974
scalar tree_4_3_u10_r12_network.client[24] 	downloads[24] 	12029
scalar tree_4_3_u10_r12_network.client[24] 	avg_time[24] 	0.004027264373
scalar tree_4_3_u10_r12_network.client[25] 	hdistance[25] 	2.613949987455
scalar tree_4_3_u10_r12_network.client[25] 	downloads[25] 	11957
scalar tree_4_3_u10_r12_network.client[25] 	avg_time[25] 	0.004110392611
scalar tree_4_3_u10_r12_network.client[26] 	hdistance[26] 	2.6876404494382
scalar tree_4_3_u10_r12_network.client[26] 	downloads[26] 	12015
scalar tree_4_3_u10_r12_network.client[26] 	avg_time[26] 	0.004217558375
scalar tree_4_3_u10_r12_network.client[27] 	hdistance[27] 	2.5633001422475
scalar tree_4_3_u10_r12_network.client[27] 	downloads[27] 	11951
scalar tree_4_3_u10_r12_network.client[27] 	avg_time[27] 	0.004026605694
scalar tree_4_3_u10_r12_network.client[28] 	hdistance[28] 	2.5275225560798
scalar tree_4_3_u10_r12_network.client[28] 	downloads[28] 	12081
scalar tree_4_3_u10_r12_network.client[28] 	avg_time[28] 	0.00398013109
scalar tree_4_3_u10_r12_network.client[29] 	hdistance[29] 	2.554769722994
scalar tree_4_3_u10_r12_network.client[29] 	downloads[29] 	11877
scalar tree_4_3_u10_r12_network.client[29] 	avg_time[29] 	0.00401548913
scalar tree_4_3_u10_r12_network.client[30] 	hdistance[30] 	2.6523345649983
scalar tree_4_3_u10_r12_network.client[30] 	downloads[30] 	11908
scalar tree_4_3_u10_r12_network.client[30] 	avg_time[30] 	0.004187098117
scalar tree_4_3_u10_r12_network.client[31] 	hdistance[31] 	2.6329924336909
scalar tree_4_3_u10_r12_network.client[31] 	downloads[31] 	12027
scalar tree_4_3_u10_r12_network.client[31] 	avg_time[31] 	0.004157143399
scalar tree_4_3_u10_r12_network.client[32] 	hdistance[32] 	2.5588702264561
scalar tree_4_3_u10_r12_network.client[32] 	downloads[32] 	11967
scalar tree_4_3_u10_r12_network.client[32] 	avg_time[32] 	0.004031750988
scalar tree_4_3_u10_r12_network.client[33] 	hdistance[33] 	2.5905858449035
scalar tree_4_3_u10_r12_network.client[33] 	downloads[33] 	11812
scalar tree_4_3_u10_r12_network.client[33] 	avg_time[33] 	0.004068740695
scalar tree_4_3_u10_r12_network.client[34] 	hdistance[34] 	2.5746230730137
scalar tree_4_3_u10_r12_network.client[34] 	downloads[34] 	11806
scalar tree_4_3_u10_r12_network.client[34] 	avg_time[34] 	0.004059288926
scalar tree_4_3_u10_r12_network.client[35] 	hdistance[35] 	2.6175024582104
scalar tree_4_3_u10_r12_network.client[35] 	downloads[35] 	12204
scalar tree_4_3_u10_r12_network.client[35] 	avg_time[35] 	0.0041292988
scalar tree_4_3_u10_r12_network.client[36] 	hdistance[36] 	2.5750380260267
scalar tree_4_3_u10_r12_network.client[36] 	downloads[36] 	11834
scalar tree_4_3_u10_r12_network.client[36] 	avg_time[36] 	0.004049111318
scalar tree_4_3_u10_r12_network.client[37] 	hdistance[37] 	2.5831611997026
scalar tree_4_3_u10_r12_network.client[37] 	downloads[37] 	12103
scalar tree_4_3_u10_r12_network.client[37] 	avg_time[37] 	0.00405998209
scalar tree_4_3_u10_r12_network.client[38] 	hdistance[38] 	2.5994137762579
scalar tree_4_3_u10_r12_network.client[38] 	downloads[38] 	12282
scalar tree_4_3_u10_r12_network.client[38] 	avg_time[38] 	0.004082498681
scalar tree_4_3_u10_r12_network.client[39] 	hdistance[39] 	2.6792263250439
scalar tree_4_3_u10_r12_network.client[39] 	downloads[39] 	11943
scalar tree_4_3_u10_r12_network.client[39] 	avg_time[39] 	0.004193918137
