version 2
run General-179-20160819-13:52:21-2054
attr a 0.9
attr cd lcd
attr configname General
attr cr lru
attr datetime 20160819-13:52:21
attr experiment General
attr fsize 1
attr inifile hw5115/scenario_A/NRR-LCD.ini
attr iterationvars "$name=tree_4_3, $un=08, $rep=20, $cd=lcd, $cr=lru, $fsize=1, $a=0.9, $sl=nrr, $ttl=1000, $variance=0.05"
attr iterationvars2 "$name=tree_4_3, $un=08, $rep=20, $cd=lcd, $cr=lru, $fsize=1, $a=0.9, $sl=nrr, $ttl=1000, $variance=0.05, $repetition=0"
attr measurement "$name=tree_4_3, $un=08, $rep=20, $cd=lcd, $cr=lru, $fsize=1, $a=0.9, $sl=nrr, $ttl=1000, $variance=0.05"
attr name tree_4_3
attr network networks.${name}_u${un}_r${rep}_network
attr processid 2054
attr rep 20
attr repetition 0
attr replication #0
attr resultdir results
attr runnumber 179
attr seedset 20
attr sl nrr
attr ttl 1000
attr un 08
attr variance 0.05

scalar . 	a 	0.9
scalar . 	fsize 	1
scalar . 	rep 	20
scalar . 	ttl 	1000
scalar . 	un 	08
scalar . 	variance 	0.05
scalar tree_4_3_u08_r20_network.content_distribution 	repo-0 	0
scalar tree_4_3_u08_r20_network.content_distribution 	client-0 	13
scalar tree_4_3_u08_r20_network.content_distribution 	client-1 	14
scalar tree_4_3_u08_r20_network.content_distribution 	client-2 	15
scalar tree_4_3_u08_r20_network.content_distribution 	client-3 	16
scalar tree_4_3_u08_r20_network.content_distribution 	client-4 	17
scalar tree_4_3_u08_r20_network.content_distribution 	client-5 	18
scalar tree_4_3_u08_r20_network.content_distribution 	client-6 	19
scalar tree_4_3_u08_r20_network.content_distribution 	client-7 	20
scalar tree_4_3_u08_r20_network.content_distribution 	client-8 	21
scalar tree_4_3_u08_r20_network.content_distribution 	client-9 	22
scalar tree_4_3_u08_r20_network.content_distribution 	client-10 	23
scalar tree_4_3_u08_r20_network.content_distribution 	client-11 	24
scalar tree_4_3_u08_r20_network.content_distribution 	client-12 	25
scalar tree_4_3_u08_r20_network.content_distribution 	client-13 	26
scalar tree_4_3_u08_r20_network.content_distribution 	client-14 	27
scalar tree_4_3_u08_r20_network.content_distribution 	client-15 	28
scalar tree_4_3_u08_r20_network.content_distribution 	client-16 	29
scalar tree_4_3_u08_r20_network.content_distribution 	client-17 	30
scalar tree_4_3_u08_r20_network.content_distribution 	client-18 	31
scalar tree_4_3_u08_r20_network.content_distribution 	client-19 	32
scalar tree_4_3_u08_r20_network.content_distribution 	client-20 	33
scalar tree_4_3_u08_r20_network.content_distribution 	client-21 	34
scalar tree_4_3_u08_r20_network.content_distribution 	client-22 	35
scalar tree_4_3_u08_r20_network.content_distribution 	client-23 	36
scalar tree_4_3_u08_r20_network.content_distribution 	client-24 	37
scalar tree_4_3_u08_r20_network.content_distribution 	client-25 	38
scalar tree_4_3_u08_r20_network.content_distribution 	client-26 	39
scalar tree_4_3_u08_r20_network.content_distribution 	repo-0_card 	100000
scalar tree_4_3_u08_r20_network.content_distribution 	repo-0_price 	0
scalar tree_4_3_u08_r20_network.statistics 	stabilization_time 	702.7
scalar tree_4_3_u08_r20_network.statistics 	p_hit 	0.22198631234643
scalar tree_4_3_u08_r20_network.statistics 	interests 	24888.625
scalar tree_4_3_u08_r20_network.statistics 	data 	16764.175
scalar tree_4_3_u08_r20_network.statistics 	hdistance 	2.6747426298822
scalar tree_4_3_u08_r20_network.statistics 	avg_time 	0.004126964308
scalar tree_4_3_u08_r20_network.statistics 	downloads 	324974
scalar tree_4_3_u08_r20_network.statistics 	total_cost 	0
scalar tree_4_3_u08_r20_network.statistics 	total_replicas 	100000
scalar tree_4_3_u08_r20_network.statistics 	inner_hit 	0.38879110328826
scalar tree_4_3_u08_r20_network.node[0].core_layer 	interests[0] 	199883
scalar tree_4_3_u08_r20_network.node[0].core_layer 	repo_load[0] 	198627
scalar tree_4_3_u08_r20_network.node[0].core_layer 	data[0] 	0
scalar tree_4_3_u08_r20_network.node[0].core_layer 	repo_int[0] 	198627
scalar tree_4_3_u08_r20_network.node[0].content_store 	p_hit[0] 	0.006283675950431
scalar tree_4_3_u08_r20_network.node[0].content_store 	hits[0] 	1256
scalar tree_4_3_u08_r20_network.node[0].content_store 	misses[0] 	198627
scalar tree_4_3_u08_r20_network.node[0].content_store 	decision_yes[0] 	198627
scalar tree_4_3_u08_r20_network.node[0].content_store 	decision_no[0] 	0
scalar tree_4_3_u08_r20_network.node[0].content_store 	decision_ratio[0] 	1
scalar tree_4_3_u08_r20_network.node[1].core_layer 	interests[1] 	129946
scalar tree_4_3_u08_r20_network.node[1].core_layer 	data[1] 	127595
scalar tree_4_3_u08_r20_network.node[1].content_store 	p_hit[1] 	0.01808443507303
scalar tree_4_3_u08_r20_network.node[1].content_store 	hits[1] 	2350
scalar tree_4_3_u08_r20_network.node[1].content_store 	misses[1] 	127596
scalar tree_4_3_u08_r20_network.node[1].content_store 	decision_yes[1] 	2690
scalar tree_4_3_u08_r20_network.node[1].content_store 	decision_no[1] 	124905
scalar tree_4_3_u08_r20_network.node[1].content_store 	decision_ratio[1] 	0.021082330812336
scalar tree_4_3_u08_r20_network.node[2].core_layer 	interests[2] 	56559
scalar tree_4_3_u08_r20_network.node[2].core_layer 	data[2] 	54027
scalar tree_4_3_u08_r20_network.node[2].content_store 	p_hit[2] 	0.044749730370056
scalar tree_4_3_u08_r20_network.node[2].content_store 	hits[2] 	2531
scalar tree_4_3_u08_r20_network.node[2].content_store 	misses[2] 	54028
scalar tree_4_3_u08_r20_network.node[2].content_store 	decision_yes[2] 	1841
scalar tree_4_3_u08_r20_network.node[2].content_store 	decision_no[2] 	52186
scalar tree_4_3_u08_r20_network.node[2].content_store 	decision_ratio[2] 	0.034075554815185
scalar tree_4_3_u08_r20_network.node[3].core_layer 	interests[3] 	26138
scalar tree_4_3_u08_r20_network.node[3].core_layer 	data[3] 	24114
scalar tree_4_3_u08_r20_network.node[3].content_store 	p_hit[3] 	0.077435151886143
scalar tree_4_3_u08_r20_network.node[3].content_store 	hits[3] 	2024
scalar tree_4_3_u08_r20_network.node[3].content_store 	misses[3] 	24114
scalar tree_4_3_u08_r20_network.node[3].content_store 	decision_yes[3] 	1187
scalar tree_4_3_u08_r20_network.node[3].content_store 	decision_no[3] 	22927
scalar tree_4_3_u08_r20_network.node[3].content_store 	decision_ratio[3] 	0.049224516878162
scalar tree_4_3_u08_r20_network.node[4].core_layer 	interests[4] 	41925
scalar tree_4_3_u08_r20_network.node[4].core_layer 	data[4] 	39776
scalar tree_4_3_u08_r20_network.node[4].content_store 	p_hit[4] 	0.051210494931425
scalar tree_4_3_u08_r20_network.node[4].content_store 	hits[4] 	2147
scalar tree_4_3_u08_r20_network.node[4].content_store 	misses[4] 	39778
scalar tree_4_3_u08_r20_network.node[4].content_store 	decision_yes[4] 	2111
scalar tree_4_3_u08_r20_network.node[4].content_store 	decision_no[4] 	37665
scalar tree_4_3_u08_r20_network.node[4].content_store 	decision_ratio[4] 	0.053072204344328
scalar tree_4_3_u08_r20_network.node[5].core_layer 	interests[5] 	28417
scalar tree_4_3_u08_r20_network.node[5].core_layer 	data[5] 	25762
scalar tree_4_3_u08_r20_network.node[5].content_store 	p_hit[5] 	0.09339479888799
scalar tree_4_3_u08_r20_network.node[5].content_store 	hits[5] 	2654
scalar tree_4_3_u08_r20_network.node[5].content_store 	misses[5] 	25763
scalar tree_4_3_u08_r20_network.node[5].content_store 	decision_yes[5] 	2841
scalar tree_4_3_u08_r20_network.node[5].content_store 	decision_no[5] 	22921
scalar tree_4_3_u08_r20_network.node[5].content_store 	decision_ratio[5] 	0.11027870506948
scalar tree_4_3_u08_r20_network.node[6].core_layer 	interests[6] 	11214
scalar tree_4_3_u08_r20_network.node[6].core_layer 	data[6] 	9127
scalar tree_4_3_u08_r20_network.node[6].content_store 	p_hit[6] 	0.18610665239879
scalar tree_4_3_u08_r20_network.node[6].content_store 	hits[6] 	2087
scalar tree_4_3_u08_r20_network.node[6].content_store 	misses[6] 	9127
scalar tree_4_3_u08_r20_network.node[6].content_store 	decision_yes[6] 	1400
scalar tree_4_3_u08_r20_network.node[6].content_store 	decision_no[6] 	7727
scalar tree_4_3_u08_r20_network.node[6].content_store 	decision_ratio[6] 	0.1533910375808
scalar tree_4_3_u08_r20_network.node[7].core_layer 	interests[7] 	34344
scalar tree_4_3_u08_r20_network.node[7].core_layer 	data[7] 	32213
scalar tree_4_3_u08_r20_network.node[7].content_store 	p_hit[7] 	0.06204868390403
scalar tree_4_3_u08_r20_network.node[7].content_store 	hits[7] 	2131
scalar tree_4_3_u08_r20_network.node[7].content_store 	misses[7] 	32213
scalar tree_4_3_u08_r20_network.node[7].content_store 	decision_yes[7] 	2219
scalar tree_4_3_u08_r20_network.node[7].content_store 	decision_no[7] 	29994
scalar tree_4_3_u08_r20_network.node[7].content_store 	decision_ratio[7] 	0.06888523267004
scalar tree_4_3_u08_r20_network.node[8].core_layer 	interests[8] 	34952
scalar tree_4_3_u08_r20_network.node[8].core_layer 	data[8] 	32809
scalar tree_4_3_u08_r20_network.node[8].content_store 	p_hit[8] 	0.061312657358663
scalar tree_4_3_u08_r20_network.node[8].content_store 	hits[8] 	2143
scalar tree_4_3_u08_r20_network.node[8].content_store 	misses[8] 	32809
scalar tree_4_3_u08_r20_network.node[8].content_store 	decision_yes[8] 	2213
scalar tree_4_3_u08_r20_network.node[8].content_store 	decision_no[8] 	30596
scalar tree_4_3_u08_r20_network.node[8].content_store 	decision_ratio[8] 	0.067451004297601
scalar tree_4_3_u08_r20_network.node[9].core_layer 	interests[9] 	12516
scalar tree_4_3_u08_r20_network.node[9].core_layer 	data[9] 	10042
scalar tree_4_3_u08_r20_network.node[9].content_store 	p_hit[9] 	0.19766698625759
scalar tree_4_3_u08_r20_network.node[9].content_store 	hits[9] 	2474
scalar tree_4_3_u08_r20_network.node[9].content_store 	misses[9] 	10042
scalar tree_4_3_u08_r20_network.node[9].content_store 	decision_yes[9] 	2240
scalar tree_4_3_u08_r20_network.node[9].content_store 	decision_no[9] 	7802
scalar tree_4_3_u08_r20_network.node[9].content_store 	decision_ratio[9] 	0.2230631348337
scalar tree_4_3_u08_r20_network.node[10].core_layer 	interests[10] 	34646
scalar tree_4_3_u08_r20_network.node[10].core_layer 	data[10] 	32302
scalar tree_4_3_u08_r20_network.node[10].content_store 	p_hit[10] 	0.067626854470935
scalar tree_4_3_u08_r20_network.node[10].content_store 	hits[10] 	2343
scalar tree_4_3_u08_r20_network.node[10].content_store 	misses[10] 	32303
scalar tree_4_3_u08_r20_network.node[10].content_store 	decision_yes[10] 	2232
scalar tree_4_3_u08_r20_network.node[10].content_store 	decision_no[10] 	30070
scalar tree_4_3_u08_r20_network.node[10].content_store 	decision_ratio[10] 	0.069097888675624
scalar tree_4_3_u08_r20_network.node[11].core_layer 	interests[11] 	19389
scalar tree_4_3_u08_r20_network.node[11].core_layer 	data[11] 	17304
scalar tree_4_3_u08_r20_network.node[11].content_store 	p_hit[11] 	0.10753520037134
scalar tree_4_3_u08_r20_network.node[11].content_store 	hits[11] 	2085
scalar tree_4_3_u08_r20_network.node[11].content_store 	misses[11] 	17304
scalar tree_4_3_u08_r20_network.node[11].content_store 	decision_yes[11] 	1896
scalar tree_4_3_u08_r20_network.node[11].content_store 	decision_no[11] 	15408
scalar tree_4_3_u08_r20_network.node[11].content_store 	decision_ratio[11] 	0.10957004160888
scalar tree_4_3_u08_r20_network.node[12].core_layer 	interests[12] 	28109
scalar tree_4_3_u08_r20_network.node[12].core_layer 	data[12] 	25837
scalar tree_4_3_u08_r20_network.node[12].content_store 	p_hit[12] 	0.080792628695436
scalar tree_4_3_u08_r20_network.node[12].content_store 	hits[12] 	2271
scalar tree_4_3_u08_r20_network.node[12].content_store 	misses[12] 	25838
scalar tree_4_3_u08_r20_network.node[12].content_store 	decision_yes[12] 	2282
scalar tree_4_3_u08_r20_network.node[12].content_store 	decision_no[12] 	23555
scalar tree_4_3_u08_r20_network.node[12].content_store 	decision_ratio[12] 	0.088322947710648
scalar tree_4_3_u08_r20_network.node[13].core_layer 	interests[13] 	12247
scalar tree_4_3_u08_r20_network.node[13].core_layer 	data[13] 	8780
scalar tree_4_3_u08_r20_network.node[13].content_store 	p_hit[13] 	0.28308973626194
scalar tree_4_3_u08_r20_network.node[13].content_store 	hits[13] 	3467
scalar tree_4_3_u08_r20_network.node[13].content_store 	misses[13] 	8780
scalar tree_4_3_u08_r20_network.node[13].content_store 	decision_yes[13] 	398
scalar tree_4_3_u08_r20_network.node[13].content_store 	decision_no[13] 	8382
scalar tree_4_3_u08_r20_network.node[13].content_store 	decision_ratio[13] 	0.045330296127563
scalar tree_4_3_u08_r20_network.node[14].core_layer 	interests[14] 	12607
scalar tree_4_3_u08_r20_network.node[14].core_layer 	data[14] 	8866
scalar tree_4_3_u08_r20_network.node[14].content_store 	p_hit[14] 	0.29673990640121
scalar tree_4_3_u08_r20_network.node[14].content_store 	hits[14] 	3741
scalar tree_4_3_u08_r20_network.node[14].content_store 	misses[14] 	8866
scalar tree_4_3_u08_r20_network.node[14].content_store 	decision_yes[14] 	744
scalar tree_4_3_u08_r20_network.node[14].content_store 	decision_no[14] 	8122
scalar tree_4_3_u08_r20_network.node[14].content_store 	decision_ratio[14] 	0.083916083916084
scalar tree_4_3_u08_r20_network.node[15].core_layer 	interests[15] 	12426
scalar tree_4_3_u08_r20_network.node[15].core_layer 	data[15] 	8775
scalar tree_4_3_u08_r20_network.node[15].content_store 	p_hit[15] 	0.2938194109126
scalar tree_4_3_u08_r20_network.node[15].content_store 	hits[15] 	3651
scalar tree_4_3_u08_r20_network.node[15].content_store 	misses[15] 	8775
scalar tree_4_3_u08_r20_network.node[15].content_store 	decision_yes[15] 	681
scalar tree_4_3_u08_r20_network.node[15].content_store 	decision_no[15] 	8094
scalar tree_4_3_u08_r20_network.node[15].content_store 	decision_ratio[15] 	0.077606837606838
scalar tree_4_3_u08_r20_network.node[16].core_layer 	interests[16] 	12595
scalar tree_4_3_u08_r20_network.node[16].core_layer 	data[16] 	8927
scalar tree_4_3_u08_r20_network.node[16].content_store 	p_hit[16] 	0.29122667725288
scalar tree_4_3_u08_r20_network.node[16].content_store 	hits[16] 	3668
scalar tree_4_3_u08_r20_network.node[16].content_store 	misses[16] 	8927
scalar tree_4_3_u08_r20_network.node[16].content_store 	decision_yes[16] 	784
scalar tree_4_3_u08_r20_network.node[16].content_store 	decision_no[16] 	8143
scalar tree_4_3_u08_r20_network.node[16].content_store 	decision_ratio[16] 	0.087823456928419
scalar tree_4_3_u08_r20_network.node[17].core_layer 	interests[17] 	12272
scalar tree_4_3_u08_r20_network.node[17].core_layer 	data[17] 	8835
scalar tree_4_3_u08_r20_network.node[17].content_store 	p_hit[17] 	0.28006844850065
scalar tree_4_3_u08_r20_network.node[17].content_store 	hits[17] 	3437
scalar tree_4_3_u08_r20_network.node[17].content_store 	misses[17] 	8835
scalar tree_4_3_u08_r20_network.node[17].content_store 	decision_yes[17] 	390
scalar tree_4_3_u08_r20_network.node[17].content_store 	decision_no[17] 	8445
scalar tree_4_3_u08_r20_network.node[17].content_store 	decision_ratio[17] 	0.044142614601019
scalar tree_4_3_u08_r20_network.node[18].core_layer 	interests[18] 	12670
scalar tree_4_3_u08_r20_network.node[18].core_layer 	data[18] 	8943
scalar tree_4_3_u08_r20_network.node[18].content_store 	p_hit[18] 	0.29408050513023
scalar tree_4_3_u08_r20_network.node[18].content_store 	hits[18] 	3726
scalar tree_4_3_u08_r20_network.node[18].content_store 	misses[18] 	8944
scalar tree_4_3_u08_r20_network.node[18].content_store 	decision_yes[18] 	726
scalar tree_4_3_u08_r20_network.node[18].content_store 	decision_no[18] 	8217
scalar tree_4_3_u08_r20_network.node[18].content_store 	decision_ratio[18] 	0.081180811808118
scalar tree_4_3_u08_r20_network.node[19].core_layer 	interests[19] 	12468
scalar tree_4_3_u08_r20_network.node[19].core_layer 	data[19] 	8851
scalar tree_4_3_u08_r20_network.node[19].content_store 	p_hit[19] 	0.29010266281681
scalar tree_4_3_u08_r20_network.node[19].content_store 	hits[19] 	3617
scalar tree_4_3_u08_r20_network.node[19].content_store 	misses[19] 	8851
scalar tree_4_3_u08_r20_network.node[19].content_store 	decision_yes[19] 	712
scalar tree_4_3_u08_r20_network.node[19].content_store 	decision_no[19] 	8139
scalar tree_4_3_u08_r20_network.node[19].content_store 	decision_ratio[19] 	0.080442887809287
scalar tree_4_3_u08_r20_network.node[20].core_layer 	interests[20] 	12867
scalar tree_4_3_u08_r20_network.node[20].core_layer 	data[20] 	9053
scalar tree_4_3_u08_r20_network.node[20].content_store 	p_hit[20] 	0.29641719126448
scalar tree_4_3_u08_r20_network.node[20].content_store 	hits[20] 	3814
scalar tree_4_3_u08_r20_network.node[20].content_store 	misses[20] 	9053
scalar tree_4_3_u08_r20_network.node[20].content_store 	decision_yes[20] 	728
scalar tree_4_3_u08_r20_network.node[20].content_store 	decision_no[20] 	8325
scalar tree_4_3_u08_r20_network.node[20].content_store 	decision_ratio[20] 	0.080415331934165
scalar tree_4_3_u08_r20_network.node[21].core_layer 	interests[21] 	12248
scalar tree_4_3_u08_r20_network.node[21].core_layer 	data[21] 	8749
scalar tree_4_3_u08_r20_network.node[21].content_store 	p_hit[21] 	0.28567929457871
scalar tree_4_3_u08_r20_network.node[21].content_store 	hits[21] 	3499
scalar tree_4_3_u08_r20_network.node[21].content_store 	misses[21] 	8749
scalar tree_4_3_u08_r20_network.node[21].content_store 	decision_yes[21] 	375
scalar tree_4_3_u08_r20_network.node[21].content_store 	decision_no[21] 	8374
scalar tree_4_3_u08_r20_network.node[21].content_store 	decision_ratio[21] 	0.042862041376157
scalar tree_4_3_u08_r20_network.node[22].core_layer 	interests[22] 	12315
scalar tree_4_3_u08_r20_network.node[22].core_layer 	data[22] 	8878
scalar tree_4_3_u08_r20_network.node[22].content_store 	p_hit[22] 	0.27909053999188
scalar tree_4_3_u08_r20_network.node[22].content_store 	hits[22] 	3437
scalar tree_4_3_u08_r20_network.node[22].content_store 	misses[22] 	8878
scalar tree_4_3_u08_r20_network.node[22].content_store 	decision_yes[22] 	382
scalar tree_4_3_u08_r20_network.node[22].content_store 	decision_no[22] 	8496
scalar tree_4_3_u08_r20_network.node[22].content_store 	decision_ratio[22] 	0.043027708943456
scalar tree_4_3_u08_r20_network.node[23].core_layer 	interests[23] 	12625
scalar tree_4_3_u08_r20_network.node[23].core_layer 	data[23] 	8817
scalar tree_4_3_u08_r20_network.node[23].content_store 	p_hit[23] 	0.30162376237624
scalar tree_4_3_u08_r20_network.node[23].content_store 	hits[23] 	3808
scalar tree_4_3_u08_r20_network.node[23].content_store 	misses[23] 	8817
scalar tree_4_3_u08_r20_network.node[23].content_store 	decision_yes[23] 	718
scalar tree_4_3_u08_r20_network.node[23].content_store 	decision_no[23] 	8099
scalar tree_4_3_u08_r20_network.node[23].content_store 	decision_ratio[23] 	0.081433594193036
scalar tree_4_3_u08_r20_network.node[24].core_layer 	interests[24] 	12632
scalar tree_4_3_u08_r20_network.node[24].core_layer 	data[24] 	8964
scalar tree_4_3_u08_r20_network.node[24].content_store 	p_hit[24] 	0.29037365421153
scalar tree_4_3_u08_r20_network.node[24].content_store 	hits[24] 	3668
scalar tree_4_3_u08_r20_network.node[24].content_store 	misses[24] 	8964
scalar tree_4_3_u08_r20_network.node[24].content_store 	decision_yes[24] 	769
scalar tree_4_3_u08_r20_network.node[24].content_store 	decision_no[24] 	8195
scalar tree_4_3_u08_r20_network.node[24].content_store 	decision_ratio[24] 	0.085787594823739
scalar tree_4_3_u08_r20_network.node[25].core_layer 	interests[25] 	12289
scalar tree_4_3_u08_r20_network.node[25].core_layer 	data[25] 	8759
scalar tree_4_3_u08_r20_network.node[25].content_store 	p_hit[25] 	0.28716738546668
scalar tree_4_3_u08_r20_network.node[25].content_store 	hits[25] 	3529
scalar tree_4_3_u08_r20_network.node[25].content_store 	misses[25] 	8760
scalar tree_4_3_u08_r20_network.node[25].content_store 	decision_yes[25] 	382
scalar tree_4_3_u08_r20_network.node[25].content_store 	decision_no[25] 	8377
scalar tree_4_3_u08_r20_network.node[25].content_store 	decision_ratio[25] 	0.043612284507364
scalar tree_4_3_u08_r20_network.node[26].core_layer 	interests[26] 	12401
scalar tree_4_3_u08_r20_network.node[26].core_layer 	data[26] 	8734
scalar tree_4_3_u08_r20_network.node[26].content_store 	p_hit[26] 	0.29570195951939
scalar tree_4_3_u08_r20_network.node[26].content_store 	hits[26] 	3667
scalar tree_4_3_u08_r20_network.node[26].content_store 	misses[26] 	8734
scalar tree_4_3_u08_r20_network.node[26].content_store 	decision_yes[26] 	371
scalar tree_4_3_u08_r20_network.node[26].content_store 	decision_no[26] 	8363
scalar tree_4_3_u08_r20_network.node[26].content_store 	decision_ratio[26] 	0.042477673460041
scalar tree_4_3_u08_r20_network.node[27].core_layer 	interests[27] 	12720
scalar tree_4_3_u08_r20_network.node[27].core_layer 	data[27] 	8871
scalar tree_4_3_u08_r20_network.node[27].content_store 	p_hit[27] 	0.30251572327044
scalar tree_4_3_u08_r20_network.node[27].content_store 	hits[27] 	3848
scalar tree_4_3_u08_r20_network.node[27].content_store 	misses[27] 	8872
scalar tree_4_3_u08_r20_network.node[27].content_store 	decision_yes[27] 	716
scalar tree_4_3_u08_r20_network.node[27].content_store 	decision_no[27] 	8155
scalar tree_4_3_u08_r20_network.node[27].content_store 	decision_ratio[27] 	0.080712433772968
scalar tree_4_3_u08_r20_network.node[28].core_layer 	interests[28] 	12509
scalar tree_4_3_u08_r20_network.node[28].core_layer 	data[28] 	8853
scalar tree_4_3_u08_r20_network.node[28].content_store 	p_hit[28] 	0.29226956591254
scalar tree_4_3_u08_r20_network.node[28].content_store 	hits[28] 	3656
scalar tree_4_3_u08_r20_network.node[28].content_store 	misses[28] 	8853
scalar tree_4_3_u08_r20_network.node[28].content_store 	decision_yes[28] 	753
scalar tree_4_3_u08_r20_network.node[28].content_store 	decision_no[28] 	8100
scalar tree_4_3_u08_r20_network.node[28].content_store 	decision_ratio[28] 	0.085055913249746
scalar tree_4_3_u08_r20_network.node[29].core_layer 	interests[29] 	12908
scalar tree_4_3_u08_r20_network.node[29].core_layer 	data[29] 	9062
scalar tree_4_3_u08_r20_network.node[29].content_store 	p_hit[29] 	0.29795475674001
scalar tree_4_3_u08_r20_network.node[29].content_store 	hits[29] 	3846
scalar tree_4_3_u08_r20_network.node[29].content_store 	misses[29] 	9062
scalar tree_4_3_u08_r20_network.node[29].content_store 	decision_yes[29] 	763
scalar tree_4_3_u08_r20_network.node[29].content_store 	decision_no[29] 	8299
scalar tree_4_3_u08_r20_network.node[29].content_store 	decision_ratio[29] 	0.084197748841315
scalar tree_4_3_u08_r20_network.node[30].core_layer 	interests[30] 	12306
scalar tree_4_3_u08_r20_network.node[30].core_layer 	data[30] 	8852
scalar tree_4_3_u08_r20_network.node[30].content_store 	p_hit[30] 	0.28067609296278
scalar tree_4_3_u08_r20_network.node[30].content_store 	hits[30] 	3454
scalar tree_4_3_u08_r20_network.node[30].content_store 	misses[30] 	8852
scalar tree_4_3_u08_r20_network.node[30].content_store 	decision_yes[30] 	383
scalar tree_4_3_u08_r20_network.node[30].content_store 	decision_no[30] 	8469
scalar tree_4_3_u08_r20_network.node[30].content_store 	decision_ratio[30] 	0.043267058291911
scalar tree_4_3_u08_r20_network.node[31].core_layer 	interests[31] 	12319
scalar tree_4_3_u08_r20_network.node[31].core_layer 	data[31] 	8863
scalar tree_4_3_u08_r20_network.node[31].content_store 	p_hit[31] 	0.28054225180615
scalar tree_4_3_u08_r20_network.node[31].content_store 	hits[31] 	3456
scalar tree_4_3_u08_r20_network.node[31].content_store 	misses[31] 	8863
scalar tree_4_3_u08_r20_network.node[31].content_store 	decision_yes[31] 	393
scalar tree_4_3_u08_r20_network.node[31].content_store 	decision_no[31] 	8470
scalar tree_4_3_u08_r20_network.node[31].content_store 	decision_ratio[31] 	0.044341645041182
scalar tree_4_3_u08_r20_network.node[32].core_layer 	interests[32] 	12719
scalar tree_4_3_u08_r20_network.node[32].core_layer 	data[32] 	9043
scalar tree_4_3_u08_r20_network.node[32].content_store 	p_hit[32] 	0.28901643210944
scalar tree_4_3_u08_r20_network.node[32].content_store 	hits[32] 	3676
scalar tree_4_3_u08_r20_network.node[32].content_store 	misses[32] 	9043
scalar tree_4_3_u08_r20_network.node[32].content_store 	decision_yes[32] 	814
scalar tree_4_3_u08_r20_network.node[32].content_store 	decision_no[32] 	8229
scalar tree_4_3_u08_r20_network.node[32].content_store 	decision_ratio[32] 	0.090014375760257
scalar tree_4_3_u08_r20_network.node[33].core_layer 	interests[33] 	12678
scalar tree_4_3_u08_r20_network.node[33].core_layer 	data[33] 	8885
scalar tree_4_3_u08_r20_network.node[33].content_store 	p_hit[33] 	0.29917968133775
scalar tree_4_3_u08_r20_network.node[33].content_store 	hits[33] 	3793
scalar tree_4_3_u08_r20_network.node[33].content_store 	misses[33] 	8885
scalar tree_4_3_u08_r20_network.node[33].content_store 	decision_yes[33] 	772
scalar tree_4_3_u08_r20_network.node[33].content_store 	decision_no[33] 	8113
scalar tree_4_3_u08_r20_network.node[33].content_store 	decision_ratio[33] 	0.086888013505909
scalar tree_4_3_u08_r20_network.node[34].core_layer 	interests[34] 	12397
scalar tree_4_3_u08_r20_network.node[34].core_layer 	data[34] 	8834
scalar tree_4_3_u08_r20_network.node[34].content_store 	p_hit[34] 	0.28740824392998
scalar tree_4_3_u08_r20_network.node[34].content_store 	hits[34] 	3563
scalar tree_4_3_u08_r20_network.node[34].content_store 	misses[34] 	8834
scalar tree_4_3_u08_r20_network.node[34].content_store 	decision_yes[34] 	741
scalar tree_4_3_u08_r20_network.node[34].content_store 	decision_no[34] 	8093
scalar tree_4_3_u08_r20_network.node[34].content_store 	decision_ratio[34] 	0.083880461851936
scalar tree_4_3_u08_r20_network.node[35].core_layer 	interests[35] 	12440
scalar tree_4_3_u08_r20_network.node[35].core_layer 	data[35] 	8984
scalar tree_4_3_u08_r20_network.node[35].content_store 	p_hit[35] 	0.27781350482315
scalar tree_4_3_u08_r20_network.node[35].content_store 	hits[35] 	3456
scalar tree_4_3_u08_r20_network.node[35].content_store 	misses[35] 	8984
scalar tree_4_3_u08_r20_network.node[35].content_store 	decision_yes[35] 	411
scalar tree_4_3_u08_r20_network.node[35].content_store 	decision_no[35] 	8573
scalar tree_4_3_u08_r20_network.node[35].content_store 	decision_ratio[35] 	0.045747996438112
scalar tree_4_3_u08_r20_network.node[36].core_layer 	interests[36] 	12662
scalar tree_4_3_u08_r20_network.node[36].core_layer 	data[36] 	8890
scalar tree_4_3_u08_r20_network.node[36].content_store 	p_hit[36] 	0.29789922603064
scalar tree_4_3_u08_r20_network.node[36].content_store 	hits[36] 	3772
scalar tree_4_3_u08_r20_network.node[36].content_store 	misses[36] 	8890
scalar tree_4_3_u08_r20_network.node[36].content_store 	decision_yes[36] 	705
scalar tree_4_3_u08_r20_network.node[36].content_store 	decision_no[36] 	8185
scalar tree_4_3_u08_r20_network.node[36].content_store 	decision_ratio[36] 	0.079302587176603
scalar tree_4_3_u08_r20_network.node[37].core_layer 	interests[37] 	12302
scalar tree_4_3_u08_r20_network.node[37].core_layer 	data[37] 	8779
scalar tree_4_3_u08_r20_network.node[37].content_store 	p_hit[37] 	0.28637619899203
scalar tree_4_3_u08_r20_network.node[37].content_store 	hits[37] 	3523
scalar tree_4_3_u08_r20_network.node[37].content_store 	misses[37] 	8779
scalar tree_4_3_u08_r20_network.node[37].content_store 	decision_yes[37] 	426
scalar tree_4_3_u08_r20_network.node[37].content_store 	decision_no[37] 	8353
scalar tree_4_3_u08_r20_network.node[37].content_store 	decision_ratio[37] 	0.048524888939515
scalar tree_4_3_u08_r20_network.node[38].core_layer 	interests[38] 	12420
scalar tree_4_3_u08_r20_network.node[38].core_layer 	data[38] 	8900
scalar tree_4_3_u08_r20_network.node[38].content_store 	p_hit[38] 	0.28341384863124
scalar tree_4_3_u08_r20_network.node[38].content_store 	hits[38] 	3520
scalar tree_4_3_u08_r20_network.node[38].content_store 	misses[38] 	8900
scalar tree_4_3_u08_r20_network.node[38].content_store 	decision_yes[38] 	431
scalar tree_4_3_u08_r20_network.node[38].content_store 	decision_no[38] 	8469
scalar tree_4_3_u08_r20_network.node[38].content_store 	decision_ratio[38] 	0.048426966292135
scalar tree_4_3_u08_r20_network.node[39].core_layer 	interests[39] 	12465
scalar tree_4_3_u08_r20_network.node[39].core_layer 	data[39] 	8912
scalar tree_4_3_u08_r20_network.node[39].content_store 	p_hit[39] 	0.2849578820698
scalar tree_4_3_u08_r20_network.node[39].content_store 	hits[39] 	3552
scalar tree_4_3_u08_r20_network.node[39].content_store 	misses[39] 	8913
scalar tree_4_3_u08_r20_network.node[39].content_store 	decision_yes[39] 	405
scalar tree_4_3_u08_r20_network.node[39].content_store 	decision_no[39] 	8507
scalar tree_4_3_u08_r20_network.node[39].content_store 	decision_ratio[39] 	0.04544434470377
scalar tree_4_3_u08_r20_network.client[13] 	hdistance[13] 	2.7048303526659
scalar tree_4_3_u08_r20_network.client[13] 	downloads[13] 	11966
scalar tree_4_3_u08_r20_network.client[13] 	avg_time[13] 	0.004174016941
scalar tree_4_3_u08_r20_network.client[14] 	hdistance[14] 	2.6390458776596
scalar tree_4_3_u08_r20_network.client[14] 	downloads[14] 	12032
scalar tree_4_3_u08_r20_network.client[14] 	avg_time[14] 	0.004068595413
scalar tree_4_3_u08_r20_network.client[15] 	hdistance[15] 	2.6721779269828
scalar tree_4_3_u08_r20_network.client[15] 	downloads[15] 	11915
scalar tree_4_3_u08_r20_network.client[15] 	avg_time[15] 	0.004110667225
scalar tree_4_3_u08_r20_network.client[16] 	hdistance[16] 	2.6520868113523
scalar tree_4_3_u08_r20_network.client[16] 	downloads[16] 	11980
scalar tree_4_3_u08_r20_network.client[16] 	avg_time[16] 	0.00409732588
scalar tree_4_3_u08_r20_network.client[17] 	hdistance[17] 	2.7116533445519
scalar tree_4_3_u08_r20_network.client[17] 	downloads[17] 	11885
scalar tree_4_3_u08_r20_network.client[17] 	avg_time[17] 	0.004193181738
scalar tree_4_3_u08_r20_network.client[18] 	hdistance[18] 	2.6567856255693
scalar tree_4_3_u08_r20_network.client[18] 	downloads[18] 	12077
scalar tree_4_3_u08_r20_network.client[18] 	avg_time[18] 	0.004094056788
scalar tree_4_3_u08_r20_network.client[19] 	hdistance[19] 	2.6845851126183
scalar tree_4_3_u08_r20_network.client[19] 	downloads[19] 	11943
scalar tree_4_3_u08_r20_network.client[19] 	avg_time[19] 	0.004129780148
scalar tree_4_3_u08_r20_network.client[20] 	hdistance[20] 	2.6546256946715
scalar tree_4_3_u08_r20_network.client[20] 	downloads[20] 	12236
scalar tree_4_3_u08_r20_network.client[20] 	avg_time[20] 	0.00409594331
scalar tree_4_3_u08_r20_network.client[21] 	hdistance[21] 	2.6873438800999
scalar tree_4_3_u08_r20_network.client[21] 	downloads[21] 	12010
scalar tree_4_3_u08_r20_network.client[21] 	avg_time[21] 	0.004153702252
scalar tree_4_3_u08_r20_network.client[22] 	hdistance[22] 	2.7010223589061
scalar tree_4_3_u08_r20_network.client[22] 	downloads[22] 	12031
scalar tree_4_3_u08_r20_network.client[22] 	avg_time[22] 	0.004181195585
scalar tree_4_3_u08_r20_network.client[23] 	hdistance[23] 	2.6457095018836
scalar tree_4_3_u08_r20_network.client[23] 	downloads[23] 	11945
scalar tree_4_3_u08_r20_network.client[23] 	avg_time[23] 	0.004081035062
scalar tree_4_3_u08_r20_network.client[24] 	hdistance[24] 	2.6542575242517
scalar tree_4_3_u08_r20_network.client[24] 	downloads[24] 	12061
scalar tree_4_3_u08_r20_network.client[24] 	avg_time[24] 	0.004091863315
scalar tree_4_3_u08_r20_network.client[25] 	hdistance[25] 	2.7012607497704
scalar tree_4_3_u08_r20_network.client[25] 	downloads[25] 	11977
scalar tree_4_3_u08_r20_network.client[25] 	avg_time[25] 	0.004167175804
scalar tree_4_3_u08_r20_network.client[26] 	hdistance[26] 	2.6752999586264
scalar tree_4_3_u08_r20_network.client[26] 	downloads[26] 	12085
scalar tree_4_3_u08_r20_network.client[26] 	avg_time[26] 	0.004126711315
scalar tree_4_3_u08_r20_network.client[27] 	hdistance[27] 	2.6494913572078
scalar tree_4_3_u08_r20_network.client[27] 	downloads[27] 	12091
scalar tree_4_3_u08_r20_network.client[27] 	avg_time[27] 	0.004077409939
scalar tree_4_3_u08_r20_network.client[28] 	hdistance[28] 	2.6501760858628
scalar tree_4_3_u08_r20_network.client[28] 	downloads[28] 	11926
scalar tree_4_3_u08_r20_network.client[28] 	avg_time[28] 	0.00408736915
scalar tree_4_3_u08_r20_network.client[29] 	hdistance[29] 	2.6399609978061
scalar tree_4_3_u08_r20_network.client[29] 	downloads[29] 	12307
scalar tree_4_3_u08_r20_network.client[29] 	avg_time[29] 	0.00407150096
scalar tree_4_3_u08_r20_network.client[30] 	hdistance[30] 	2.6965609126488
scalar tree_4_3_u08_r20_network.client[30] 	downloads[30] 	12009
scalar tree_4_3_u08_r20_network.client[30] 	avg_time[30] 	0.004167538013
scalar tree_4_3_u08_r20_network.client[31] 	hdistance[31] 	2.6962445995347
scalar tree_4_3_u08_r20_network.client[31] 	downloads[31] 	12036
scalar tree_4_3_u08_r20_network.client[31] 	avg_time[31] 	0.004171626305
scalar tree_4_3_u08_r20_network.client[32] 	hdistance[32] 	2.6391057779239
scalar tree_4_3_u08_r20_network.client[32] 	downloads[32] 	12167
scalar tree_4_3_u08_r20_network.client[32] 	avg_time[32] 	0.004079227683
scalar tree_4_3_u08_r20_network.client[33] 	hdistance[33] 	2.6518722835172
scalar tree_4_3_u08_r20_network.client[33] 	downloads[33] 	11964
scalar tree_4_3_u08_r20_network.client[33] 	avg_time[33] 	0.004093276856
scalar tree_4_3_u08_r20_network.client[34] 	hdistance[34] 	2.6566174000672
scalar tree_4_3_u08_r20_network.client[34] 	downloads[34] 	11908
scalar tree_4_3_u08_r20_network.client[34] 	avg_time[34] 	0.004098586188
scalar tree_4_3_u08_r20_network.client[35] 	hdistance[35] 	2.6941388934494
scalar tree_4_3_u08_r20_network.client[35] 	downloads[35] 	12182
scalar tree_4_3_u08_r20_network.client[35] 	avg_time[35] 	0.004169427246
scalar tree_4_3_u08_r20_network.client[36] 	hdistance[36] 	2.6760916847917
scalar tree_4_3_u08_r20_network.client[36] 	downloads[36] 	11954
scalar tree_4_3_u08_r20_network.client[36] 	avg_time[36] 	0.004129158757
scalar tree_4_3_u08_r20_network.client[37] 	hdistance[37] 	2.6993921225747
scalar tree_4_3_u08_r20_network.client[37] 	downloads[37] 	12009
scalar tree_4_3_u08_r20_network.client[37] 	avg_time[37] 	0.004157045854
scalar tree_4_3_u08_r20_network.client[38] 	hdistance[38] 	2.714415380807
scalar tree_4_3_u08_r20_network.client[38] 	downloads[38] 	12119
scalar tree_4_3_u08_r20_network.client[38] 	avg_time[38] 	0.004179714744
scalar tree_4_3_u08_r20_network.client[39] 	hdistance[39] 	2.713298791019
scalar tree_4_3_u08_r20_network.client[39] 	downloads[39] 	12159
scalar tree_4_3_u08_r20_network.client[39] 	avg_time[39] 	0.00418090387
