version 2
run General-163-20160819-13:34:37-2054
attr a 0.9
attr cd lcd
attr configname General
attr cr lru
attr datetime 20160819-13:34:37
attr experiment General
attr fsize 1
attr inifile hw5115/scenario_A/NRR-LCD.ini
attr iterationvars "$name=tree_4_3, $un=08, $rep=4, $cd=lcd, $cr=lru, $fsize=1, $a=0.9, $sl=nrr, $ttl=1000, $variance=0.05"
attr iterationvars2 "$name=tree_4_3, $un=08, $rep=4, $cd=lcd, $cr=lru, $fsize=1, $a=0.9, $sl=nrr, $ttl=1000, $variance=0.05, $repetition=0"
attr measurement "$name=tree_4_3, $un=08, $rep=4, $cd=lcd, $cr=lru, $fsize=1, $a=0.9, $sl=nrr, $ttl=1000, $variance=0.05"
attr name tree_4_3
attr network networks.${name}_u${un}_r${rep}_network
attr processid 2054
attr rep 4
attr repetition 0
attr replication #0
attr resultdir results
attr runnumber 163
attr seedset 4
attr sl nrr
attr ttl 1000
attr un 08
attr variance 0.05

scalar . 	a 	0.9
scalar . 	fsize 	1
scalar . 	rep 	4
scalar . 	ttl 	1000
scalar . 	un 	08
scalar . 	variance 	0.05
scalar tree_4_3_u08_r4_network.content_distribution 	repo-0 	0
scalar tree_4_3_u08_r4_network.content_distribution 	client-0 	13
scalar tree_4_3_u08_r4_network.content_distribution 	client-1 	14
scalar tree_4_3_u08_r4_network.content_distribution 	client-2 	15
scalar tree_4_3_u08_r4_network.content_distribution 	client-3 	16
scalar tree_4_3_u08_r4_network.content_distribution 	client-4 	17
scalar tree_4_3_u08_r4_network.content_distribution 	client-5 	18
scalar tree_4_3_u08_r4_network.content_distribution 	client-6 	19
scalar tree_4_3_u08_r4_network.content_distribution 	client-7 	20
scalar tree_4_3_u08_r4_network.content_distribution 	client-8 	21
scalar tree_4_3_u08_r4_network.content_distribution 	client-9 	22
scalar tree_4_3_u08_r4_network.content_distribution 	client-10 	23
scalar tree_4_3_u08_r4_network.content_distribution 	client-11 	24
scalar tree_4_3_u08_r4_network.content_distribution 	client-12 	25
scalar tree_4_3_u08_r4_network.content_distribution 	client-13 	26
scalar tree_4_3_u08_r4_network.content_distribution 	client-14 	27
scalar tree_4_3_u08_r4_network.content_distribution 	client-15 	28
scalar tree_4_3_u08_r4_network.content_distribution 	client-16 	29
scalar tree_4_3_u08_r4_network.content_distribution 	client-17 	30
scalar tree_4_3_u08_r4_network.content_distribution 	client-18 	31
scalar tree_4_3_u08_r4_network.content_distribution 	client-19 	32
scalar tree_4_3_u08_r4_network.content_distribution 	client-20 	33
scalar tree_4_3_u08_r4_network.content_distribution 	client-21 	34
scalar tree_4_3_u08_r4_network.content_distribution 	client-22 	35
scalar tree_4_3_u08_r4_network.content_distribution 	client-23 	36
scalar tree_4_3_u08_r4_network.content_distribution 	client-24 	37
scalar tree_4_3_u08_r4_network.content_distribution 	client-25 	38
scalar tree_4_3_u08_r4_network.content_distribution 	client-26 	39
scalar tree_4_3_u08_r4_network.content_distribution 	repo-0_card 	100000
scalar tree_4_3_u08_r4_network.content_distribution 	repo-0_price 	0
scalar tree_4_3_u08_r4_network.statistics 	stabilization_time 	1141.4
scalar tree_4_3_u08_r4_network.statistics 	p_hit 	0.22244131215485
scalar tree_4_3_u08_r4_network.statistics 	interests 	24916.45
scalar tree_4_3_u08_r4_network.statistics 	data 	16788.85
scalar tree_4_3_u08_r4_network.statistics 	hdistance 	2.678035634558
scalar tree_4_3_u08_r4_network.statistics 	avg_time 	0.004131351359
scalar tree_4_3_u08_r4_network.statistics 	downloads 	325097
scalar tree_4_3_u08_r4_network.statistics 	total_cost 	0
scalar tree_4_3_u08_r4_network.statistics 	total_replicas 	100000
scalar tree_4_3_u08_r4_network.statistics 	inner_hit 	0.38765353109995
scalar tree_4_3_u08_r4_network.node[0].core_layer 	interests[0] 	200258
scalar tree_4_3_u08_r4_network.node[0].core_layer 	repo_load[0] 	199072
scalar tree_4_3_u08_r4_network.node[0].core_layer 	data[0] 	0
scalar tree_4_3_u08_r4_network.node[0].core_layer 	repo_int[0] 	199072
scalar tree_4_3_u08_r4_network.node[0].content_store 	p_hit[0] 	0.0059223601553995
scalar tree_4_3_u08_r4_network.node[0].content_store 	hits[0] 	1186
scalar tree_4_3_u08_r4_network.node[0].content_store 	misses[0] 	199072
scalar tree_4_3_u08_r4_network.node[0].content_store 	decision_yes[0] 	199072
scalar tree_4_3_u08_r4_network.node[0].content_store 	decision_no[0] 	0
scalar tree_4_3_u08_r4_network.node[0].content_store 	decision_ratio[0] 	1
scalar tree_4_3_u08_r4_network.node[1].core_layer 	interests[1] 	145690
scalar tree_4_3_u08_r4_network.node[1].core_layer 	data[1] 	142970
scalar tree_4_3_u08_r4_network.node[1].content_store 	p_hit[1] 	0.018628594961905
scalar tree_4_3_u08_r4_network.node[1].content_store 	hits[1] 	2714
scalar tree_4_3_u08_r4_network.node[1].content_store 	misses[1] 	142976
scalar tree_4_3_u08_r4_network.node[1].content_store 	decision_yes[1] 	3085
scalar tree_4_3_u08_r4_network.node[1].content_store 	decision_no[1] 	139885
scalar tree_4_3_u08_r4_network.node[1].content_store 	decision_ratio[1] 	0.021577953416801
scalar tree_4_3_u08_r4_network.node[2].core_layer 	interests[2] 	57507
scalar tree_4_3_u08_r4_network.node[2].core_layer 	data[2] 	54825
scalar tree_4_3_u08_r4_network.node[2].content_store 	p_hit[2] 	0.046655189802981
scalar tree_4_3_u08_r4_network.node[2].content_store 	hits[2] 	2683
scalar tree_4_3_u08_r4_network.node[2].content_store 	misses[2] 	54824
scalar tree_4_3_u08_r4_network.node[2].content_store 	decision_yes[2] 	1935
scalar tree_4_3_u08_r4_network.node[2].content_store 	decision_no[2] 	52890
scalar tree_4_3_u08_r4_network.node[2].content_store 	decision_ratio[2] 	0.035294117647059
scalar tree_4_3_u08_r4_network.node[3].core_layer 	interests[3] 	9387
scalar tree_4_3_u08_r4_network.node[3].core_layer 	data[3] 	8197
scalar tree_4_3_u08_r4_network.node[3].content_store 	p_hit[3] 	0.12677106636838
scalar tree_4_3_u08_r4_network.node[3].content_store 	hits[3] 	1190
scalar tree_4_3_u08_r4_network.node[3].content_store 	misses[3] 	8197
scalar tree_4_3_u08_r4_network.node[3].content_store 	decision_yes[3] 	464
scalar tree_4_3_u08_r4_network.node[3].content_store 	decision_no[3] 	7733
scalar tree_4_3_u08_r4_network.node[3].content_store 	decision_ratio[3] 	0.056606075393437
scalar tree_4_3_u08_r4_network.node[4].core_layer 	interests[4] 	33726
scalar tree_4_3_u08_r4_network.node[4].core_layer 	data[4] 	31973
scalar tree_4_3_u08_r4_network.node[4].content_store 	p_hit[4] 	0.051977702662634
scalar tree_4_3_u08_r4_network.node[4].content_store 	hits[4] 	1753
scalar tree_4_3_u08_r4_network.node[4].content_store 	misses[4] 	31973
scalar tree_4_3_u08_r4_network.node[4].content_store 	decision_yes[4] 	1589
scalar tree_4_3_u08_r4_network.node[4].content_store 	decision_no[4] 	30384
scalar tree_4_3_u08_r4_network.node[4].content_store 	decision_ratio[4] 	0.049698182841773
scalar tree_4_3_u08_r4_network.node[5].core_layer 	interests[5] 	28174
scalar tree_4_3_u08_r4_network.node[5].core_layer 	data[5] 	25451
scalar tree_4_3_u08_r4_network.node[5].content_store 	p_hit[5] 	0.096649393057429
scalar tree_4_3_u08_r4_network.node[5].content_store 	hits[5] 	2723
scalar tree_4_3_u08_r4_network.node[5].content_store 	misses[5] 	25451
scalar tree_4_3_u08_r4_network.node[5].content_store 	decision_yes[5] 	2858
scalar tree_4_3_u08_r4_network.node[5].content_store 	decision_no[5] 	22593
scalar tree_4_3_u08_r4_network.node[5].content_store 	decision_ratio[5] 	0.11229421240816
scalar tree_4_3_u08_r4_network.node[6].core_layer 	interests[6] 	19622
scalar tree_4_3_u08_r4_network.node[6].core_layer 	data[6] 	17386
scalar tree_4_3_u08_r4_network.node[6].content_store 	p_hit[6] 	0.11395372541025
scalar tree_4_3_u08_r4_network.node[6].content_store 	hits[6] 	2236
scalar tree_4_3_u08_r4_network.node[6].content_store 	misses[6] 	17386
scalar tree_4_3_u08_r4_network.node[6].content_store 	decision_yes[6] 	1862
scalar tree_4_3_u08_r4_network.node[6].content_store 	decision_no[6] 	15524
scalar tree_4_3_u08_r4_network.node[6].content_store 	decision_ratio[6] 	0.10709766478776
scalar tree_4_3_u08_r4_network.node[7].core_layer 	interests[7] 	43668
scalar tree_4_3_u08_r4_network.node[7].core_layer 	data[7] 	40901
scalar tree_4_3_u08_r4_network.node[7].content_store 	p_hit[7] 	0.063318677292296
scalar tree_4_3_u08_r4_network.node[7].content_store 	hits[7] 	2765
scalar tree_4_3_u08_r4_network.node[7].content_store 	misses[7] 	40903
scalar tree_4_3_u08_r4_network.node[7].content_store 	decision_yes[7] 	3151
scalar tree_4_3_u08_r4_network.node[7].content_store 	decision_no[7] 	37749
scalar tree_4_3_u08_r4_network.node[7].content_store 	decision_ratio[7] 	0.077041564792176
scalar tree_4_3_u08_r4_network.node[8].core_layer 	interests[8] 	27355
scalar tree_4_3_u08_r4_network.node[8].core_layer 	data[8] 	25259
scalar tree_4_3_u08_r4_network.node[8].content_store 	p_hit[8] 	0.076622189727655
scalar tree_4_3_u08_r4_network.node[8].content_store 	hits[8] 	2096
scalar tree_4_3_u08_r4_network.node[8].content_store 	misses[8] 	25259
scalar tree_4_3_u08_r4_network.node[8].content_store 	decision_yes[8] 	1807
scalar tree_4_3_u08_r4_network.node[8].content_store 	decision_no[8] 	23452
scalar tree_4_3_u08_r4_network.node[8].content_store 	decision_ratio[8] 	0.071538857436953
scalar tree_4_3_u08_r4_network.node[9].core_layer 	interests[9] 	11430
scalar tree_4_3_u08_r4_network.node[9].core_layer 	data[9] 	9291
scalar tree_4_3_u08_r4_network.node[9].content_store 	p_hit[9] 	0.18713910761155
scalar tree_4_3_u08_r4_network.node[9].content_store 	hits[9] 	2139
scalar tree_4_3_u08_r4_network.node[9].content_store 	misses[9] 	9291
scalar tree_4_3_u08_r4_network.node[9].content_store 	decision_yes[9] 	1360
scalar tree_4_3_u08_r4_network.node[9].content_store 	decision_no[9] 	7931
scalar tree_4_3_u08_r4_network.node[9].content_store 	decision_ratio[9] 	0.14637821547734
scalar tree_4_3_u08_r4_network.node[10].core_layer 	interests[10] 	43480
scalar tree_4_3_u08_r4_network.node[10].core_layer 	data[10] 	40783
scalar tree_4_3_u08_r4_network.node[10].content_store 	p_hit[10] 	0.062005519779209
scalar tree_4_3_u08_r4_network.node[10].content_store 	hits[10] 	2696
scalar tree_4_3_u08_r4_network.node[10].content_store 	misses[10] 	40784
scalar tree_4_3_u08_r4_network.node[10].content_store 	decision_yes[10] 	3333
scalar tree_4_3_u08_r4_network.node[10].content_store 	decision_no[10] 	37450
scalar tree_4_3_u08_r4_network.node[10].content_store 	decision_ratio[10] 	0.081725228649192
scalar tree_4_3_u08_r4_network.node[11].core_layer 	interests[11] 	28089
scalar tree_4_3_u08_r4_network.node[11].core_layer 	data[11] 	25582
scalar tree_4_3_u08_r4_network.node[11].content_store 	p_hit[11] 	0.089252020363843
scalar tree_4_3_u08_r4_network.node[11].content_store 	hits[11] 	2507
scalar tree_4_3_u08_r4_network.node[11].content_store 	misses[11] 	25582
scalar tree_4_3_u08_r4_network.node[11].content_store 	decision_yes[11] 	2606
scalar tree_4_3_u08_r4_network.node[11].content_store 	decision_no[11] 	22976
scalar tree_4_3_u08_r4_network.node[11].content_store 	decision_ratio[11] 	0.10186850128997
scalar tree_4_3_u08_r4_network.node[12].core_layer 	interests[12] 	10310
scalar tree_4_3_u08_r4_network.node[12].core_layer 	data[12] 	8819
scalar tree_4_3_u08_r4_network.node[12].content_store 	p_hit[12] 	0.14461687681862
scalar tree_4_3_u08_r4_network.node[12].content_store 	hits[12] 	1491
scalar tree_4_3_u08_r4_network.node[12].content_store 	misses[12] 	8819
scalar tree_4_3_u08_r4_network.node[12].content_store 	decision_yes[12] 	881
scalar tree_4_3_u08_r4_network.node[12].content_store 	decision_no[12] 	7938
scalar tree_4_3_u08_r4_network.node[12].content_store 	decision_ratio[12] 	0.099897947613108
scalar tree_4_3_u08_r4_network.node[13].core_layer 	interests[13] 	12354
scalar tree_4_3_u08_r4_network.node[13].core_layer 	data[13] 	8851
scalar tree_4_3_u08_r4_network.node[13].content_store 	p_hit[13] 	0.28355188602882
scalar tree_4_3_u08_r4_network.node[13].content_store 	hits[13] 	3503
scalar tree_4_3_u08_r4_network.node[13].content_store 	misses[13] 	8851
scalar tree_4_3_u08_r4_network.node[13].content_store 	decision_yes[13] 	356
scalar tree_4_3_u08_r4_network.node[13].content_store 	decision_no[13] 	8495
scalar tree_4_3_u08_r4_network.node[13].content_store 	decision_ratio[13] 	0.040221443904644
scalar tree_4_3_u08_r4_network.node[14].core_layer 	interests[14] 	12626
scalar tree_4_3_u08_r4_network.node[14].core_layer 	data[14] 	8836
scalar tree_4_3_u08_r4_network.node[14].content_store 	p_hit[14] 	0.30017424362427
scalar tree_4_3_u08_r4_network.node[14].content_store 	hits[14] 	3790
scalar tree_4_3_u08_r4_network.node[14].content_store 	misses[14] 	8836
scalar tree_4_3_u08_r4_network.node[14].content_store 	decision_yes[14] 	695
scalar tree_4_3_u08_r4_network.node[14].content_store 	decision_no[14] 	8141
scalar tree_4_3_u08_r4_network.node[14].content_store 	decision_ratio[14] 	0.078655500226347
scalar tree_4_3_u08_r4_network.node[15].core_layer 	interests[15] 	12488
scalar tree_4_3_u08_r4_network.node[15].core_layer 	data[15] 	8797
scalar tree_4_3_u08_r4_network.node[15].content_store 	p_hit[15] 	0.29556374119154
scalar tree_4_3_u08_r4_network.node[15].content_store 	hits[15] 	3691
scalar tree_4_3_u08_r4_network.node[15].content_store 	misses[15] 	8797
scalar tree_4_3_u08_r4_network.node[15].content_store 	decision_yes[15] 	701
scalar tree_4_3_u08_r4_network.node[15].content_store 	decision_no[15] 	8096
scalar tree_4_3_u08_r4_network.node[15].content_store 	decision_ratio[15] 	0.079686256678413
scalar tree_4_3_u08_r4_network.node[16].core_layer 	interests[16] 	12683
scalar tree_4_3_u08_r4_network.node[16].core_layer 	data[16] 	9077
scalar tree_4_3_u08_r4_network.node[16].content_store 	p_hit[16] 	0.28431759047544
scalar tree_4_3_u08_r4_network.node[16].content_store 	hits[16] 	3606
scalar tree_4_3_u08_r4_network.node[16].content_store 	misses[16] 	9077
scalar tree_4_3_u08_r4_network.node[16].content_store 	decision_yes[16] 	766
scalar tree_4_3_u08_r4_network.node[16].content_store 	decision_no[16] 	8311
scalar tree_4_3_u08_r4_network.node[16].content_store 	decision_ratio[16] 	0.08438911534648
scalar tree_4_3_u08_r4_network.node[17].core_layer 	interests[17] 	12293
scalar tree_4_3_u08_r4_network.node[17].core_layer 	data[17] 	8854
scalar tree_4_3_u08_r4_network.node[17].content_store 	p_hit[17] 	0.27975270479134
scalar tree_4_3_u08_r4_network.node[17].content_store 	hits[17] 	3439
scalar tree_4_3_u08_r4_network.node[17].content_store 	misses[17] 	8854
scalar tree_4_3_u08_r4_network.node[17].content_store 	decision_yes[17] 	432
scalar tree_4_3_u08_r4_network.node[17].content_store 	decision_no[17] 	8422
scalar tree_4_3_u08_r4_network.node[17].content_store 	decision_ratio[17] 	0.048791506663655
scalar tree_4_3_u08_r4_network.node[18].core_layer 	interests[18] 	12580
scalar tree_4_3_u08_r4_network.node[18].core_layer 	data[18] 	8808
scalar tree_4_3_u08_r4_network.node[18].content_store 	p_hit[18] 	0.29984101748808
scalar tree_4_3_u08_r4_network.node[18].content_store 	hits[18] 	3772
scalar tree_4_3_u08_r4_network.node[18].content_store 	misses[18] 	8808
scalar tree_4_3_u08_r4_network.node[18].content_store 	decision_yes[18] 	735
scalar tree_4_3_u08_r4_network.node[18].content_store 	decision_no[18] 	8073
scalar tree_4_3_u08_r4_network.node[18].content_store 	decision_ratio[18] 	0.083446866485014
scalar tree_4_3_u08_r4_network.node[19].core_layer 	interests[19] 	12297
scalar tree_4_3_u08_r4_network.node[19].core_layer 	data[19] 	8797
scalar tree_4_3_u08_r4_network.node[19].content_store 	p_hit[19] 	0.28462226559323
scalar tree_4_3_u08_r4_network.node[19].content_store 	hits[19] 	3500
scalar tree_4_3_u08_r4_network.node[19].content_store 	misses[19] 	8797
scalar tree_4_3_u08_r4_network.node[19].content_store 	decision_yes[19] 	425
scalar tree_4_3_u08_r4_network.node[19].content_store 	decision_no[19] 	8372
scalar tree_4_3_u08_r4_network.node[19].content_store 	decision_ratio[19] 	0.048311924519723
scalar tree_4_3_u08_r4_network.node[20].core_layer 	interests[20] 	12509
scalar tree_4_3_u08_r4_network.node[20].core_layer 	data[20] 	8801
scalar tree_4_3_u08_r4_network.node[20].content_store 	p_hit[20] 	0.29642657286754
scalar tree_4_3_u08_r4_network.node[20].content_store 	hits[20] 	3708
scalar tree_4_3_u08_r4_network.node[20].content_store 	misses[20] 	8801
scalar tree_4_3_u08_r4_network.node[20].content_store 	decision_yes[20] 	705
scalar tree_4_3_u08_r4_network.node[20].content_store 	decision_no[20] 	8096
scalar tree_4_3_u08_r4_network.node[20].content_store 	decision_ratio[20] 	0.08010453357573
scalar tree_4_3_u08_r4_network.node[21].core_layer 	interests[21] 	12381
scalar tree_4_3_u08_r4_network.node[21].core_layer 	data[21] 	8788
scalar tree_4_3_u08_r4_network.node[21].content_store 	p_hit[21] 	0.2902027299895
scalar tree_4_3_u08_r4_network.node[21].content_store 	hits[21] 	3593
scalar tree_4_3_u08_r4_network.node[21].content_store 	misses[21] 	8788
scalar tree_4_3_u08_r4_network.node[21].content_store 	decision_yes[21] 	395
scalar tree_4_3_u08_r4_network.node[21].content_store 	decision_no[21] 	8393
scalar tree_4_3_u08_r4_network.node[21].content_store 	decision_ratio[21] 	0.044947655894401
scalar tree_4_3_u08_r4_network.node[22].core_layer 	interests[22] 	12479
scalar tree_4_3_u08_r4_network.node[22].core_layer 	data[22] 	9037
scalar tree_4_3_u08_r4_network.node[22].content_store 	p_hit[22] 	0.27582338328392
scalar tree_4_3_u08_r4_network.node[22].content_store 	hits[22] 	3442
scalar tree_4_3_u08_r4_network.node[22].content_store 	misses[22] 	9037
scalar tree_4_3_u08_r4_network.node[22].content_store 	decision_yes[22] 	445
scalar tree_4_3_u08_r4_network.node[22].content_store 	decision_no[22] 	8592
scalar tree_4_3_u08_r4_network.node[22].content_store 	decision_ratio[22] 	0.049242005090185
scalar tree_4_3_u08_r4_network.node[23].core_layer 	interests[23] 	12698
scalar tree_4_3_u08_r4_network.node[23].core_layer 	data[23] 	8908
scalar tree_4_3_u08_r4_network.node[23].content_store 	p_hit[23] 	0.29847220034651
scalar tree_4_3_u08_r4_network.node[23].content_store 	hits[23] 	3790
scalar tree_4_3_u08_r4_network.node[23].content_store 	misses[23] 	8908
scalar tree_4_3_u08_r4_network.node[23].content_store 	decision_yes[23] 	718
scalar tree_4_3_u08_r4_network.node[23].content_store 	decision_no[23] 	8190
scalar tree_4_3_u08_r4_network.node[23].content_store 	decision_ratio[23] 	0.080601706331388
scalar tree_4_3_u08_r4_network.node[24].core_layer 	interests[24] 	12599
scalar tree_4_3_u08_r4_network.node[24].core_layer 	data[24] 	8908
scalar tree_4_3_u08_r4_network.node[24].content_store 	p_hit[24] 	0.29295975871101
scalar tree_4_3_u08_r4_network.node[24].content_store 	hits[24] 	3691
scalar tree_4_3_u08_r4_network.node[24].content_store 	misses[24] 	8908
scalar tree_4_3_u08_r4_network.node[24].content_store 	decision_yes[24] 	761
scalar tree_4_3_u08_r4_network.node[24].content_store 	decision_no[24] 	8147
scalar tree_4_3_u08_r4_network.node[24].content_store 	decision_ratio[24] 	0.085428828019758
scalar tree_4_3_u08_r4_network.node[25].core_layer 	interests[25] 	12764
scalar tree_4_3_u08_r4_network.node[25].core_layer 	data[25] 	9074
scalar tree_4_3_u08_r4_network.node[25].content_store 	p_hit[25] 	0.28901598245064
scalar tree_4_3_u08_r4_network.node[25].content_store 	hits[25] 	3689
scalar tree_4_3_u08_r4_network.node[25].content_store 	misses[25] 	9075
scalar tree_4_3_u08_r4_network.node[25].content_store 	decision_yes[25] 	798
scalar tree_4_3_u08_r4_network.node[25].content_store 	decision_no[25] 	8276
scalar tree_4_3_u08_r4_network.node[25].content_store 	decision_ratio[25] 	0.087943575049592
scalar tree_4_3_u08_r4_network.node[26].core_layer 	interests[26] 	12411
scalar tree_4_3_u08_r4_network.node[26].core_layer 	data[26] 	9010
scalar tree_4_3_u08_r4_network.node[26].content_store 	p_hit[26] 	0.27403110144227
scalar tree_4_3_u08_r4_network.node[26].content_store 	hits[26] 	3401
scalar tree_4_3_u08_r4_network.node[26].content_store 	misses[26] 	9010
scalar tree_4_3_u08_r4_network.node[26].content_store 	decision_yes[26] 	389
scalar tree_4_3_u08_r4_network.node[26].content_store 	decision_no[26] 	8621
scalar tree_4_3_u08_r4_network.node[26].content_store 	decision_ratio[26] 	0.043174250832408
scalar tree_4_3_u08_r4_network.node[27].core_layer 	interests[27] 	12703
scalar tree_4_3_u08_r4_network.node[27].core_layer 	data[27] 	9016
scalar tree_4_3_u08_r4_network.node[27].content_store 	p_hit[27] 	0.29024639848855
scalar tree_4_3_u08_r4_network.node[27].content_store 	hits[27] 	3687
scalar tree_4_3_u08_r4_network.node[27].content_store 	misses[27] 	9016
scalar tree_4_3_u08_r4_network.node[27].content_store 	decision_yes[27] 	659
scalar tree_4_3_u08_r4_network.node[27].content_store 	decision_no[27] 	8357
scalar tree_4_3_u08_r4_network.node[27].content_store 	decision_ratio[27] 	0.073092280390417
scalar tree_4_3_u08_r4_network.node[28].core_layer 	interests[28] 	12511
scalar tree_4_3_u08_r4_network.node[28].core_layer 	data[28] 	8850
scalar tree_4_3_u08_r4_network.node[28].content_store 	p_hit[28] 	0.29262249220686
scalar tree_4_3_u08_r4_network.node[28].content_store 	hits[28] 	3661
scalar tree_4_3_u08_r4_network.node[28].content_store 	misses[28] 	8850
scalar tree_4_3_u08_r4_network.node[28].content_store 	decision_yes[28] 	765
scalar tree_4_3_u08_r4_network.node[28].content_store 	decision_no[28] 	8085
scalar tree_4_3_u08_r4_network.node[28].content_store 	decision_ratio[28] 	0.086440677966102
scalar tree_4_3_u08_r4_network.node[29].core_layer 	interests[29] 	12648
scalar tree_4_3_u08_r4_network.node[29].core_layer 	data[29] 	8929
scalar tree_4_3_u08_r4_network.node[29].content_store 	p_hit[29] 	0.29403858317521
scalar tree_4_3_u08_r4_network.node[29].content_store 	hits[29] 	3719
scalar tree_4_3_u08_r4_network.node[29].content_store 	misses[29] 	8929
scalar tree_4_3_u08_r4_network.node[29].content_store 	decision_yes[29] 	720
scalar tree_4_3_u08_r4_network.node[29].content_store 	decision_no[29] 	8209
scalar tree_4_3_u08_r4_network.node[29].content_store 	decision_ratio[29] 	0.080636129465786
scalar tree_4_3_u08_r4_network.node[30].core_layer 	interests[30] 	12435
scalar tree_4_3_u08_r4_network.node[30].core_layer 	data[30] 	8931
scalar tree_4_3_u08_r4_network.node[30].content_store 	p_hit[30] 	0.28178528347407
scalar tree_4_3_u08_r4_network.node[30].content_store 	hits[30] 	3504
scalar tree_4_3_u08_r4_network.node[30].content_store 	misses[30] 	8931
scalar tree_4_3_u08_r4_network.node[30].content_store 	decision_yes[30] 	371
scalar tree_4_3_u08_r4_network.node[30].content_store 	decision_no[30] 	8560
scalar tree_4_3_u08_r4_network.node[30].content_store 	decision_ratio[30] 	0.041540700929347
scalar tree_4_3_u08_r4_network.node[31].core_layer 	interests[31] 	12230
scalar tree_4_3_u08_r4_network.node[31].core_layer 	data[31] 	8784
scalar tree_4_3_u08_r4_network.node[31].content_store 	p_hit[31] 	0.28176614881439
scalar tree_4_3_u08_r4_network.node[31].content_store 	hits[31] 	3446
scalar tree_4_3_u08_r4_network.node[31].content_store 	misses[31] 	8784
scalar tree_4_3_u08_r4_network.node[31].content_store 	decision_yes[31] 	426
scalar tree_4_3_u08_r4_network.node[31].content_store 	decision_no[31] 	8358
scalar tree_4_3_u08_r4_network.node[31].content_store 	decision_ratio[31] 	0.048497267759563
scalar tree_4_3_u08_r4_network.node[32].core_layer 	interests[32] 	12870
scalar tree_4_3_u08_r4_network.node[32].core_layer 	data[32] 	8938
scalar tree_4_3_u08_r4_network.node[32].content_store 	p_hit[32] 	0.30551670551671
scalar tree_4_3_u08_r4_network.node[32].content_store 	hits[32] 	3932
scalar tree_4_3_u08_r4_network.node[32].content_store 	misses[32] 	8938
scalar tree_4_3_u08_r4_network.node[32].content_store 	decision_yes[32] 	739
scalar tree_4_3_u08_r4_network.node[32].content_store 	decision_no[32] 	8199
scalar tree_4_3_u08_r4_network.node[32].content_store 	decision_ratio[32] 	0.082680689192213
scalar tree_4_3_u08_r4_network.node[33].core_layer 	interests[33] 	12292
scalar tree_4_3_u08_r4_network.node[33].core_layer 	data[33] 	8777
scalar tree_4_3_u08_r4_network.node[33].content_store 	p_hit[33] 	0.28595834689229
scalar tree_4_3_u08_r4_network.node[33].content_store 	hits[33] 	3515
scalar tree_4_3_u08_r4_network.node[33].content_store 	misses[33] 	8777
scalar tree_4_3_u08_r4_network.node[33].content_store 	decision_yes[33] 	429
scalar tree_4_3_u08_r4_network.node[33].content_store 	decision_no[33] 	8348
scalar tree_4_3_u08_r4_network.node[33].content_store 	decision_ratio[33] 	0.048877748661274
scalar tree_4_3_u08_r4_network.node[34].core_layer 	interests[34] 	12847
scalar tree_4_3_u08_r4_network.node[34].core_layer 	data[34] 	8889
scalar tree_4_3_u08_r4_network.node[34].content_store 	p_hit[34] 	0.3079318128746
scalar tree_4_3_u08_r4_network.node[34].content_store 	hits[34] 	3956
scalar tree_4_3_u08_r4_network.node[34].content_store 	misses[34] 	8891
scalar tree_4_3_u08_r4_network.node[34].content_store 	decision_yes[34] 	737
scalar tree_4_3_u08_r4_network.node[34].content_store 	decision_no[34] 	8152
scalar tree_4_3_u08_r4_network.node[34].content_store 	decision_ratio[34] 	0.082911463606705
scalar tree_4_3_u08_r4_network.node[35].core_layer 	interests[35] 	12298
scalar tree_4_3_u08_r4_network.node[35].core_layer 	data[35] 	8893
scalar tree_4_3_u08_r4_network.node[35].content_store 	p_hit[35] 	0.2768742885022
scalar tree_4_3_u08_r4_network.node[35].content_store 	hits[35] 	3405
scalar tree_4_3_u08_r4_network.node[35].content_store 	misses[35] 	8893
scalar tree_4_3_u08_r4_network.node[35].content_store 	decision_yes[35] 	462
scalar tree_4_3_u08_r4_network.node[35].content_store 	decision_no[35] 	8431
scalar tree_4_3_u08_r4_network.node[35].content_store 	decision_ratio[35] 	0.051950972675138
scalar tree_4_3_u08_r4_network.node[36].core_layer 	interests[36] 	12615
scalar tree_4_3_u08_r4_network.node[36].core_layer 	data[36] 	8956
scalar tree_4_3_u08_r4_network.node[36].content_store 	p_hit[36] 	0.29005152596116
scalar tree_4_3_u08_r4_network.node[36].content_store 	hits[36] 	3659
scalar tree_4_3_u08_r4_network.node[36].content_store 	misses[36] 	8956
scalar tree_4_3_u08_r4_network.node[36].content_store 	decision_yes[36] 	704
scalar tree_4_3_u08_r4_network.node[36].content_store 	decision_no[36] 	8252
scalar tree_4_3_u08_r4_network.node[36].content_store 	decision_ratio[36] 	0.0786065207682
scalar tree_4_3_u08_r4_network.node[37].core_layer 	interests[37] 	12517
scalar tree_4_3_u08_r4_network.node[37].core_layer 	data[37] 	8857
scalar tree_4_3_u08_r4_network.node[37].content_store 	p_hit[37] 	0.29232244147959
scalar tree_4_3_u08_r4_network.node[37].content_store 	hits[37] 	3659
scalar tree_4_3_u08_r4_network.node[37].content_store 	misses[37] 	8858
scalar tree_4_3_u08_r4_network.node[37].content_store 	decision_yes[37] 	722
scalar tree_4_3_u08_r4_network.node[37].content_store 	decision_no[37] 	8135
scalar tree_4_3_u08_r4_network.node[37].content_store 	decision_ratio[37] 	0.081517443829739
scalar tree_4_3_u08_r4_network.node[38].core_layer 	interests[38] 	12615
scalar tree_4_3_u08_r4_network.node[38].core_layer 	data[38] 	8956
scalar tree_4_3_u08_r4_network.node[38].content_store 	p_hit[38] 	0.29005152596116
scalar tree_4_3_u08_r4_network.node[38].content_store 	hits[38] 	3659
scalar tree_4_3_u08_r4_network.node[38].content_store 	misses[38] 	8956
scalar tree_4_3_u08_r4_network.node[38].content_store 	decision_yes[38] 	718
scalar tree_4_3_u08_r4_network.node[38].content_store 	decision_no[38] 	8238
scalar tree_4_3_u08_r4_network.node[38].content_store 	decision_ratio[38] 	0.080169718624386
scalar tree_4_3_u08_r4_network.node[39].core_layer 	interests[39] 	12219
scalar tree_4_3_u08_r4_network.node[39].core_layer 	data[39] 	8795
scalar tree_4_3_u08_r4_network.node[39].content_store 	p_hit[39] 	0.28021933055078
scalar tree_4_3_u08_r4_network.node[39].content_store 	hits[39] 	3424
scalar tree_4_3_u08_r4_network.node[39].content_store 	misses[39] 	8795
scalar tree_4_3_u08_r4_network.node[39].content_store 	decision_yes[39] 	335
scalar tree_4_3_u08_r4_network.node[39].content_store 	decision_no[39] 	8460
scalar tree_4_3_u08_r4_network.node[39].content_store 	decision_ratio[39] 	0.038089823763502
scalar tree_4_3_u08_r4_network.client[13] 	hdistance[13] 	2.7023780136592
scalar tree_4_3_u08_r4_network.client[13] 	downloads[13] 	12153
scalar tree_4_3_u08_r4_network.client[13] 	avg_time[13] 	0.004172629262
scalar tree_4_3_u08_r4_network.client[14] 	hdistance[14] 	2.6480233042031
scalar tree_4_3_u08_r4_network.client[14] 	downloads[14] 	12015
scalar tree_4_3_u08_r4_network.client[14] 	avg_time[14] 	0.004083059836
scalar tree_4_3_u08_r4_network.client[15] 	hdistance[15] 	2.6809821127236
scalar tree_4_3_u08_r4_network.client[15] 	downloads[15] 	11852
scalar tree_4_3_u08_r4_network.client[15] 	avg_time[15] 	0.004133982874
scalar tree_4_3_u08_r4_network.client[16] 	hdistance[16] 	2.6726116753365
scalar tree_4_3_u08_r4_network.client[16] 	downloads[16] 	12111
scalar tree_4_3_u08_r4_network.client[16] 	avg_time[16] 	0.004127926381
scalar tree_4_3_u08_r4_network.client[17] 	hdistance[17] 	2.682969651367
scalar tree_4_3_u08_r4_network.client[17] 	downloads[17] 	11961
scalar tree_4_3_u08_r4_network.client[17] 	avg_time[17] 	0.004153663117
scalar tree_4_3_u08_r4_network.client[18] 	hdistance[18] 	2.6520536462699
scalar tree_4_3_u08_r4_network.client[18] 	downloads[18] 	11930
scalar tree_4_3_u08_r4_network.client[18] 	avg_time[18] 	0.004085328093
scalar tree_4_3_u08_r4_network.client[19] 	hdistance[19] 	2.6933377692756
scalar tree_4_3_u08_r4_network.client[19] 	downloads[19] 	12023
scalar tree_4_3_u08_r4_network.client[19] 	avg_time[19] 	0.00416534672
scalar tree_4_3_u08_r4_network.client[20] 	hdistance[20] 	2.6769204766332
scalar tree_4_3_u08_r4_network.client[20] 	downloads[20] 	11833
scalar tree_4_3_u08_r4_network.client[20] 	avg_time[20] 	0.004123042754
scalar tree_4_3_u08_r4_network.client[21] 	hdistance[21] 	2.6756333030778
scalar tree_4_3_u08_r4_network.client[21] 	downloads[21] 	12119
scalar tree_4_3_u08_r4_network.client[21] 	avg_time[21] 	0.00413218608
scalar tree_4_3_u08_r4_network.client[22] 	hdistance[22] 	2.7108821104699
scalar tree_4_3_u08_r4_network.client[22] 	downloads[22] 	12130
scalar tree_4_3_u08_r4_network.client[22] 	avg_time[22] 	0.004188921154
scalar tree_4_3_u08_r4_network.client[23] 	hdistance[23] 	2.6572068707991
scalar tree_4_3_u08_r4_network.client[23] 	downloads[23] 	12051
scalar tree_4_3_u08_r4_network.client[23] 	avg_time[23] 	0.004093195217
scalar tree_4_3_u08_r4_network.client[24] 	hdistance[24] 	2.6534934133734
scalar tree_4_3_u08_r4_network.client[24] 	downloads[24] 	11994
scalar tree_4_3_u08_r4_network.client[24] 	avg_time[24] 	0.00409269501
scalar tree_4_3_u08_r4_network.client[25] 	hdistance[25] 	2.668395488598
scalar tree_4_3_u08_r4_network.client[25] 	downloads[25] 	12147
scalar tree_4_3_u08_r4_network.client[25] 	avg_time[25] 	0.004117032617
scalar tree_4_3_u08_r4_network.client[26] 	hdistance[26] 	2.7219580190226
scalar tree_4_3_u08_r4_network.client[26] 	downloads[26] 	12196
scalar tree_4_3_u08_r4_network.client[26] 	avg_time[26] 	0.004206786055
scalar tree_4_3_u08_r4_network.client[27] 	hdistance[27] 	2.7023496549458
scalar tree_4_3_u08_r4_network.client[27] 	downloads[27] 	12172
scalar tree_4_3_u08_r4_network.client[27] 	avg_time[27] 	0.004155600026
scalar tree_4_3_u08_r4_network.client[28] 	hdistance[28] 	2.6520097339934
scalar tree_4_3_u08_r4_network.client[28] 	downloads[28] 	11917
scalar tree_4_3_u08_r4_network.client[28] 	avg_time[28] 	0.004090456017
scalar tree_4_3_u08_r4_network.client[29] 	hdistance[29] 	2.6630398944939
scalar tree_4_3_u08_r4_network.client[29] 	downloads[29] 	12132
scalar tree_4_3_u08_r4_network.client[29] 	avg_time[29] 	0.004101711424
scalar tree_4_3_u08_r4_network.client[30] 	hdistance[30] 	2.7109855001229
scalar tree_4_3_u08_r4_network.client[30] 	downloads[30] 	12207
scalar tree_4_3_u08_r4_network.client[30] 	avg_time[30] 	0.004179566069
scalar tree_4_3_u08_r4_network.client[31] 	hdistance[31] 	2.7012231126107
scalar tree_4_3_u08_r4_network.client[31] 	downloads[31] 	11855
scalar tree_4_3_u08_r4_network.client[31] 	avg_time[31] 	0.004176293966
scalar tree_4_3_u08_r4_network.client[32] 	hdistance[32] 	2.633999339498
scalar tree_4_3_u08_r4_network.client[32] 	downloads[32] 	12112
scalar tree_4_3_u08_r4_network.client[32] 	avg_time[32] 	0.004062579523
scalar tree_4_3_u08_r4_network.client[33] 	hdistance[33] 	2.6906644238856
scalar tree_4_3_u08_r4_network.client[33] 	downloads[33] 	11890
scalar tree_4_3_u08_r4_network.client[33] 	avg_time[33] 	0.004161784415
scalar tree_4_3_u08_r4_network.client[34] 	hdistance[34] 	2.6277456647399
scalar tree_4_3_u08_r4_network.client[34] 	downloads[34] 	12110
scalar tree_4_3_u08_r4_network.client[34] 	avg_time[34] 	0.004046828547
scalar tree_4_3_u08_r4_network.client[35] 	hdistance[35] 	2.6948912409367
scalar tree_4_3_u08_r4_network.client[35] 	downloads[35] 	11999
scalar tree_4_3_u08_r4_network.client[35] 	avg_time[35] 	0.004165844139
scalar tree_4_3_u08_r4_network.client[36] 	hdistance[36] 	2.6774993798065
scalar tree_4_3_u08_r4_network.client[36] 	downloads[36] 	12093
scalar tree_4_3_u08_r4_network.client[36] 	avg_time[36] 	0.00412205107
scalar tree_4_3_u08_r4_network.client[37] 	hdistance[37] 	2.6692159004959
scalar tree_4_3_u08_r4_network.client[37] 	downloads[37] 	11899
scalar tree_4_3_u08_r4_network.client[37] 	avg_time[37] 	0.004117705654
scalar tree_4_3_u08_r4_network.client[38] 	hdistance[38] 	2.6584280771132
scalar tree_4_3_u08_r4_network.client[38] 	downloads[38] 	12138
scalar tree_4_3_u08_r4_network.client[38] 	avg_time[38] 	0.004098036174
scalar tree_4_3_u08_r4_network.client[39] 	hdistance[39] 	2.7280643556145
scalar tree_4_3_u08_r4_network.client[39] 	downloads[39] 	12058
scalar tree_4_3_u08_r4_network.client[39] 	avg_time[39] 	0.004192234513
