version 2
run General-170-20160819-13:42:16-2054
attr a 0.9
attr cd lcd
attr configname General
attr cr lru
attr datetime 20160819-13:42:16
attr experiment General
attr fsize 1
attr inifile hw5115/scenario_A/NRR-LCD.ini
attr iterationvars "$name=tree_4_3, $un=08, $rep=11, $cd=lcd, $cr=lru, $fsize=1, $a=0.9, $sl=nrr, $ttl=1000, $variance=0.05"
attr iterationvars2 "$name=tree_4_3, $un=08, $rep=11, $cd=lcd, $cr=lru, $fsize=1, $a=0.9, $sl=nrr, $ttl=1000, $variance=0.05, $repetition=0"
attr measurement "$name=tree_4_3, $un=08, $rep=11, $cd=lcd, $cr=lru, $fsize=1, $a=0.9, $sl=nrr, $ttl=1000, $variance=0.05"
attr name tree_4_3
attr network networks.${name}_u${un}_r${rep}_network
attr processid 2054
attr rep 11
attr repetition 0
attr replication #0
attr resultdir results
attr runnumber 170
attr seedset 11
attr sl nrr
attr ttl 1000
attr un 08
attr variance 0.05

scalar . 	a 	0.9
scalar . 	fsize 	1
scalar . 	rep 	11
scalar . 	ttl 	1000
scalar . 	un 	08
scalar . 	variance 	0.05
scalar tree_4_3_u08_r11_network.content_distribution 	repo-0 	0
scalar tree_4_3_u08_r11_network.content_distribution 	client-0 	13
scalar tree_4_3_u08_r11_network.content_distribution 	client-1 	14
scalar tree_4_3_u08_r11_network.content_distribution 	client-2 	15
scalar tree_4_3_u08_r11_network.content_distribution 	client-3 	16
scalar tree_4_3_u08_r11_network.content_distribution 	client-4 	17
scalar tree_4_3_u08_r11_network.content_distribution 	client-5 	18
scalar tree_4_3_u08_r11_network.content_distribution 	client-6 	19
scalar tree_4_3_u08_r11_network.content_distribution 	client-7 	20
scalar tree_4_3_u08_r11_network.content_distribution 	client-8 	21
scalar tree_4_3_u08_r11_network.content_distribution 	client-9 	22
scalar tree_4_3_u08_r11_network.content_distribution 	client-10 	23
scalar tree_4_3_u08_r11_network.content_distribution 	client-11 	24
scalar tree_4_3_u08_r11_network.content_distribution 	client-12 	25
scalar tree_4_3_u08_r11_network.content_distribution 	client-13 	26
scalar tree_4_3_u08_r11_network.content_distribution 	client-14 	27
scalar tree_4_3_u08_r11_network.content_distribution 	client-15 	28
scalar tree_4_3_u08_r11_network.content_distribution 	client-16 	29
scalar tree_4_3_u08_r11_network.content_distribution 	client-17 	30
scalar tree_4_3_u08_r11_network.content_distribution 	client-18 	31
scalar tree_4_3_u08_r11_network.content_distribution 	client-19 	32
scalar tree_4_3_u08_r11_network.content_distribution 	client-20 	33
scalar tree_4_3_u08_r11_network.content_distribution 	client-21 	34
scalar tree_4_3_u08_r11_network.content_distribution 	client-22 	35
scalar tree_4_3_u08_r11_network.content_distribution 	client-23 	36
scalar tree_4_3_u08_r11_network.content_distribution 	client-24 	37
scalar tree_4_3_u08_r11_network.content_distribution 	client-25 	38
scalar tree_4_3_u08_r11_network.content_distribution 	client-26 	39
scalar tree_4_3_u08_r11_network.content_distribution 	repo-0_card 	100000
scalar tree_4_3_u08_r11_network.content_distribution 	repo-0_price 	0
scalar tree_4_3_u08_r11_network.statistics 	stabilization_time 	784
scalar tree_4_3_u08_r11_network.statistics 	p_hit 	0.22098194474254
scalar tree_4_3_u08_r11_network.statistics 	interests 	24845.85
scalar tree_4_3_u08_r11_network.statistics 	data 	16738.075
scalar tree_4_3_u08_r11_network.statistics 	hdistance 	2.6802495186261
scalar tree_4_3_u08_r11_network.statistics 	avg_time 	0.004128967042
scalar tree_4_3_u08_r11_network.statistics 	downloads 	324301
scalar tree_4_3_u08_r11_network.statistics 	total_cost 	0
scalar tree_4_3_u08_r11_network.statistics 	total_replicas 	100000
scalar tree_4_3_u08_r11_network.statistics 	inner_hit 	0.38424488361121
scalar tree_4_3_u08_r11_network.node[0].core_layer 	interests[0] 	200967
scalar tree_4_3_u08_r11_network.node[0].core_layer 	repo_load[0] 	199690
scalar tree_4_3_u08_r11_network.node[0].core_layer 	data[0] 	0
scalar tree_4_3_u08_r11_network.node[0].core_layer 	repo_int[0] 	199690
scalar tree_4_3_u08_r11_network.node[0].content_store 	p_hit[0] 	0.0063542770703648
scalar tree_4_3_u08_r11_network.node[0].content_store 	hits[0] 	1277
scalar tree_4_3_u08_r11_network.node[0].content_store 	misses[0] 	199690
scalar tree_4_3_u08_r11_network.node[0].content_store 	decision_yes[0] 	199690
scalar tree_4_3_u08_r11_network.node[0].content_store 	decision_no[0] 	0
scalar tree_4_3_u08_r11_network.node[0].content_store 	decision_ratio[0] 	1
scalar tree_4_3_u08_r11_network.node[1].core_layer 	interests[1] 	106855
scalar tree_4_3_u08_r11_network.node[1].core_layer 	data[1] 	105006
scalar tree_4_3_u08_r11_network.node[1].content_store 	p_hit[1] 	0.017266389031866
scalar tree_4_3_u08_r11_network.node[1].content_store 	hits[1] 	1845
scalar tree_4_3_u08_r11_network.node[1].content_store 	misses[1] 	105010
scalar tree_4_3_u08_r11_network.node[1].content_store 	decision_yes[1] 	1792
scalar tree_4_3_u08_r11_network.node[1].content_store 	decision_no[1] 	103214
scalar tree_4_3_u08_r11_network.node[1].content_store 	decision_ratio[1] 	0.017065691484296
scalar tree_4_3_u08_r11_network.node[2].core_layer 	interests[2] 	63937
scalar tree_4_3_u08_r11_network.node[2].core_layer 	data[2] 	61585
scalar tree_4_3_u08_r11_network.node[2].content_store 	p_hit[2] 	0.036770571030858
scalar tree_4_3_u08_r11_network.node[2].content_store 	hits[2] 	2351
scalar tree_4_3_u08_r11_network.node[2].content_store 	misses[2] 	61586
scalar tree_4_3_u08_r11_network.node[2].content_store 	decision_yes[2] 	2084
scalar tree_4_3_u08_r11_network.node[2].content_store 	decision_no[2] 	59501
scalar tree_4_3_u08_r11_network.node[2].content_store 	decision_ratio[2] 	0.033839408946984
scalar tree_4_3_u08_r11_network.node[3].core_layer 	interests[3] 	41637
scalar tree_4_3_u08_r11_network.node[3].core_layer 	data[3] 	39650
scalar tree_4_3_u08_r11_network.node[3].content_store 	p_hit[3] 	0.04772197804837
scalar tree_4_3_u08_r11_network.node[3].content_store 	hits[3] 	1987
scalar tree_4_3_u08_r11_network.node[3].content_store 	misses[3] 	39650
scalar tree_4_3_u08_r11_network.node[3].content_store 	decision_yes[3] 	1402
scalar tree_4_3_u08_r11_network.node[3].content_store 	decision_no[3] 	38248
scalar tree_4_3_u08_r11_network.node[3].content_store 	decision_ratio[3] 	0.035359394703657
scalar tree_4_3_u08_r11_network.node[4].core_layer 	interests[4] 	41769
scalar tree_4_3_u08_r11_network.node[4].core_layer 	data[4] 	39755
scalar tree_4_3_u08_r11_network.node[4].content_store 	p_hit[4] 	0.048169695228519
scalar tree_4_3_u08_r11_network.node[4].content_store 	hits[4] 	2012
scalar tree_4_3_u08_r11_network.node[4].content_store 	misses[4] 	39757
scalar tree_4_3_u08_r11_network.node[4].content_store 	decision_yes[4] 	1958
scalar tree_4_3_u08_r11_network.node[4].content_store 	decision_no[4] 	37796
scalar tree_4_3_u08_r11_network.node[4].content_store 	decision_ratio[4] 	0.049252905368013
scalar tree_4_3_u08_r11_network.node[5].core_layer 	interests[5] 	19156
scalar tree_4_3_u08_r11_network.node[5].core_layer 	data[5] 	17104
scalar tree_4_3_u08_r11_network.node[5].content_store 	p_hit[5] 	0.10712048444352
scalar tree_4_3_u08_r11_network.node[5].content_store 	hits[5] 	2052
scalar tree_4_3_u08_r11_network.node[5].content_store 	misses[5] 	17104
scalar tree_4_3_u08_r11_network.node[5].content_store 	decision_yes[5] 	1936
scalar tree_4_3_u08_r11_network.node[5].content_store 	decision_no[5] 	15168
scalar tree_4_3_u08_r11_network.node[5].content_store 	decision_ratio[5] 	0.11318989710009
scalar tree_4_3_u08_r11_network.node[6].core_layer 	interests[6] 	21010
scalar tree_4_3_u08_r11_network.node[6].core_layer 	data[6] 	18380
scalar tree_4_3_u08_r11_network.node[6].content_store 	p_hit[6] 	0.12513089005236
scalar tree_4_3_u08_r11_network.node[6].content_store 	hits[6] 	2629
scalar tree_4_3_u08_r11_network.node[6].content_store 	misses[6] 	18381
scalar tree_4_3_u08_r11_network.node[6].content_store 	decision_yes[6] 	2885
scalar tree_4_3_u08_r11_network.node[6].content_store 	decision_no[6] 	15495
scalar tree_4_3_u08_r11_network.node[6].content_store 	decision_ratio[6] 	0.1569640914037
scalar tree_4_3_u08_r11_network.node[7].core_layer 	interests[7] 	43101
scalar tree_4_3_u08_r11_network.node[7].core_layer 	data[7] 	40627
scalar tree_4_3_u08_r11_network.node[7].content_store 	p_hit[7] 	0.057376859005592
scalar tree_4_3_u08_r11_network.node[7].content_store 	hits[7] 	2473
scalar tree_4_3_u08_r11_network.node[7].content_store 	misses[7] 	40628
scalar tree_4_3_u08_r11_network.node[7].content_store 	decision_yes[7] 	2974
scalar tree_4_3_u08_r11_network.node[7].content_store 	decision_no[7] 	37653
scalar tree_4_3_u08_r11_network.node[7].content_store 	decision_ratio[7] 	0.073202550028306
scalar tree_4_3_u08_r11_network.node[8].core_layer 	interests[8] 	26760
scalar tree_4_3_u08_r11_network.node[8].core_layer 	data[8] 	24650
scalar tree_4_3_u08_r11_network.node[8].content_store 	p_hit[8] 	0.078811659192825
scalar tree_4_3_u08_r11_network.node[8].content_store 	hits[8] 	2109
scalar tree_4_3_u08_r11_network.node[8].content_store 	misses[8] 	24651
scalar tree_4_3_u08_r11_network.node[8].content_store 	decision_yes[8] 	1691
scalar tree_4_3_u08_r11_network.node[8].content_store 	decision_no[8] 	22959
scalar tree_4_3_u08_r11_network.node[8].content_store 	decision_ratio[8] 	0.068600405679513
scalar tree_4_3_u08_r11_network.node[9].core_layer 	interests[9] 	11041
scalar tree_4_3_u08_r11_network.node[9].core_layer 	data[9] 	8979
scalar tree_4_3_u08_r11_network.node[9].content_store 	p_hit[9] 	0.18675844579295
scalar tree_4_3_u08_r11_network.node[9].content_store 	hits[9] 	2062
scalar tree_4_3_u08_r11_network.node[9].content_store 	misses[9] 	8979
scalar tree_4_3_u08_r11_network.node[9].content_store 	decision_yes[9] 	1258
scalar tree_4_3_u08_r11_network.node[9].content_store 	decision_no[9] 	7721
scalar tree_4_3_u08_r11_network.node[9].content_store 	decision_ratio[9] 	0.14010468871812
scalar tree_4_3_u08_r11_network.node[10].core_layer 	interests[10] 	35439
scalar tree_4_3_u08_r11_network.node[10].core_layer 	data[10] 	33345
scalar tree_4_3_u08_r11_network.node[10].content_store 	p_hit[10] 	0.05908744603403
scalar tree_4_3_u08_r11_network.node[10].content_store 	hits[10] 	2094
scalar tree_4_3_u08_r11_network.node[10].content_store 	misses[10] 	33345
scalar tree_4_3_u08_r11_network.node[10].content_store 	decision_yes[10] 	2122
scalar tree_4_3_u08_r11_network.node[10].content_store 	decision_no[10] 	31223
scalar tree_4_3_u08_r11_network.node[10].content_store 	decision_ratio[10] 	0.063637726795622
scalar tree_4_3_u08_r11_network.node[11].core_layer 	interests[11] 	34770
scalar tree_4_3_u08_r11_network.node[11].core_layer 	data[11] 	32528
scalar tree_4_3_u08_r11_network.node[11].content_store 	p_hit[11] 	0.064452113891286
scalar tree_4_3_u08_r11_network.node[11].content_store 	hits[11] 	2241
scalar tree_4_3_u08_r11_network.node[11].content_store 	misses[11] 	32529
scalar tree_4_3_u08_r11_network.node[11].content_store 	decision_yes[11] 	2133
scalar tree_4_3_u08_r11_network.node[11].content_store 	decision_no[11] 	30395
scalar tree_4_3_u08_r11_network.node[11].content_store 	decision_ratio[11] 	0.065574274471225
scalar tree_4_3_u08_r11_network.node[12].core_layer 	interests[12] 	11077
scalar tree_4_3_u08_r11_network.node[12].core_layer 	data[12] 	9068
scalar tree_4_3_u08_r11_network.node[12].content_store 	p_hit[12] 	0.18136679606392
scalar tree_4_3_u08_r11_network.node[12].content_store 	hits[12] 	2009
scalar tree_4_3_u08_r11_network.node[12].content_store 	misses[12] 	9068
scalar tree_4_3_u08_r11_network.node[12].content_store 	decision_yes[12] 	1235
scalar tree_4_3_u08_r11_network.node[12].content_store 	decision_no[12] 	7833
scalar tree_4_3_u08_r11_network.node[12].content_store 	decision_ratio[12] 	0.13619320688134
scalar tree_4_3_u08_r11_network.node[13].core_layer 	interests[13] 	12240
scalar tree_4_3_u08_r11_network.node[13].core_layer 	data[13] 	8695
scalar tree_4_3_u08_r11_network.node[13].content_store 	p_hit[13] 	0.28962418300654
scalar tree_4_3_u08_r11_network.node[13].content_store 	hits[13] 	3545
scalar tree_4_3_u08_r11_network.node[13].content_store 	misses[13] 	8695
scalar tree_4_3_u08_r11_network.node[13].content_store 	decision_yes[13] 	378
scalar tree_4_3_u08_r11_network.node[13].content_store 	decision_no[13] 	8317
scalar tree_4_3_u08_r11_network.node[13].content_store 	decision_ratio[13] 	0.043473260494537
scalar tree_4_3_u08_r11_network.node[14].core_layer 	interests[14] 	12753
scalar tree_4_3_u08_r11_network.node[14].core_layer 	data[14] 	9095
scalar tree_4_3_u08_r11_network.node[14].content_store 	p_hit[14] 	0.28683447032071
scalar tree_4_3_u08_r11_network.node[14].content_store 	hits[14] 	3658
scalar tree_4_3_u08_r11_network.node[14].content_store 	misses[14] 	9095
scalar tree_4_3_u08_r11_network.node[14].content_store 	decision_yes[14] 	701
scalar tree_4_3_u08_r11_network.node[14].content_store 	decision_no[14] 	8394
scalar tree_4_3_u08_r11_network.node[14].content_store 	decision_ratio[14] 	0.077075316107752
scalar tree_4_3_u08_r11_network.node[15].core_layer 	interests[15] 	12712
scalar tree_4_3_u08_r11_network.node[15].core_layer 	data[15] 	8851
scalar tree_4_3_u08_r11_network.node[15].content_store 	p_hit[15] 	0.30372876022656
scalar tree_4_3_u08_r11_network.node[15].content_store 	hits[15] 	3861
scalar tree_4_3_u08_r11_network.node[15].content_store 	misses[15] 	8851
scalar tree_4_3_u08_r11_network.node[15].content_store 	decision_yes[15] 	683
scalar tree_4_3_u08_r11_network.node[15].content_store 	decision_no[15] 	8168
scalar tree_4_3_u08_r11_network.node[15].content_store 	decision_ratio[15] 	0.077166421873235
scalar tree_4_3_u08_r11_network.node[16].core_layer 	interests[16] 	12643
scalar tree_4_3_u08_r11_network.node[16].core_layer 	data[16] 	8935
scalar tree_4_3_u08_r11_network.node[16].content_store 	p_hit[16] 	0.29328482164043
scalar tree_4_3_u08_r11_network.node[16].content_store 	hits[16] 	3708
scalar tree_4_3_u08_r11_network.node[16].content_store 	misses[16] 	8935
scalar tree_4_3_u08_r11_network.node[16].content_store 	decision_yes[16] 	704
scalar tree_4_3_u08_r11_network.node[16].content_store 	decision_no[16] 	8231
scalar tree_4_3_u08_r11_network.node[16].content_store 	decision_ratio[16] 	0.078791270285395
scalar tree_4_3_u08_r11_network.node[17].core_layer 	interests[17] 	12216
scalar tree_4_3_u08_r11_network.node[17].core_layer 	data[17] 	8780
scalar tree_4_3_u08_r11_network.node[17].content_store 	p_hit[17] 	0.28127046496398
scalar tree_4_3_u08_r11_network.node[17].content_store 	hits[17] 	3436
scalar tree_4_3_u08_r11_network.node[17].content_store 	misses[17] 	8780
scalar tree_4_3_u08_r11_network.node[17].content_store 	decision_yes[17] 	400
scalar tree_4_3_u08_r11_network.node[17].content_store 	decision_no[17] 	8380
scalar tree_4_3_u08_r11_network.node[17].content_store 	decision_ratio[17] 	0.045558086560364
scalar tree_4_3_u08_r11_network.node[18].core_layer 	interests[18] 	12757
scalar tree_4_3_u08_r11_network.node[18].core_layer 	data[18] 	8874
scalar tree_4_3_u08_r11_network.node[18].content_store 	p_hit[18] 	0.30438190797209
scalar tree_4_3_u08_r11_network.node[18].content_store 	hits[18] 	3883
scalar tree_4_3_u08_r11_network.node[18].content_store 	misses[18] 	8874
scalar tree_4_3_u08_r11_network.node[18].content_store 	decision_yes[18] 	713
scalar tree_4_3_u08_r11_network.node[18].content_store 	decision_no[18] 	8161
scalar tree_4_3_u08_r11_network.node[18].content_store 	decision_ratio[18] 	0.08034708136128
scalar tree_4_3_u08_r11_network.node[19].core_layer 	interests[19] 	12509
scalar tree_4_3_u08_r11_network.node[19].core_layer 	data[19] 	8786
scalar tree_4_3_u08_r11_network.node[19].content_store 	p_hit[19] 	0.29754576704773
scalar tree_4_3_u08_r11_network.node[19].content_store 	hits[19] 	3722
scalar tree_4_3_u08_r11_network.node[19].content_store 	misses[19] 	8787
scalar tree_4_3_u08_r11_network.node[19].content_store 	decision_yes[19] 	693
scalar tree_4_3_u08_r11_network.node[19].content_store 	decision_no[19] 	8093
scalar tree_4_3_u08_r11_network.node[19].content_store 	decision_ratio[19] 	0.078875483724107
scalar tree_4_3_u08_r11_network.node[20].core_layer 	interests[20] 	12263
scalar tree_4_3_u08_r11_network.node[20].core_layer 	data[20] 	8695
scalar tree_4_3_u08_r11_network.node[20].content_store 	p_hit[20] 	0.29087498980674
scalar tree_4_3_u08_r11_network.node[20].content_store 	hits[20] 	3567
scalar tree_4_3_u08_r11_network.node[20].content_store 	misses[20] 	8696
scalar tree_4_3_u08_r11_network.node[20].content_store 	decision_yes[20] 	393
scalar tree_4_3_u08_r11_network.node[20].content_store 	decision_no[20] 	8302
scalar tree_4_3_u08_r11_network.node[20].content_store 	decision_ratio[20] 	0.045198389879241
scalar tree_4_3_u08_r11_network.node[21].core_layer 	interests[21] 	12549
scalar tree_4_3_u08_r11_network.node[21].core_layer 	data[21] 	9001
scalar tree_4_3_u08_r11_network.node[21].content_store 	p_hit[21] 	0.28273169176827
scalar tree_4_3_u08_r11_network.node[21].content_store 	hits[21] 	3548
scalar tree_4_3_u08_r11_network.node[21].content_store 	misses[21] 	9001
scalar tree_4_3_u08_r11_network.node[21].content_store 	decision_yes[21] 	412
scalar tree_4_3_u08_r11_network.node[21].content_store 	decision_no[21] 	8589
scalar tree_4_3_u08_r11_network.node[21].content_store 	decision_ratio[21] 	0.04577269192312
scalar tree_4_3_u08_r11_network.node[22].core_layer 	interests[22] 	12180
scalar tree_4_3_u08_r11_network.node[22].core_layer 	data[22] 	8718
scalar tree_4_3_u08_r11_network.node[22].content_store 	p_hit[22] 	0.28423645320197
scalar tree_4_3_u08_r11_network.node[22].content_store 	hits[22] 	3462
scalar tree_4_3_u08_r11_network.node[22].content_store 	misses[22] 	8718
scalar tree_4_3_u08_r11_network.node[22].content_store 	decision_yes[22] 	404
scalar tree_4_3_u08_r11_network.node[22].content_store 	decision_no[22] 	8314
scalar tree_4_3_u08_r11_network.node[22].content_store 	decision_ratio[22] 	0.046340903877036
scalar tree_4_3_u08_r11_network.node[23].core_layer 	interests[23] 	12729
scalar tree_4_3_u08_r11_network.node[23].core_layer 	data[23] 	9048
scalar tree_4_3_u08_r11_network.node[23].content_store 	p_hit[23] 	0.2891821824181
scalar tree_4_3_u08_r11_network.node[23].content_store 	hits[23] 	3681
scalar tree_4_3_u08_r11_network.node[23].content_store 	misses[23] 	9048
scalar tree_4_3_u08_r11_network.node[23].content_store 	decision_yes[23] 	726
scalar tree_4_3_u08_r11_network.node[23].content_store 	decision_no[23] 	8322
scalar tree_4_3_u08_r11_network.node[23].content_store 	decision_ratio[23] 	0.080238726790451
scalar tree_4_3_u08_r11_network.node[24].core_layer 	interests[24] 	12565
scalar tree_4_3_u08_r11_network.node[24].core_layer 	data[24] 	8812
scalar tree_4_3_u08_r11_network.node[24].content_store 	p_hit[24] 	0.29868682849184
scalar tree_4_3_u08_r11_network.node[24].content_store 	hits[24] 	3753
scalar tree_4_3_u08_r11_network.node[24].content_store 	misses[24] 	8812
scalar tree_4_3_u08_r11_network.node[24].content_store 	decision_yes[24] 	734
scalar tree_4_3_u08_r11_network.node[24].content_store 	decision_no[24] 	8078
scalar tree_4_3_u08_r11_network.node[24].content_store 	decision_ratio[24] 	0.083295506128007
scalar tree_4_3_u08_r11_network.node[25].core_layer 	interests[25] 	12657
scalar tree_4_3_u08_r11_network.node[25].core_layer 	data[25] 	8820
scalar tree_4_3_u08_r11_network.node[25].content_store 	p_hit[25] 	0.30315240578336
scalar tree_4_3_u08_r11_network.node[25].content_store 	hits[25] 	3837
scalar tree_4_3_u08_r11_network.node[25].content_store 	misses[25] 	8820
scalar tree_4_3_u08_r11_network.node[25].content_store 	decision_yes[25] 	728
scalar tree_4_3_u08_r11_network.node[25].content_store 	decision_no[25] 	8092
scalar tree_4_3_u08_r11_network.node[25].content_store 	decision_ratio[25] 	0.082539682539683
scalar tree_4_3_u08_r11_network.node[26].core_layer 	interests[26] 	12253
scalar tree_4_3_u08_r11_network.node[26].core_layer 	data[26] 	8844
scalar tree_4_3_u08_r11_network.node[26].content_store 	p_hit[26] 	0.27821757936832
scalar tree_4_3_u08_r11_network.node[26].content_store 	hits[26] 	3409
scalar tree_4_3_u08_r11_network.node[26].content_store 	misses[26] 	8844
scalar tree_4_3_u08_r11_network.node[26].content_store 	decision_yes[26] 	424
scalar tree_4_3_u08_r11_network.node[26].content_store 	decision_no[26] 	8420
scalar tree_4_3_u08_r11_network.node[26].content_store 	decision_ratio[26] 	0.0479421076436
scalar tree_4_3_u08_r11_network.node[27].core_layer 	interests[27] 	12385
scalar tree_4_3_u08_r11_network.node[27].core_layer 	data[27] 	8730
scalar tree_4_3_u08_r11_network.node[27].content_store 	p_hit[27] 	0.29503431570448
scalar tree_4_3_u08_r11_network.node[27].content_store 	hits[27] 	3654
scalar tree_4_3_u08_r11_network.node[27].content_store 	misses[27] 	8731
scalar tree_4_3_u08_r11_network.node[27].content_store 	decision_yes[27] 	644
scalar tree_4_3_u08_r11_network.node[27].content_store 	decision_no[27] 	8086
scalar tree_4_3_u08_r11_network.node[27].content_store 	decision_ratio[27] 	0.0737686139748
scalar tree_4_3_u08_r11_network.node[28].core_layer 	interests[28] 	12649
scalar tree_4_3_u08_r11_network.node[28].core_layer 	data[28] 	8983
scalar tree_4_3_u08_r11_network.node[28].content_store 	p_hit[28] 	0.28982528263104
scalar tree_4_3_u08_r11_network.node[28].content_store 	hits[28] 	3666
scalar tree_4_3_u08_r11_network.node[28].content_store 	misses[28] 	8983
scalar tree_4_3_u08_r11_network.node[28].content_store 	decision_yes[28] 	754
scalar tree_4_3_u08_r11_network.node[28].content_store 	decision_no[28] 	8229
scalar tree_4_3_u08_r11_network.node[28].content_store 	decision_ratio[28] 	0.083936324167873
scalar tree_4_3_u08_r11_network.node[29].core_layer 	interests[29] 	12323
scalar tree_4_3_u08_r11_network.node[29].core_layer 	data[29] 	8724
scalar tree_4_3_u08_r11_network.node[29].content_store 	p_hit[29] 	0.29197435689361
scalar tree_4_3_u08_r11_network.node[29].content_store 	hits[29] 	3598
scalar tree_4_3_u08_r11_network.node[29].content_store 	misses[29] 	8725
scalar tree_4_3_u08_r11_network.node[29].content_store 	decision_yes[29] 	682
scalar tree_4_3_u08_r11_network.node[29].content_store 	decision_no[29] 	8042
scalar tree_4_3_u08_r11_network.node[29].content_store 	decision_ratio[29] 	0.078175149014214
scalar tree_4_3_u08_r11_network.node[30].core_layer 	interests[30] 	12144
scalar tree_4_3_u08_r11_network.node[30].core_layer 	data[30] 	8697
scalar tree_4_3_u08_r11_network.node[30].content_store 	p_hit[30] 	0.28384387351779
scalar tree_4_3_u08_r11_network.node[30].content_store 	hits[30] 	3447
scalar tree_4_3_u08_r11_network.node[30].content_store 	misses[30] 	8697
scalar tree_4_3_u08_r11_network.node[30].content_store 	decision_yes[30] 	358
scalar tree_4_3_u08_r11_network.node[30].content_store 	decision_no[30] 	8339
scalar tree_4_3_u08_r11_network.node[30].content_store 	decision_ratio[30] 	0.041163619638956
scalar tree_4_3_u08_r11_network.node[31].core_layer 	interests[31] 	12256
scalar tree_4_3_u08_r11_network.node[31].core_layer 	data[31] 	8755
scalar tree_4_3_u08_r11_network.node[31].content_store 	p_hit[31] 	0.28565600522193
scalar tree_4_3_u08_r11_network.node[31].content_store 	hits[31] 	3501
scalar tree_4_3_u08_r11_network.node[31].content_store 	misses[31] 	8755
scalar tree_4_3_u08_r11_network.node[31].content_store 	decision_yes[31] 	402
scalar tree_4_3_u08_r11_network.node[31].content_store 	decision_no[31] 	8353
scalar tree_4_3_u08_r11_network.node[31].content_store 	decision_ratio[31] 	0.045916619074814
scalar tree_4_3_u08_r11_network.node[32].core_layer 	interests[32] 	12344
scalar tree_4_3_u08_r11_network.node[32].core_layer 	data[32] 	8871
scalar tree_4_3_u08_r11_network.node[32].content_store 	p_hit[32] 	0.28135126377187
scalar tree_4_3_u08_r11_network.node[32].content_store 	hits[32] 	3473
scalar tree_4_3_u08_r11_network.node[32].content_store 	misses[32] 	8871
scalar tree_4_3_u08_r11_network.node[32].content_store 	decision_yes[32] 	417
scalar tree_4_3_u08_r11_network.node[32].content_store 	decision_no[32] 	8454
scalar tree_4_3_u08_r11_network.node[32].content_store 	decision_ratio[32] 	0.047007101792357
scalar tree_4_3_u08_r11_network.node[33].core_layer 	interests[33] 	12577
scalar tree_4_3_u08_r11_network.node[33].core_layer 	data[33] 	8932
scalar tree_4_3_u08_r11_network.node[33].content_store 	p_hit[33] 	0.28981474119424
scalar tree_4_3_u08_r11_network.node[33].content_store 	hits[33] 	3645
scalar tree_4_3_u08_r11_network.node[33].content_store 	misses[33] 	8932
scalar tree_4_3_u08_r11_network.node[33].content_store 	decision_yes[33] 	705
scalar tree_4_3_u08_r11_network.node[33].content_store 	decision_no[33] 	8227
scalar tree_4_3_u08_r11_network.node[33].content_store 	decision_ratio[33] 	0.078929690998657
scalar tree_4_3_u08_r11_network.node[34].core_layer 	interests[34] 	12413
scalar tree_4_3_u08_r11_network.node[34].core_layer 	data[34] 	8657
scalar tree_4_3_u08_r11_network.node[34].content_store 	p_hit[34] 	0.30258599854991
scalar tree_4_3_u08_r11_network.node[34].content_store 	hits[34] 	3756
scalar tree_4_3_u08_r11_network.node[34].content_store 	misses[34] 	8657
scalar tree_4_3_u08_r11_network.node[34].content_store 	decision_yes[34] 	689
scalar tree_4_3_u08_r11_network.node[34].content_store 	decision_no[34] 	7968
scalar tree_4_3_u08_r11_network.node[34].content_store 	decision_ratio[34] 	0.079588772091949
scalar tree_4_3_u08_r11_network.node[35].core_layer 	interests[35] 	12385
scalar tree_4_3_u08_r11_network.node[35].core_layer 	data[35] 	9043
scalar tree_4_3_u08_r11_network.node[35].content_store 	p_hit[35] 	0.26984255147356
scalar tree_4_3_u08_r11_network.node[35].content_store 	hits[35] 	3342
scalar tree_4_3_u08_r11_network.node[35].content_store 	misses[35] 	9043
scalar tree_4_3_u08_r11_network.node[35].content_store 	decision_yes[35] 	403
scalar tree_4_3_u08_r11_network.node[35].content_store 	decision_no[35] 	8640
scalar tree_4_3_u08_r11_network.node[35].content_store 	decision_ratio[35] 	0.044564856795311
scalar tree_4_3_u08_r11_network.node[36].core_layer 	interests[36] 	12283
scalar tree_4_3_u08_r11_network.node[36].core_layer 	data[36] 	8741
scalar tree_4_3_u08_r11_network.node[36].content_store 	p_hit[36] 	0.28836603435643
scalar tree_4_3_u08_r11_network.node[36].content_store 	hits[36] 	3542
scalar tree_4_3_u08_r11_network.node[36].content_store 	misses[36] 	8741
scalar tree_4_3_u08_r11_network.node[36].content_store 	decision_yes[36] 	696
scalar tree_4_3_u08_r11_network.node[36].content_store 	decision_no[36] 	8045
scalar tree_4_3_u08_r11_network.node[36].content_store 	decision_ratio[36] 	0.079624756892804
scalar tree_4_3_u08_r11_network.node[37].core_layer 	interests[37] 	12585
scalar tree_4_3_u08_r11_network.node[37].core_layer 	data[37] 	8913
scalar tree_4_3_u08_r11_network.node[37].content_store 	p_hit[37] 	0.29177592371871
scalar tree_4_3_u08_r11_network.node[37].content_store 	hits[37] 	3672
scalar tree_4_3_u08_r11_network.node[37].content_store 	misses[37] 	8913
scalar tree_4_3_u08_r11_network.node[37].content_store 	decision_yes[37] 	733
scalar tree_4_3_u08_r11_network.node[37].content_store 	decision_no[37] 	8180
scalar tree_4_3_u08_r11_network.node[37].content_store 	decision_ratio[37] 	0.082239425558173
scalar tree_4_3_u08_r11_network.node[38].core_layer 	interests[38] 	12707
scalar tree_4_3_u08_r11_network.node[38].core_layer 	data[38] 	9056
scalar tree_4_3_u08_r11_network.node[38].content_store 	p_hit[38] 	0.28732194853231
scalar tree_4_3_u08_r11_network.node[38].content_store 	hits[38] 	3651
scalar tree_4_3_u08_r11_network.node[38].content_store 	misses[38] 	9056
scalar tree_4_3_u08_r11_network.node[38].content_store 	decision_yes[38] 	734
scalar tree_4_3_u08_r11_network.node[38].content_store 	decision_no[38] 	8322
scalar tree_4_3_u08_r11_network.node[38].content_store 	decision_ratio[38] 	0.081051236749117
scalar tree_4_3_u08_r11_network.node[39].core_layer 	interests[39] 	12238
scalar tree_4_3_u08_r11_network.node[39].core_layer 	data[39] 	8790
scalar tree_4_3_u08_r11_network.node[39].content_store 	p_hit[39] 	0.28174538323255
scalar tree_4_3_u08_r11_network.node[39].content_store 	hits[39] 	3448
scalar tree_4_3_u08_r11_network.node[39].content_store 	misses[39] 	8790
scalar tree_4_3_u08_r11_network.node[39].content_store 	decision_yes[39] 	370
scalar tree_4_3_u08_r11_network.node[39].content_store 	decision_no[39] 	8420
scalar tree_4_3_u08_r11_network.node[39].content_store 	decision_ratio[39] 	0.042093287827076
scalar tree_4_3_u08_r11_network.client[13] 	hdistance[13] 	2.683842503954
scalar tree_4_3_u08_r11_network.client[13] 	downloads[13] 	12013
scalar tree_4_3_u08_r11_network.client[13] 	avg_time[13] 	0.004137695506
scalar tree_4_3_u08_r11_network.client[14] 	hdistance[14] 	2.6836333878887
scalar tree_4_3_u08_r11_network.client[14] 	downloads[14] 	12220
scalar tree_4_3_u08_r11_network.client[14] 	avg_time[14] 	0.004135839816
scalar tree_4_3_u08_r11_network.client[15] 	hdistance[15] 	2.6467323780337
scalar tree_4_3_u08_r11_network.client[15] 	downloads[15] 	12073
scalar tree_4_3_u08_r11_network.client[15] 	avg_time[15] 	0.004075868787
scalar tree_4_3_u08_r11_network.client[16] 	hdistance[16] 	2.663662670525
scalar tree_4_3_u08_r11_network.client[16] 	downloads[16] 	12095
scalar tree_4_3_u08_r11_network.client[16] 	avg_time[16] 	0.004103014775
scalar tree_4_3_u08_r11_network.client[17] 	hdistance[17] 	2.6850999749017
scalar tree_4_3_u08_r11_network.client[17] 	downloads[17] 	11953
scalar tree_4_3_u08_r11_network.client[17] 	avg_time[17] 	0.004154100628
scalar tree_4_3_u08_r11_network.client[18] 	hdistance[18] 	2.6341077525189
scalar tree_4_3_u08_r11_network.client[18] 	downloads[18] 	12009
scalar tree_4_3_u08_r11_network.client[18] 	avg_time[18] 	0.00406725023
scalar tree_4_3_u08_r11_network.client[19] 	hdistance[19] 	2.67617279784
scalar tree_4_3_u08_r11_network.client[19] 	downloads[19] 	11852
scalar tree_4_3_u08_r11_network.client[19] 	avg_time[19] 	0.004120314247
scalar tree_4_3_u08_r11_network.client[20] 	hdistance[20] 	2.6694124569219
scalar tree_4_3_u08_r11_network.client[20] 	downloads[20] 	11897
scalar tree_4_3_u08_r11_network.client[20] 	avg_time[20] 	0.004124902452
scalar tree_4_3_u08_r11_network.client[21] 	hdistance[21] 	2.709568788501
scalar tree_4_3_u08_r11_network.client[21] 	downloads[21] 	12175
scalar tree_4_3_u08_r11_network.client[21] 	avg_time[21] 	0.004180202304
scalar tree_4_3_u08_r11_network.client[22] 	hdistance[22] 	2.6845569620253
scalar tree_4_3_u08_r11_network.client[22] 	downloads[22] 	11850
scalar tree_4_3_u08_r11_network.client[22] 	avg_time[22] 	0.004148669032
scalar tree_4_3_u08_r11_network.client[23] 	hdistance[23] 	2.6820056077849
scalar tree_4_3_u08_r11_network.client[23] 	downloads[23] 	12126
scalar tree_4_3_u08_r11_network.client[23] 	avg_time[23] 	0.004133924093
scalar tree_4_3_u08_r11_network.client[24] 	hdistance[24] 	2.6309494144032
scalar tree_4_3_u08_r11_network.client[24] 	downloads[24] 	12039
scalar tree_4_3_u08_r11_network.client[24] 	avg_time[24] 	0.004050333412
scalar tree_4_3_u08_r11_network.client[25] 	hdistance[25] 	2.6254249937806
scalar tree_4_3_u08_r11_network.client[25] 	downloads[25] 	12059
scalar tree_4_3_u08_r11_network.client[25] 	avg_time[25] 	0.004044842999
scalar tree_4_3_u08_r11_network.client[26] 	hdistance[26] 	2.7069524046848
scalar tree_4_3_u08_r11_network.client[26] 	downloads[26] 	12039
scalar tree_4_3_u08_r11_network.client[26] 	avg_time[26] 	0.004172934933
scalar tree_4_3_u08_r11_network.client[27] 	hdistance[27] 	2.680010091666
scalar tree_4_3_u08_r11_network.client[27] 	downloads[27] 	11891
scalar tree_4_3_u08_r11_network.client[27] 	avg_time[27] 	0.004115956235
scalar tree_4_3_u08_r11_network.client[28] 	hdistance[28] 	2.6686268013914
scalar tree_4_3_u08_r11_network.client[28] 	downloads[28] 	12074
scalar tree_4_3_u08_r11_network.client[28] 	avg_time[28] 	0.00411303819
scalar tree_4_3_u08_r11_network.client[29] 	hdistance[29] 	2.6810002534426
scalar tree_4_3_u08_r11_network.client[29] 	downloads[29] 	11837
scalar tree_4_3_u08_r11_network.client[29] 	avg_time[29] 	0.004121818421
scalar tree_4_3_u08_r11_network.client[30] 	hdistance[30] 	2.6964599548079
scalar tree_4_3_u08_r11_network.client[30] 	downloads[30] 	11949
scalar tree_4_3_u08_r11_network.client[30] 	avg_time[30] 	0.004157499757
scalar tree_4_3_u08_r11_network.client[31] 	hdistance[31] 	2.7112687813022
scalar tree_4_3_u08_r11_network.client[31] 	downloads[31] 	11980
scalar tree_4_3_u08_r11_network.client[31] 	avg_time[31] 	0.004166274132
scalar tree_4_3_u08_r11_network.client[32] 	hdistance[32] 	2.7198475811796
scalar tree_4_3_u08_r11_network.client[32] 	downloads[32] 	12072
scalar tree_4_3_u08_r11_network.client[32] 	avg_time[32] 	0.004179586105
scalar tree_4_3_u08_r11_network.client[33] 	hdistance[33] 	2.7009430840503
scalar tree_4_3_u08_r11_network.client[33] 	downloads[33] 	12088
scalar tree_4_3_u08_r11_network.client[33] 	avg_time[33] 	0.004139474131
scalar tree_4_3_u08_r11_network.client[34] 	hdistance[34] 	2.6523032466429
scalar tree_4_3_u08_r11_network.client[34] 	downloads[34] 	11766
scalar tree_4_3_u08_r11_network.client[34] 	avg_time[34] 	0.004087537408
scalar tree_4_3_u08_r11_network.client[35] 	hdistance[35] 	2.7363989102617
scalar tree_4_3_u08_r11_network.client[35] 	downloads[35] 	12113
scalar tree_4_3_u08_r11_network.client[35] 	avg_time[35] 	0.004227202548
scalar tree_4_3_u08_r11_network.client[36] 	hdistance[36] 	2.6667513550135
scalar tree_4_3_u08_r11_network.client[36] 	downloads[36] 	11808
scalar tree_4_3_u08_r11_network.client[36] 	avg_time[36] 	0.004111446945
scalar tree_4_3_u08_r11_network.client[37] 	hdistance[37] 	2.6917199568142
scalar tree_4_3_u08_r11_network.client[37] 	downloads[37] 	12041
scalar tree_4_3_u08_r11_network.client[37] 	avg_time[37] 	0.004130883132
scalar tree_4_3_u08_r11_network.client[38] 	hdistance[38] 	2.6630754162586
scalar tree_4_3_u08_r11_network.client[38] 	downloads[38] 	12252
scalar tree_4_3_u08_r11_network.client[38] 	avg_time[38] 	0.004105775568
scalar tree_4_3_u08_r11_network.client[39] 	hdistance[39] 	2.7162094763092
scalar tree_4_3_u08_r11_network.client[39] 	downloads[39] 	12030
scalar tree_4_3_u08_r11_network.client[39] 	avg_time[39] 	0.00417572435
