version 2
run General-63-20160820-03:40:42-14346
attr a 0.9
attr cd fix0.1
attr configname General
attr cr lru
attr datetime 20160820-03:40:42
attr experiment General
attr fsize 1
attr inifile hw5115/scenario_A/SPR-FIX0.1.ini
attr iterationvars "$name=tree_4_3, $un=03, $rep=4, $cd=fix0.1, $cr=lru, $fsize=1, $a=0.9, $sl=spr, $ttl=1000, $variance=0.05"
attr iterationvars2 "$name=tree_4_3, $un=03, $rep=4, $cd=fix0.1, $cr=lru, $fsize=1, $a=0.9, $sl=spr, $ttl=1000, $variance=0.05, $repetition=0"
attr measurement "$name=tree_4_3, $un=03, $rep=4, $cd=fix0.1, $cr=lru, $fsize=1, $a=0.9, $sl=spr, $ttl=1000, $variance=0.05"
attr name tree_4_3
attr network networks.${name}_u${un}_r${rep}_network
attr processid 14346
attr rep 4
attr repetition 0
attr replication #0
attr resultdir results
attr runnumber 63
attr seedset 4
attr sl spr
attr ttl 1000
attr un 03
attr variance 0.05

scalar . 	a 	0.9
scalar . 	fsize 	1
scalar . 	rep 	4
scalar . 	ttl 	1000
scalar . 	un 	03
scalar . 	variance 	0.05
scalar tree_4_3_u03_r4_network.content_distribution 	repo-0 	0
scalar tree_4_3_u03_r4_network.content_distribution 	client-0 	13
scalar tree_4_3_u03_r4_network.content_distribution 	client-1 	14
scalar tree_4_3_u03_r4_network.content_distribution 	client-2 	15
scalar tree_4_3_u03_r4_network.content_distribution 	client-3 	16
scalar tree_4_3_u03_r4_network.content_distribution 	client-4 	17
scalar tree_4_3_u03_r4_network.content_distribution 	client-5 	18
scalar tree_4_3_u03_r4_network.content_distribution 	client-6 	19
scalar tree_4_3_u03_r4_network.content_distribution 	client-7 	20
scalar tree_4_3_u03_r4_network.content_distribution 	client-8 	21
scalar tree_4_3_u03_r4_network.content_distribution 	client-9 	22
scalar tree_4_3_u03_r4_network.content_distribution 	client-10 	23
scalar tree_4_3_u03_r4_network.content_distribution 	client-11 	24
scalar tree_4_3_u03_r4_network.content_distribution 	client-12 	25
scalar tree_4_3_u03_r4_network.content_distribution 	client-13 	26
scalar tree_4_3_u03_r4_network.content_distribution 	client-14 	27
scalar tree_4_3_u03_r4_network.content_distribution 	client-15 	28
scalar tree_4_3_u03_r4_network.content_distribution 	client-16 	29
scalar tree_4_3_u03_r4_network.content_distribution 	client-17 	30
scalar tree_4_3_u03_r4_network.content_distribution 	client-18 	31
scalar tree_4_3_u03_r4_network.content_distribution 	client-19 	32
scalar tree_4_3_u03_r4_network.content_distribution 	client-20 	33
scalar tree_4_3_u03_r4_network.content_distribution 	client-21 	34
scalar tree_4_3_u03_r4_network.content_distribution 	client-22 	35
scalar tree_4_3_u03_r4_network.content_distribution 	client-23 	36
scalar tree_4_3_u03_r4_network.content_distribution 	client-24 	37
scalar tree_4_3_u03_r4_network.content_distribution 	client-25 	38
scalar tree_4_3_u03_r4_network.content_distribution 	client-26 	39
scalar tree_4_3_u03_r4_network.content_distribution 	repo-0_card 	100000
scalar tree_4_3_u03_r4_network.content_distribution 	repo-0_price 	0
scalar tree_4_3_u03_r4_network.statistics 	stabilization_time 	1054.7
scalar tree_4_3_u03_r4_network.statistics 	p_hit 	0.14855604668096
scalar tree_4_3_u03_r4_network.statistics 	interests 	26819.675
scalar tree_4_3_u03_r4_network.statistics 	data 	18719.525
scalar tree_4_3_u03_r4_network.statistics 	hdistance 	3.0461558242195
scalar tree_4_3_u03_r4_network.statistics 	avg_time 	0.004622295347
scalar tree_4_3_u03_r4_network.statistics 	downloads 	323994
scalar tree_4_3_u03_r4_network.statistics 	total_cost 	0
scalar tree_4_3_u03_r4_network.statistics 	total_replicas 	100000
scalar tree_4_3_u03_r4_network.statistics 	inner_hit 	0.26509132885177
scalar tree_4_3_u03_r4_network.node[0].core_layer 	interests[0] 	242692
scalar tree_4_3_u03_r4_network.node[0].core_layer 	repo_load[0] 	238106
scalar tree_4_3_u03_r4_network.node[0].core_layer 	data[0] 	0
scalar tree_4_3_u03_r4_network.node[0].core_layer 	repo_int[0] 	238106
scalar tree_4_3_u03_r4_network.node[0].content_store 	p_hit[0] 	0.01889637894945
scalar tree_4_3_u03_r4_network.node[0].content_store 	hits[0] 	4586
scalar tree_4_3_u03_r4_network.node[0].content_store 	misses[0] 	238106
scalar tree_4_3_u03_r4_network.node[0].content_store 	decision_yes[0] 	23588
scalar tree_4_3_u03_r4_network.node[0].content_store 	decision_no[0] 	214518
scalar tree_4_3_u03_r4_network.node[0].content_store 	decision_ratio[0] 	0.099065122256474
scalar tree_4_3_u03_r4_network.node[1].core_layer 	interests[1] 	110673
scalar tree_4_3_u03_r4_network.node[1].core_layer 	data[1] 	108033
scalar tree_4_3_u03_r4_network.node[1].content_store 	p_hit[1] 	0.023808878407561
scalar tree_4_3_u03_r4_network.node[1].content_store 	hits[1] 	2635
scalar tree_4_3_u03_r4_network.node[1].content_store 	misses[1] 	108038
scalar tree_4_3_u03_r4_network.node[1].content_store 	decision_yes[1] 	10771
scalar tree_4_3_u03_r4_network.node[1].content_store 	decision_no[1] 	97262
scalar tree_4_3_u03_r4_network.node[1].content_store 	decision_ratio[1] 	0.099701017281756
scalar tree_4_3_u03_r4_network.node[2].core_layer 	interests[2] 	91884
scalar tree_4_3_u03_r4_network.node[2].core_layer 	data[2] 	89721
scalar tree_4_3_u03_r4_network.node[2].content_store 	p_hit[2] 	0.023529667842062
scalar tree_4_3_u03_r4_network.node[2].content_store 	hits[2] 	2162
scalar tree_4_3_u03_r4_network.node[2].content_store 	misses[2] 	89722
scalar tree_4_3_u03_r4_network.node[2].content_store 	decision_yes[2] 	8911
scalar tree_4_3_u03_r4_network.node[2].content_store 	decision_no[2] 	80810
scalar tree_4_3_u03_r4_network.node[2].content_store 	decision_ratio[2] 	0.099319000011146
scalar tree_4_3_u03_r4_network.node[3].core_layer 	interests[3] 	46032
scalar tree_4_3_u03_r4_network.node[3].core_layer 	data[3] 	44938
scalar tree_4_3_u03_r4_network.node[3].content_store 	p_hit[3] 	0.023722627737226
scalar tree_4_3_u03_r4_network.node[3].content_store 	hits[3] 	1092
scalar tree_4_3_u03_r4_network.node[3].content_store 	misses[3] 	44940
scalar tree_4_3_u03_r4_network.node[3].content_store 	decision_yes[3] 	4487
scalar tree_4_3_u03_r4_network.node[3].content_store 	decision_no[3] 	40451
scalar tree_4_3_u03_r4_network.node[3].content_store 	decision_ratio[3] 	0.099848680404112
scalar tree_4_3_u03_r4_network.node[4].core_layer 	interests[4] 	28702
scalar tree_4_3_u03_r4_network.node[4].core_layer 	data[4] 	27720
scalar tree_4_3_u03_r4_network.node[4].content_store 	p_hit[4] 	0.03417880287088
scalar tree_4_3_u03_r4_network.node[4].content_store 	hits[4] 	981
scalar tree_4_3_u03_r4_network.node[4].content_store 	misses[4] 	27721
scalar tree_4_3_u03_r4_network.node[4].content_store 	decision_yes[4] 	2784
scalar tree_4_3_u03_r4_network.node[4].content_store 	decision_no[4] 	24936
scalar tree_4_3_u03_r4_network.node[4].content_store 	decision_ratio[4] 	0.1004329004329
scalar tree_4_3_u03_r4_network.node[5].core_layer 	interests[5] 	28515
scalar tree_4_3_u03_r4_network.node[5].core_layer 	data[5] 	27447
scalar tree_4_3_u03_r4_network.node[5].content_store 	p_hit[5] 	0.037418902332106
scalar tree_4_3_u03_r4_network.node[5].content_store 	hits[5] 	1067
scalar tree_4_3_u03_r4_network.node[5].content_store 	misses[5] 	27448
scalar tree_4_3_u03_r4_network.node[5].content_store 	decision_yes[5] 	2792
scalar tree_4_3_u03_r4_network.node[5].content_store 	decision_no[5] 	24655
scalar tree_4_3_u03_r4_network.node[5].content_store 	decision_ratio[5] 	0.10172332131016
scalar tree_4_3_u03_r4_network.node[6].core_layer 	interests[6] 	28737
scalar tree_4_3_u03_r4_network.node[6].core_layer 	data[6] 	27766
scalar tree_4_3_u03_r4_network.node[6].content_store 	p_hit[6] 	0.033789191634478
scalar tree_4_3_u03_r4_network.node[6].content_store 	hits[6] 	971
scalar tree_4_3_u03_r4_network.node[6].content_store 	misses[6] 	27766
scalar tree_4_3_u03_r4_network.node[6].content_store 	decision_yes[6] 	2799
scalar tree_4_3_u03_r4_network.node[6].content_store 	decision_no[6] 	24967
scalar tree_4_3_u03_r4_network.node[6].content_store 	decision_ratio[6] 	0.10080674205863
scalar tree_4_3_u03_r4_network.node[7].core_layer 	interests[7] 	28762
scalar tree_4_3_u03_r4_network.node[7].core_layer 	data[7] 	27740
scalar tree_4_3_u03_r4_network.node[7].content_store 	p_hit[7] 	0.035532994923858
scalar tree_4_3_u03_r4_network.node[7].content_store 	hits[7] 	1022
scalar tree_4_3_u03_r4_network.node[7].content_store 	misses[7] 	27740
scalar tree_4_3_u03_r4_network.node[7].content_store 	decision_yes[7] 	2784
scalar tree_4_3_u03_r4_network.node[7].content_store 	decision_no[7] 	24956
scalar tree_4_3_u03_r4_network.node[7].content_store 	decision_ratio[7] 	0.10036049026676
scalar tree_4_3_u03_r4_network.node[8].core_layer 	interests[8] 	28549
scalar tree_4_3_u03_r4_network.node[8].core_layer 	data[8] 	27593
scalar tree_4_3_u03_r4_network.node[8].content_store 	p_hit[8] 	0.033486286735087
scalar tree_4_3_u03_r4_network.node[8].content_store 	hits[8] 	956
scalar tree_4_3_u03_r4_network.node[8].content_store 	misses[8] 	27593
scalar tree_4_3_u03_r4_network.node[8].content_store 	decision_yes[8] 	2836
scalar tree_4_3_u03_r4_network.node[8].content_store 	decision_no[8] 	24757
scalar tree_4_3_u03_r4_network.node[8].content_store 	decision_ratio[8] 	0.10277969050121
scalar tree_4_3_u03_r4_network.node[9].core_layer 	interests[9] 	28611
scalar tree_4_3_u03_r4_network.node[9].core_layer 	data[9] 	27612
scalar tree_4_3_u03_r4_network.node[9].content_store 	p_hit[9] 	0.034881688860928
scalar tree_4_3_u03_r4_network.node[9].content_store 	hits[9] 	998
scalar tree_4_3_u03_r4_network.node[9].content_store 	misses[9] 	27613
scalar tree_4_3_u03_r4_network.node[9].content_store 	decision_yes[9] 	2721
scalar tree_4_3_u03_r4_network.node[9].content_store 	decision_no[9] 	24891
scalar tree_4_3_u03_r4_network.node[9].content_store 	decision_ratio[9] 	0.098544111255976
scalar tree_4_3_u03_r4_network.node[10].core_layer 	interests[10] 	28786
scalar tree_4_3_u03_r4_network.node[10].core_layer 	data[10] 	27850
scalar tree_4_3_u03_r4_network.node[10].content_store 	p_hit[10] 	0.032411588966859
scalar tree_4_3_u03_r4_network.node[10].content_store 	hits[10] 	933
scalar tree_4_3_u03_r4_network.node[10].content_store 	misses[10] 	27853
scalar tree_4_3_u03_r4_network.node[10].content_store 	decision_yes[10] 	2811
scalar tree_4_3_u03_r4_network.node[10].content_store 	decision_no[10] 	25039
scalar tree_4_3_u03_r4_network.node[10].content_store 	decision_ratio[10] 	0.10093357271095
scalar tree_4_3_u03_r4_network.node[11].core_layer 	interests[11] 	37990
scalar tree_4_3_u03_r4_network.node[11].core_layer 	data[11] 	36679
scalar tree_4_3_u03_r4_network.node[11].content_store 	p_hit[11] 	0.03448275862069
scalar tree_4_3_u03_r4_network.node[11].content_store 	hits[11] 	1310
scalar tree_4_3_u03_r4_network.node[11].content_store 	misses[11] 	36680
scalar tree_4_3_u03_r4_network.node[11].content_store 	decision_yes[11] 	3678
scalar tree_4_3_u03_r4_network.node[11].content_store 	decision_no[11] 	33001
scalar tree_4_3_u03_r4_network.node[11].content_store 	decision_ratio[11] 	0.10027536192372
scalar tree_4_3_u03_r4_network.node[12].core_layer 	interests[12] 	18851
scalar tree_4_3_u03_r4_network.node[12].core_layer 	data[12] 	18181
scalar tree_4_3_u03_r4_network.node[12].content_store 	p_hit[12] 	0.035541881067317
scalar tree_4_3_u03_r4_network.node[12].content_store 	hits[12] 	670
scalar tree_4_3_u03_r4_network.node[12].content_store 	misses[12] 	18181
scalar tree_4_3_u03_r4_network.node[12].content_store 	decision_yes[12] 	1812
scalar tree_4_3_u03_r4_network.node[12].content_store 	decision_no[12] 	16369
scalar tree_4_3_u03_r4_network.node[12].content_store 	decision_ratio[12] 	0.099664484901821
scalar tree_4_3_u03_r4_network.node[13].core_layer 	interests[13] 	12086
scalar tree_4_3_u03_r4_network.node[13].core_layer 	data[13] 	9608
scalar tree_4_3_u03_r4_network.node[13].content_store 	p_hit[13] 	0.20494787357273
scalar tree_4_3_u03_r4_network.node[13].content_store 	hits[13] 	2477
scalar tree_4_3_u03_r4_network.node[13].content_store 	misses[13] 	9609
scalar tree_4_3_u03_r4_network.node[13].content_store 	decision_yes[13] 	979
scalar tree_4_3_u03_r4_network.node[13].content_store 	decision_no[13] 	8629
scalar tree_4_3_u03_r4_network.node[13].content_store 	decision_ratio[13] 	0.10189425478768
scalar tree_4_3_u03_r4_network.node[14].core_layer 	interests[14] 	11901
scalar tree_4_3_u03_r4_network.node[14].core_layer 	data[14] 	9557
scalar tree_4_3_u03_r4_network.node[14].content_store 	p_hit[14] 	0.19704226535585
scalar tree_4_3_u03_r4_network.node[14].content_store 	hits[14] 	2345
scalar tree_4_3_u03_r4_network.node[14].content_store 	misses[14] 	9556
scalar tree_4_3_u03_r4_network.node[14].content_store 	decision_yes[14] 	986
scalar tree_4_3_u03_r4_network.node[14].content_store 	decision_no[14] 	8571
scalar tree_4_3_u03_r4_network.node[14].content_store 	decision_ratio[14] 	0.10317045097834
scalar tree_4_3_u03_r4_network.node[15].core_layer 	interests[15] 	11981
scalar tree_4_3_u03_r4_network.node[15].core_layer 	data[15] 	9537
scalar tree_4_3_u03_r4_network.node[15].content_store 	p_hit[15] 	0.20390618479259
scalar tree_4_3_u03_r4_network.node[15].content_store 	hits[15] 	2443
scalar tree_4_3_u03_r4_network.node[15].content_store 	misses[15] 	9538
scalar tree_4_3_u03_r4_network.node[15].content_store 	decision_yes[15] 	986
scalar tree_4_3_u03_r4_network.node[15].content_store 	decision_no[15] 	8551
scalar tree_4_3_u03_r4_network.node[15].content_store 	decision_ratio[15] 	0.10338680926916
scalar tree_4_3_u03_r4_network.node[16].core_layer 	interests[16] 	11949
scalar tree_4_3_u03_r4_network.node[16].core_layer 	data[16] 	9532
scalar tree_4_3_u03_r4_network.node[16].content_store 	p_hit[16] 	0.20227634111641
scalar tree_4_3_u03_r4_network.node[16].content_store 	hits[16] 	2417
scalar tree_4_3_u03_r4_network.node[16].content_store 	misses[16] 	9532
scalar tree_4_3_u03_r4_network.node[16].content_store 	decision_yes[16] 	973
scalar tree_4_3_u03_r4_network.node[16].content_store 	decision_no[16] 	8559
scalar tree_4_3_u03_r4_network.node[16].content_store 	decision_ratio[16] 	0.10207721359631
scalar tree_4_3_u03_r4_network.node[17].core_layer 	interests[17] 	11954
scalar tree_4_3_u03_r4_network.node[17].core_layer 	data[17] 	9470
scalar tree_4_3_u03_r4_network.node[17].content_store 	p_hit[17] 	0.20779655345491
scalar tree_4_3_u03_r4_network.node[17].content_store 	hits[17] 	2484
scalar tree_4_3_u03_r4_network.node[17].content_store 	misses[17] 	9470
scalar tree_4_3_u03_r4_network.node[17].content_store 	decision_yes[17] 	940
scalar tree_4_3_u03_r4_network.node[17].content_store 	decision_no[17] 	8530
scalar tree_4_3_u03_r4_network.node[17].content_store 	decision_ratio[17] 	0.099260823653643
scalar tree_4_3_u03_r4_network.node[18].core_layer 	interests[18] 	11950
scalar tree_4_3_u03_r4_network.node[18].core_layer 	data[18] 	9513
scalar tree_4_3_u03_r4_network.node[18].content_store 	p_hit[18] 	0.20393305439331
scalar tree_4_3_u03_r4_network.node[18].content_store 	hits[18] 	2437
scalar tree_4_3_u03_r4_network.node[18].content_store 	misses[18] 	9513
scalar tree_4_3_u03_r4_network.node[18].content_store 	decision_yes[18] 	940
scalar tree_4_3_u03_r4_network.node[18].content_store 	decision_no[18] 	8573
scalar tree_4_3_u03_r4_network.node[18].content_store 	decision_ratio[18] 	0.098812151792284
scalar tree_4_3_u03_r4_network.node[19].core_layer 	interests[19] 	12004
scalar tree_4_3_u03_r4_network.node[19].core_layer 	data[19] 	9497
scalar tree_4_3_u03_r4_network.node[19].content_store 	p_hit[19] 	0.20884705098301
scalar tree_4_3_u03_r4_network.node[19].content_store 	hits[19] 	2507
scalar tree_4_3_u03_r4_network.node[19].content_store 	misses[19] 	9497
scalar tree_4_3_u03_r4_network.node[19].content_store 	decision_yes[19] 	918
scalar tree_4_3_u03_r4_network.node[19].content_store 	decision_no[19] 	8579
scalar tree_4_3_u03_r4_network.node[19].content_store 	decision_ratio[19] 	0.09666210382226
scalar tree_4_3_u03_r4_network.node[20].core_layer 	interests[20] 	12208
scalar tree_4_3_u03_r4_network.node[20].core_layer 	data[20] 	9570
scalar tree_4_3_u03_r4_network.node[20].content_store 	p_hit[20] 	0.2160878112713
scalar tree_4_3_u03_r4_network.node[20].content_store 	hits[20] 	2638
scalar tree_4_3_u03_r4_network.node[20].content_store 	misses[20] 	9570
scalar tree_4_3_u03_r4_network.node[20].content_store 	decision_yes[20] 	985
scalar tree_4_3_u03_r4_network.node[20].content_store 	decision_no[20] 	8585
scalar tree_4_3_u03_r4_network.node[20].content_store 	decision_ratio[20] 	0.10292580982236
scalar tree_4_3_u03_r4_network.node[21].core_layer 	interests[21] 	12154
scalar tree_4_3_u03_r4_network.node[21].core_layer 	data[21] 	9670
scalar tree_4_3_u03_r4_network.node[21].content_store 	p_hit[21] 	0.20437715978279
scalar tree_4_3_u03_r4_network.node[21].content_store 	hits[21] 	2484
scalar tree_4_3_u03_r4_network.node[21].content_store 	misses[21] 	9670
scalar tree_4_3_u03_r4_network.node[21].content_store 	decision_yes[21] 	997
scalar tree_4_3_u03_r4_network.node[21].content_store 	decision_no[21] 	8673
scalar tree_4_3_u03_r4_network.node[21].content_store 	decision_ratio[21] 	0.10310237849018
scalar tree_4_3_u03_r4_network.node[22].core_layer 	interests[22] 	12112
scalar tree_4_3_u03_r4_network.node[22].core_layer 	data[22] 	9583
scalar tree_4_3_u03_r4_network.node[22].content_store 	p_hit[22] 	0.20880118890357
scalar tree_4_3_u03_r4_network.node[22].content_store 	hits[22] 	2529
scalar tree_4_3_u03_r4_network.node[22].content_store 	misses[22] 	9583
scalar tree_4_3_u03_r4_network.node[22].content_store 	decision_yes[22] 	1003
scalar tree_4_3_u03_r4_network.node[22].content_store 	decision_no[22] 	8580
scalar tree_4_3_u03_r4_network.node[22].content_store 	decision_ratio[22] 	0.10466451006992
scalar tree_4_3_u03_r4_network.node[23].core_layer 	interests[23] 	12080
scalar tree_4_3_u03_r4_network.node[23].core_layer 	data[23] 	9548
scalar tree_4_3_u03_r4_network.node[23].content_store 	p_hit[23] 	0.20960264900662
scalar tree_4_3_u03_r4_network.node[23].content_store 	hits[23] 	2532
scalar tree_4_3_u03_r4_network.node[23].content_store 	misses[23] 	9548
scalar tree_4_3_u03_r4_network.node[23].content_store 	decision_yes[23] 	960
scalar tree_4_3_u03_r4_network.node[23].content_store 	decision_no[23] 	8588
scalar tree_4_3_u03_r4_network.node[23].content_store 	decision_ratio[23] 	0.10054461667365
scalar tree_4_3_u03_r4_network.node[24].core_layer 	interests[24] 	12084
scalar tree_4_3_u03_r4_network.node[24].core_layer 	data[24] 	9631
scalar tree_4_3_u03_r4_network.node[24].content_store 	p_hit[24] 	0.20299569678914
scalar tree_4_3_u03_r4_network.node[24].content_store 	hits[24] 	2453
scalar tree_4_3_u03_r4_network.node[24].content_store 	misses[24] 	9631
scalar tree_4_3_u03_r4_network.node[24].content_store 	decision_yes[24] 	1016
scalar tree_4_3_u03_r4_network.node[24].content_store 	decision_no[24] 	8615
scalar tree_4_3_u03_r4_network.node[24].content_store 	decision_ratio[24] 	0.10549267988786
scalar tree_4_3_u03_r4_network.node[25].core_layer 	interests[25] 	11991
scalar tree_4_3_u03_r4_network.node[25].core_layer 	data[25] 	9577
scalar tree_4_3_u03_r4_network.node[25].content_store 	p_hit[25] 	0.2012342590276
scalar tree_4_3_u03_r4_network.node[25].content_store 	hits[25] 	2413
scalar tree_4_3_u03_r4_network.node[25].content_store 	misses[25] 	9578
scalar tree_4_3_u03_r4_network.node[25].content_store 	decision_yes[25] 	906
scalar tree_4_3_u03_r4_network.node[25].content_store 	decision_no[25] 	8671
scalar tree_4_3_u03_r4_network.node[25].content_store 	decision_ratio[25] 	0.094601649785945
scalar tree_4_3_u03_r4_network.node[26].core_layer 	interests[26] 	11959
scalar tree_4_3_u03_r4_network.node[26].core_layer 	data[26] 	9487
scalar tree_4_3_u03_r4_network.node[26].content_store 	p_hit[26] 	0.20670624634167
scalar tree_4_3_u03_r4_network.node[26].content_store 	hits[26] 	2472
scalar tree_4_3_u03_r4_network.node[26].content_store 	misses[26] 	9487
scalar tree_4_3_u03_r4_network.node[26].content_store 	decision_yes[26] 	953
scalar tree_4_3_u03_r4_network.node[26].content_store 	decision_no[26] 	8534
scalar tree_4_3_u03_r4_network.node[26].content_store 	decision_ratio[26] 	0.10045325181828
scalar tree_4_3_u03_r4_network.node[27].core_layer 	interests[27] 	12088
scalar tree_4_3_u03_r4_network.node[27].core_layer 	data[27] 	9484
scalar tree_4_3_u03_r4_network.node[27].content_store 	p_hit[27] 	0.21542025148908
scalar tree_4_3_u03_r4_network.node[27].content_store 	hits[27] 	2604
scalar tree_4_3_u03_r4_network.node[27].content_store 	misses[27] 	9484
scalar tree_4_3_u03_r4_network.node[27].content_store 	decision_yes[27] 	921
scalar tree_4_3_u03_r4_network.node[27].content_store 	decision_no[27] 	8563
scalar tree_4_3_u03_r4_network.node[27].content_store 	decision_ratio[27] 	0.097110923660903
scalar tree_4_3_u03_r4_network.node[28].core_layer 	interests[28] 	11805
scalar tree_4_3_u03_r4_network.node[28].core_layer 	data[28] 	9421
scalar tree_4_3_u03_r4_network.node[28].content_store 	p_hit[28] 	0.20186361711139
scalar tree_4_3_u03_r4_network.node[28].content_store 	hits[28] 	2383
scalar tree_4_3_u03_r4_network.node[28].content_store 	misses[28] 	9422
scalar tree_4_3_u03_r4_network.node[28].content_store 	decision_yes[28] 	923
scalar tree_4_3_u03_r4_network.node[28].content_store 	decision_no[28] 	8498
scalar tree_4_3_u03_r4_network.node[28].content_store 	decision_ratio[28] 	0.097972614372147
scalar tree_4_3_u03_r4_network.node[29].core_layer 	interests[29] 	12029
scalar tree_4_3_u03_r4_network.node[29].core_layer 	data[29] 	9616
scalar tree_4_3_u03_r4_network.node[29].content_store 	p_hit[29] 	0.20059855349572
scalar tree_4_3_u03_r4_network.node[29].content_store 	hits[29] 	2413
scalar tree_4_3_u03_r4_network.node[29].content_store 	misses[29] 	9616
scalar tree_4_3_u03_r4_network.node[29].content_store 	decision_yes[29] 	996
scalar tree_4_3_u03_r4_network.node[29].content_store 	decision_no[29] 	8620
scalar tree_4_3_u03_r4_network.node[29].content_store 	decision_ratio[29] 	0.10357737104825
scalar tree_4_3_u03_r4_network.node[30].core_layer 	interests[30] 	12121
scalar tree_4_3_u03_r4_network.node[30].core_layer 	data[30] 	9574
scalar tree_4_3_u03_r4_network.node[30].content_store 	p_hit[30] 	0.21004867585183
scalar tree_4_3_u03_r4_network.node[30].content_store 	hits[30] 	2546
scalar tree_4_3_u03_r4_network.node[30].content_store 	misses[30] 	9575
scalar tree_4_3_u03_r4_network.node[30].content_store 	decision_yes[30] 	934
scalar tree_4_3_u03_r4_network.node[30].content_store 	decision_no[30] 	8640
scalar tree_4_3_u03_r4_network.node[30].content_store 	decision_ratio[30] 	0.097555880509714
scalar tree_4_3_u03_r4_network.node[31].core_layer 	interests[31] 	12129
scalar tree_4_3_u03_r4_network.node[31].core_layer 	data[31] 	9706
scalar tree_4_3_u03_r4_network.node[31].content_store 	p_hit[31] 	0.1997691483222
scalar tree_4_3_u03_r4_network.node[31].content_store 	hits[31] 	2423
scalar tree_4_3_u03_r4_network.node[31].content_store 	misses[31] 	9706
scalar tree_4_3_u03_r4_network.node[31].content_store 	decision_yes[31] 	1005
scalar tree_4_3_u03_r4_network.node[31].content_store 	decision_no[31] 	8701
scalar tree_4_3_u03_r4_network.node[31].content_store 	decision_ratio[31] 	0.10354419946425
scalar tree_4_3_u03_r4_network.node[32].core_layer 	interests[32] 	12070
scalar tree_4_3_u03_r4_network.node[32].core_layer 	data[32] 	9617
scalar tree_4_3_u03_r4_network.node[32].content_store 	p_hit[32] 	0.20314830157415
scalar tree_4_3_u03_r4_network.node[32].content_store 	hits[32] 	2452
scalar tree_4_3_u03_r4_network.node[32].content_store 	misses[32] 	9618
scalar tree_4_3_u03_r4_network.node[32].content_store 	decision_yes[32] 	972
scalar tree_4_3_u03_r4_network.node[32].content_store 	decision_no[32] 	8645
scalar tree_4_3_u03_r4_network.node[32].content_store 	decision_ratio[32] 	0.10107102006863
scalar tree_4_3_u03_r4_network.node[33].core_layer 	interests[33] 	11907
scalar tree_4_3_u03_r4_network.node[33].core_layer 	data[33] 	9462
scalar tree_4_3_u03_r4_network.node[33].content_store 	p_hit[33] 	0.20525741160662
scalar tree_4_3_u03_r4_network.node[33].content_store 	hits[33] 	2444
scalar tree_4_3_u03_r4_network.node[33].content_store 	misses[33] 	9463
scalar tree_4_3_u03_r4_network.node[33].content_store 	decision_yes[33] 	909
scalar tree_4_3_u03_r4_network.node[33].content_store 	decision_no[33] 	8553
scalar tree_4_3_u03_r4_network.node[33].content_store 	decision_ratio[33] 	0.096068484464172
scalar tree_4_3_u03_r4_network.node[34].core_layer 	interests[34] 	11895
scalar tree_4_3_u03_r4_network.node[34].core_layer 	data[34] 	9514
scalar tree_4_3_u03_r4_network.node[34].content_store 	p_hit[34] 	0.20016813787306
scalar tree_4_3_u03_r4_network.node[34].content_store 	hits[34] 	2381
scalar tree_4_3_u03_r4_network.node[34].content_store 	misses[34] 	9514
scalar tree_4_3_u03_r4_network.node[34].content_store 	decision_yes[34] 	927
scalar tree_4_3_u03_r4_network.node[34].content_store 	decision_no[34] 	8587
scalar tree_4_3_u03_r4_network.node[34].content_store 	decision_ratio[34] 	0.097435358419172
scalar tree_4_3_u03_r4_network.node[35].core_layer 	interests[35] 	11974
scalar tree_4_3_u03_r4_network.node[35].core_layer 	data[35] 	9492
scalar tree_4_3_u03_r4_network.node[35].content_store 	p_hit[35] 	0.20728244529815
scalar tree_4_3_u03_r4_network.node[35].content_store 	hits[35] 	2482
scalar tree_4_3_u03_r4_network.node[35].content_store 	misses[35] 	9492
scalar tree_4_3_u03_r4_network.node[35].content_store 	decision_yes[35] 	938
scalar tree_4_3_u03_r4_network.node[35].content_store 	decision_no[35] 	8554
scalar tree_4_3_u03_r4_network.node[35].content_store 	decision_ratio[35] 	0.09882005899705
scalar tree_4_3_u03_r4_network.node[36].core_layer 	interests[36] 	11935
scalar tree_4_3_u03_r4_network.node[36].core_layer 	data[36] 	9559
scalar tree_4_3_u03_r4_network.node[36].content_store 	p_hit[36] 	0.19899455383326
scalar tree_4_3_u03_r4_network.node[36].content_store 	hits[36] 	2375
scalar tree_4_3_u03_r4_network.node[36].content_store 	misses[36] 	9560
scalar tree_4_3_u03_r4_network.node[36].content_store 	decision_yes[36] 	949
scalar tree_4_3_u03_r4_network.node[36].content_store 	decision_no[36] 	8610
scalar tree_4_3_u03_r4_network.node[36].content_store 	decision_ratio[36] 	0.099278167172298
scalar tree_4_3_u03_r4_network.node[37].core_layer 	interests[37] 	11715
scalar tree_4_3_u03_r4_network.node[37].core_layer 	data[37] 	9326
scalar tree_4_3_u03_r4_network.node[37].content_store 	p_hit[37] 	0.20392658984208
scalar tree_4_3_u03_r4_network.node[37].content_store 	hits[37] 	2389
scalar tree_4_3_u03_r4_network.node[37].content_store 	misses[37] 	9326
scalar tree_4_3_u03_r4_network.node[37].content_store 	decision_yes[37] 	964
scalar tree_4_3_u03_r4_network.node[37].content_store 	decision_no[37] 	8362
scalar tree_4_3_u03_r4_network.node[37].content_store 	decision_ratio[37] 	0.1033669311602
scalar tree_4_3_u03_r4_network.node[38].core_layer 	interests[38] 	11923
scalar tree_4_3_u03_r4_network.node[38].core_layer 	data[38] 	9425
scalar tree_4_3_u03_r4_network.node[38].content_store 	p_hit[38] 	0.20951102910341
scalar tree_4_3_u03_r4_network.node[38].content_store 	hits[38] 	2498
scalar tree_4_3_u03_r4_network.node[38].content_store 	misses[38] 	9425
scalar tree_4_3_u03_r4_network.node[38].content_store 	decision_yes[38] 	910
scalar tree_4_3_u03_r4_network.node[38].content_store 	decision_no[38] 	8515
scalar tree_4_3_u03_r4_network.node[38].content_store 	decision_ratio[38] 	0.096551724137931
scalar tree_4_3_u03_r4_network.node[39].core_layer 	interests[39] 	11999
scalar tree_4_3_u03_r4_network.node[39].core_layer 	data[39] 	9525
scalar tree_4_3_u03_r4_network.node[39].content_store 	p_hit[39] 	0.20601716809734
scalar tree_4_3_u03_r4_network.node[39].content_store 	hits[39] 	2472
scalar tree_4_3_u03_r4_network.node[39].content_store 	misses[39] 	9527
scalar tree_4_3_u03_r4_network.node[39].content_store 	decision_yes[39] 	941
scalar tree_4_3_u03_r4_network.node[39].content_store 	decision_no[39] 	8584
scalar tree_4_3_u03_r4_network.node[39].content_store 	decision_ratio[39] 	0.098792650918635
scalar tree_4_3_u03_r4_network.client[13] 	hdistance[13] 	3.0454282167977
scalar tree_4_3_u03_r4_network.client[13] 	downloads[13] 	12085
scalar tree_4_3_u03_r4_network.client[13] 	avg_time[13] 	0.004620601049
scalar tree_4_3_u03_r4_network.client[14] 	hdistance[14] 	3.0824231221643
scalar tree_4_3_u03_r4_network.client[14] 	downloads[14] 	11902
scalar tree_4_3_u03_r4_network.client[14] 	avg_time[14] 	0.004675066143
scalar tree_4_3_u03_r4_network.client[15] 	hdistance[15] 	3.0499165275459
scalar tree_4_3_u03_r4_network.client[15] 	downloads[15] 	11980
scalar tree_4_3_u03_r4_network.client[15] 	avg_time[15] 	0.004629035234
scalar tree_4_3_u03_r4_network.client[16] 	hdistance[16] 	3.0503807850029
scalar tree_4_3_u03_r4_network.client[16] 	downloads[16] 	11949
scalar tree_4_3_u03_r4_network.client[16] 	avg_time[16] 	0.00463256369
scalar tree_4_3_u03_r4_network.client[17] 	hdistance[17] 	3.0301154425297
scalar tree_4_3_u03_r4_network.client[17] 	downloads[17] 	11954
scalar tree_4_3_u03_r4_network.client[17] 	avg_time[17] 	0.004600463428
scalar tree_4_3_u03_r4_network.client[18] 	hdistance[18] 	3.0402510460251
scalar tree_4_3_u03_r4_network.client[18] 	downloads[18] 	11950
scalar tree_4_3_u03_r4_network.client[18] 	avg_time[18] 	0.004615394507
scalar tree_4_3_u03_r4_network.client[19] 	hdistance[19] 	3.0407364211929
scalar tree_4_3_u03_r4_network.client[19] 	downloads[19] 	12004
scalar tree_4_3_u03_r4_network.client[19] 	avg_time[19] 	0.004611793108
scalar tree_4_3_u03_r4_network.client[20] 	hdistance[20] 	3.0100753604194
scalar tree_4_3_u03_r4_network.client[20] 	downloads[20] 	12208
scalar tree_4_3_u03_r4_network.client[20] 	avg_time[20] 	0.004566384244
scalar tree_4_3_u03_r4_network.client[21] 	hdistance[21] 	3.039410893533
scalar tree_4_3_u03_r4_network.client[21] 	downloads[21] 	12154
scalar tree_4_3_u03_r4_network.client[21] 	avg_time[21] 	0.004616254949
scalar tree_4_3_u03_r4_network.client[22] 	hdistance[22] 	3.0284841479524
scalar tree_4_3_u03_r4_network.client[22] 	downloads[22] 	12112
scalar tree_4_3_u03_r4_network.client[22] 	avg_time[22] 	0.004596760504
scalar tree_4_3_u03_r4_network.client[23] 	hdistance[23] 	3.0315397350994
scalar tree_4_3_u03_r4_network.client[23] 	downloads[23] 	12080
scalar tree_4_3_u03_r4_network.client[23] 	avg_time[23] 	0.004597513574
scalar tree_4_3_u03_r4_network.client[24] 	hdistance[24] 	3.0523833167825
scalar tree_4_3_u03_r4_network.client[24] 	downloads[24] 	12084
scalar tree_4_3_u03_r4_network.client[24] 	avg_time[24] 	0.00463273452
scalar tree_4_3_u03_r4_network.client[25] 	hdistance[25] 	3.0605504587156
scalar tree_4_3_u03_r4_network.client[25] 	downloads[25] 	11990
scalar tree_4_3_u03_r4_network.client[25] 	avg_time[25] 	0.004642365678
scalar tree_4_3_u03_r4_network.client[26] 	hdistance[26] 	3.0443180867965
scalar tree_4_3_u03_r4_network.client[26] 	downloads[26] 	11959
scalar tree_4_3_u03_r4_network.client[26] 	avg_time[26] 	0.004619446804
scalar tree_4_3_u03_r4_network.client[27] 	hdistance[27] 	3.0139808074123
scalar tree_4_3_u03_r4_network.client[27] 	downloads[27] 	12088
scalar tree_4_3_u03_r4_network.client[27] 	avg_time[27] 	0.004571969182
scalar tree_4_3_u03_r4_network.client[28] 	hdistance[28] 	3.0570992883768
scalar tree_4_3_u03_r4_network.client[28] 	downloads[28] 	11804
scalar tree_4_3_u03_r4_network.client[28] 	avg_time[28] 	0.004639187874
scalar tree_4_3_u03_r4_network.client[29] 	hdistance[29] 	3.0529553578851
scalar tree_4_3_u03_r4_network.client[29] 	downloads[29] 	12029
scalar tree_4_3_u03_r4_network.client[29] 	avg_time[29] 	0.004636037927
scalar tree_4_3_u03_r4_network.client[30] 	hdistance[30] 	3.0343234323432
scalar tree_4_3_u03_r4_network.client[30] 	downloads[30] 	12120
scalar tree_4_3_u03_r4_network.client[30] 	avg_time[30] 	0.004604304831
scalar tree_4_3_u03_r4_network.client[31] 	hdistance[31] 	3.0725533844505
scalar tree_4_3_u03_r4_network.client[31] 	downloads[31] 	12129
scalar tree_4_3_u03_r4_network.client[31] 	avg_time[31] 	0.004664762954
scalar tree_4_3_u03_r4_network.client[32] 	hdistance[32] 	3.0444941585881
scalar tree_4_3_u03_r4_network.client[32] 	downloads[32] 	12069
scalar tree_4_3_u03_r4_network.client[32] 	avg_time[32] 	0.004622182388
scalar tree_4_3_u03_r4_network.client[33] 	hdistance[33] 	3.0621535360322
scalar tree_4_3_u03_r4_network.client[33] 	downloads[33] 	11906
scalar tree_4_3_u03_r4_network.client[33] 	avg_time[33] 	0.004642593027
scalar tree_4_3_u03_r4_network.client[34] 	hdistance[34] 	3.0621269440942
scalar tree_4_3_u03_r4_network.client[34] 	downloads[34] 	11895
scalar tree_4_3_u03_r4_network.client[34] 	avg_time[34] 	0.004647664128
scalar tree_4_3_u03_r4_network.client[35] 	hdistance[35] 	3.0552029397027
scalar tree_4_3_u03_r4_network.client[35] 	downloads[35] 	11974
scalar tree_4_3_u03_r4_network.client[35] 	avg_time[35] 	0.004630341901
scalar tree_4_3_u03_r4_network.client[36] 	hdistance[36] 	3.0700519524049
scalar tree_4_3_u03_r4_network.client[36] 	downloads[36] 	11934
scalar tree_4_3_u03_r4_network.client[36] 	avg_time[36] 	0.004655763383
scalar tree_4_3_u03_r4_network.client[37] 	hdistance[37] 	3.0526675202731
scalar tree_4_3_u03_r4_network.client[37] 	downloads[37] 	11715
scalar tree_4_3_u03_r4_network.client[37] 	avg_time[37] 	0.004632860923
scalar tree_4_3_u03_r4_network.client[38] 	hdistance[38] 	3.0246582236014
scalar tree_4_3_u03_r4_network.client[38] 	downloads[38] 	11923
scalar tree_4_3_u03_r4_network.client[38] 	avg_time[38] 	0.004589110478
scalar tree_4_3_u03_r4_network.client[39] 	hdistance[39] 	3.0379261482037
scalar tree_4_3_u03_r4_network.client[39] 	downloads[39] 	11997
scalar tree_4_3_u03_r4_network.client[39] 	avg_time[39] 	0.004608817949
