version 2
run General-74-20160820-03:52:58-14346
attr a 0.9
attr cd fix0.1
attr configname General
attr cr lru
attr datetime 20160820-03:52:58
attr experiment General
attr fsize 1
attr inifile hw5115/scenario_A/SPR-FIX0.1.ini
attr iterationvars "$name=tree_4_3, $un=03, $rep=15, $cd=fix0.1, $cr=lru, $fsize=1, $a=0.9, $sl=spr, $ttl=1000, $variance=0.05"
attr iterationvars2 "$name=tree_4_3, $un=03, $rep=15, $cd=fix0.1, $cr=lru, $fsize=1, $a=0.9, $sl=spr, $ttl=1000, $variance=0.05, $repetition=0"
attr measurement "$name=tree_4_3, $un=03, $rep=15, $cd=fix0.1, $cr=lru, $fsize=1, $a=0.9, $sl=spr, $ttl=1000, $variance=0.05"
attr name tree_4_3
attr network networks.${name}_u${un}_r${rep}_network
attr processid 14346
attr rep 15
attr repetition 0
attr replication #0
attr resultdir results
attr runnumber 74
attr seedset 15
attr sl spr
attr ttl 1000
attr un 03
attr variance 0.05

scalar . 	a 	0.9
scalar . 	fsize 	1
scalar . 	rep 	15
scalar . 	ttl 	1000
scalar . 	un 	03
scalar . 	variance 	0.05
scalar tree_4_3_u03_r15_network.content_distribution 	repo-0 	0
scalar tree_4_3_u03_r15_network.content_distribution 	client-0 	13
scalar tree_4_3_u03_r15_network.content_distribution 	client-1 	14
scalar tree_4_3_u03_r15_network.content_distribution 	client-2 	15
scalar tree_4_3_u03_r15_network.content_distribution 	client-3 	16
scalar tree_4_3_u03_r15_network.content_distribution 	client-4 	17
scalar tree_4_3_u03_r15_network.content_distribution 	client-5 	18
scalar tree_4_3_u03_r15_network.content_distribution 	client-6 	19
scalar tree_4_3_u03_r15_network.content_distribution 	client-7 	20
scalar tree_4_3_u03_r15_network.content_distribution 	client-8 	21
scalar tree_4_3_u03_r15_network.content_distribution 	client-9 	22
scalar tree_4_3_u03_r15_network.content_distribution 	client-10 	23
scalar tree_4_3_u03_r15_network.content_distribution 	client-11 	24
scalar tree_4_3_u03_r15_network.content_distribution 	client-12 	25
scalar tree_4_3_u03_r15_network.content_distribution 	client-13 	26
scalar tree_4_3_u03_r15_network.content_distribution 	client-14 	27
scalar tree_4_3_u03_r15_network.content_distribution 	client-15 	28
scalar tree_4_3_u03_r15_network.content_distribution 	client-16 	29
scalar tree_4_3_u03_r15_network.content_distribution 	client-17 	30
scalar tree_4_3_u03_r15_network.content_distribution 	client-18 	31
scalar tree_4_3_u03_r15_network.content_distribution 	client-19 	32
scalar tree_4_3_u03_r15_network.content_distribution 	client-20 	33
scalar tree_4_3_u03_r15_network.content_distribution 	client-21 	34
scalar tree_4_3_u03_r15_network.content_distribution 	client-22 	35
scalar tree_4_3_u03_r15_network.content_distribution 	client-23 	36
scalar tree_4_3_u03_r15_network.content_distribution 	client-24 	37
scalar tree_4_3_u03_r15_network.content_distribution 	client-25 	38
scalar tree_4_3_u03_r15_network.content_distribution 	client-26 	39
scalar tree_4_3_u03_r15_network.content_distribution 	repo-0_card 	100000
scalar tree_4_3_u03_r15_network.content_distribution 	repo-0_price 	0
scalar tree_4_3_u03_r15_network.statistics 	stabilization_time 	921
scalar tree_4_3_u03_r15_network.statistics 	p_hit 	0.14894019079645
scalar tree_4_3_u03_r15_network.statistics 	interests 	26886.825
scalar tree_4_3_u03_r15_network.statistics 	data 	18764.325
scalar tree_4_3_u03_r15_network.statistics 	hdistance 	3.0448849630673
scalar tree_4_3_u03_r15_network.statistics 	avg_time 	0.004620320608
scalar tree_4_3_u03_r15_network.statistics 	downloads 	324896
scalar tree_4_3_u03_r15_network.statistics 	total_cost 	0
scalar tree_4_3_u03_r15_network.statistics 	total_replicas 	100000
scalar tree_4_3_u03_r15_network.statistics 	inner_hit 	0.26536491677337
scalar tree_4_3_u03_r15_network.node[0].core_layer 	interests[0] 	243417
scalar tree_4_3_u03_r15_network.node[0].core_layer 	repo_load[0] 	238680
scalar tree_4_3_u03_r15_network.node[0].core_layer 	data[0] 	0
scalar tree_4_3_u03_r15_network.node[0].core_layer 	repo_int[0] 	238680
scalar tree_4_3_u03_r15_network.node[0].content_store 	p_hit[0] 	0.019460432098005
scalar tree_4_3_u03_r15_network.node[0].content_store 	hits[0] 	4737
scalar tree_4_3_u03_r15_network.node[0].content_store 	misses[0] 	238680
scalar tree_4_3_u03_r15_network.node[0].content_store 	decision_yes[0] 	23990
scalar tree_4_3_u03_r15_network.node[0].content_store 	decision_no[0] 	214690
scalar tree_4_3_u03_r15_network.node[0].content_store 	decision_ratio[0] 	0.10051114462879
scalar tree_4_3_u03_r15_network.node[1].core_layer 	interests[1] 	111320
scalar tree_4_3_u03_r15_network.node[1].core_layer 	data[1] 	108609
scalar tree_4_3_u03_r15_network.node[1].content_store 	p_hit[1] 	0.024290334171757
scalar tree_4_3_u03_r15_network.node[1].content_store 	hits[1] 	2704
scalar tree_4_3_u03_r15_network.node[1].content_store 	misses[1] 	108616
scalar tree_4_3_u03_r15_network.node[1].content_store 	decision_yes[1] 	10839
scalar tree_4_3_u03_r15_network.node[1].content_store 	decision_no[1] 	97770
scalar tree_4_3_u03_r15_network.node[1].content_store 	decision_ratio[1] 	0.099798359251996
scalar tree_4_3_u03_r15_network.node[2].core_layer 	interests[2] 	82901
scalar tree_4_3_u03_r15_network.node[2].core_layer 	data[2] 	81000
scalar tree_4_3_u03_r15_network.node[2].content_store 	p_hit[2] 	0.022906840689497
scalar tree_4_3_u03_r15_network.node[2].content_store 	hits[2] 	1899
scalar tree_4_3_u03_r15_network.node[2].content_store 	misses[2] 	81002
scalar tree_4_3_u03_r15_network.node[2].content_store 	decision_yes[2] 	8239
scalar tree_4_3_u03_r15_network.node[2].content_store 	decision_no[2] 	72761
scalar tree_4_3_u03_r15_network.node[2].content_store 	decision_ratio[2] 	0.10171604938272
scalar tree_4_3_u03_r15_network.node[3].core_layer 	interests[3] 	55013
scalar tree_4_3_u03_r15_network.node[3].core_layer 	data[3] 	53809
scalar tree_4_3_u03_r15_network.node[3].content_store 	p_hit[3] 	0.02188573609874
scalar tree_4_3_u03_r15_network.node[3].content_store 	hits[3] 	1204
scalar tree_4_3_u03_r15_network.node[3].content_store 	misses[3] 	53809
scalar tree_4_3_u03_r15_network.node[3].content_store 	decision_yes[3] 	5431
scalar tree_4_3_u03_r15_network.node[3].content_store 	decision_no[3] 	48378
scalar tree_4_3_u03_r15_network.node[3].content_store 	decision_ratio[3] 	0.10093107101043
scalar tree_4_3_u03_r15_network.node[4].core_layer 	interests[4] 	28550
scalar tree_4_3_u03_r15_network.node[4].core_layer 	data[4] 	27582
scalar tree_4_3_u03_r15_network.node[4].content_store 	p_hit[4] 	0.033905429071804
scalar tree_4_3_u03_r15_network.node[4].content_store 	hits[4] 	968
scalar tree_4_3_u03_r15_network.node[4].content_store 	misses[4] 	27582
scalar tree_4_3_u03_r15_network.node[4].content_store 	decision_yes[4] 	2756
scalar tree_4_3_u03_r15_network.node[4].content_store 	decision_no[4] 	24826
scalar tree_4_3_u03_r15_network.node[4].content_store 	decision_ratio[4] 	0.09992023783627
scalar tree_4_3_u03_r15_network.node[5].core_layer 	interests[5] 	38850
scalar tree_4_3_u03_r15_network.node[5].core_layer 	data[5] 	37444
scalar tree_4_3_u03_r15_network.node[5].content_store 	p_hit[5] 	0.036138996138996
scalar tree_4_3_u03_r15_network.node[5].content_store 	hits[5] 	1404
scalar tree_4_3_u03_r15_network.node[5].content_store 	misses[5] 	37446
scalar tree_4_3_u03_r15_network.node[5].content_store 	decision_yes[5] 	3680
scalar tree_4_3_u03_r15_network.node[5].content_store 	decision_no[5] 	33764
scalar tree_4_3_u03_r15_network.node[5].content_store 	decision_ratio[5] 	0.098280098280098
scalar tree_4_3_u03_r15_network.node[6].core_layer 	interests[6] 	19153
scalar tree_4_3_u03_r15_network.node[6].core_layer 	data[6] 	18566
scalar tree_4_3_u03_r15_network.node[6].content_store 	p_hit[6] 	0.030647940270454
scalar tree_4_3_u03_r15_network.node[6].content_store 	hits[6] 	587
scalar tree_4_3_u03_r15_network.node[6].content_store 	misses[6] 	18566
scalar tree_4_3_u03_r15_network.node[6].content_store 	decision_yes[6] 	1847
scalar tree_4_3_u03_r15_network.node[6].content_store 	decision_no[6] 	16719
scalar tree_4_3_u03_r15_network.node[6].content_store 	decision_ratio[6] 	0.099482925778304
scalar tree_4_3_u03_r15_network.node[7].core_layer 	interests[7] 	38185
scalar tree_4_3_u03_r15_network.node[7].core_layer 	data[7] 	36992
scalar tree_4_3_u03_r15_network.node[7].content_store 	p_hit[7] 	0.031216446248527
scalar tree_4_3_u03_r15_network.node[7].content_store 	hits[7] 	1192
scalar tree_4_3_u03_r15_network.node[7].content_store 	misses[7] 	36993
scalar tree_4_3_u03_r15_network.node[7].content_store 	decision_yes[7] 	3632
scalar tree_4_3_u03_r15_network.node[7].content_store 	decision_no[7] 	33360
scalar tree_4_3_u03_r15_network.node[7].content_store 	decision_ratio[7] 	0.09818339100346
scalar tree_4_3_u03_r15_network.node[8].core_layer 	interests[8] 	28525
scalar tree_4_3_u03_r15_network.node[8].core_layer 	data[8] 	27606
scalar tree_4_3_u03_r15_network.node[8].content_store 	p_hit[8] 	0.032217353198948
scalar tree_4_3_u03_r15_network.node[8].content_store 	hits[8] 	919
scalar tree_4_3_u03_r15_network.node[8].content_store 	misses[8] 	27606
scalar tree_4_3_u03_r15_network.node[8].content_store 	decision_yes[8] 	2785
scalar tree_4_3_u03_r15_network.node[8].content_store 	decision_no[8] 	24821
scalar tree_4_3_u03_r15_network.node[8].content_store 	decision_ratio[8] 	0.10088386582627
scalar tree_4_3_u03_r15_network.node[9].core_layer 	interests[9] 	19004
scalar tree_4_3_u03_r15_network.node[9].core_layer 	data[9] 	18304
scalar tree_4_3_u03_r15_network.node[9].content_store 	p_hit[9] 	0.036834350663018
scalar tree_4_3_u03_r15_network.node[9].content_store 	hits[9] 	700
scalar tree_4_3_u03_r15_network.node[9].content_store 	misses[9] 	18304
scalar tree_4_3_u03_r15_network.node[9].content_store 	decision_yes[9] 	1791
scalar tree_4_3_u03_r15_network.node[9].content_store 	decision_no[9] 	16513
scalar tree_4_3_u03_r15_network.node[9].content_store 	decision_ratio[9] 	0.097847465034965
scalar tree_4_3_u03_r15_network.node[10].core_layer 	interests[10] 	28717
scalar tree_4_3_u03_r15_network.node[10].core_layer 	data[10] 	27728
scalar tree_4_3_u03_r15_network.node[10].content_store 	p_hit[10] 	0.034404708012675
scalar tree_4_3_u03_r15_network.node[10].content_store 	hits[10] 	988
scalar tree_4_3_u03_r15_network.node[10].content_store 	misses[10] 	27729
scalar tree_4_3_u03_r15_network.node[10].content_store 	decision_yes[10] 	2680
scalar tree_4_3_u03_r15_network.node[10].content_store 	decision_no[10] 	25048
scalar tree_4_3_u03_r15_network.node[10].content_store 	decision_ratio[10] 	0.09665320253895
scalar tree_4_3_u03_r15_network.node[11].core_layer 	interests[11] 	28635
scalar tree_4_3_u03_r15_network.node[11].core_layer 	data[11] 	27626
scalar tree_4_3_u03_r15_network.node[11].content_store 	p_hit[11] 	0.035236598568186
scalar tree_4_3_u03_r15_network.node[11].content_store 	hits[11] 	1009
scalar tree_4_3_u03_r15_network.node[11].content_store 	misses[11] 	27626
scalar tree_4_3_u03_r15_network.node[11].content_store 	decision_yes[11] 	2803
scalar tree_4_3_u03_r15_network.node[11].content_store 	decision_no[11] 	24823
scalar tree_4_3_u03_r15_network.node[11].content_store 	decision_ratio[11] 	0.1014623905017
scalar tree_4_3_u03_r15_network.node[12].core_layer 	interests[12] 	28299
scalar tree_4_3_u03_r15_network.node[12].core_layer 	data[12] 	27387
scalar tree_4_3_u03_r15_network.node[12].content_store 	p_hit[12] 	0.032227287183293
scalar tree_4_3_u03_r15_network.node[12].content_store 	hits[12] 	912
scalar tree_4_3_u03_r15_network.node[12].content_store 	misses[12] 	27387
scalar tree_4_3_u03_r15_network.node[12].content_store 	decision_yes[12] 	2761
scalar tree_4_3_u03_r15_network.node[12].content_store 	decision_no[12] 	24626
scalar tree_4_3_u03_r15_network.node[12].content_store 	decision_ratio[12] 	0.10081425493847
scalar tree_4_3_u03_r15_network.node[13].core_layer 	interests[13] 	12085
scalar tree_4_3_u03_r15_network.node[13].core_layer 	data[13] 	9543
scalar tree_4_3_u03_r15_network.node[13].content_store 	p_hit[13] 	0.21034340091022
scalar tree_4_3_u03_r15_network.node[13].content_store 	hits[13] 	2542
scalar tree_4_3_u03_r15_network.node[13].content_store 	misses[13] 	9543
scalar tree_4_3_u03_r15_network.node[13].content_store 	decision_yes[13] 	965
scalar tree_4_3_u03_r15_network.node[13].content_store 	decision_no[13] 	8578
scalar tree_4_3_u03_r15_network.node[13].content_store 	decision_ratio[13] 	0.10112124069999
scalar tree_4_3_u03_r15_network.node[14].core_layer 	interests[14] 	12093
scalar tree_4_3_u03_r15_network.node[14].core_layer 	data[14] 	9628
scalar tree_4_3_u03_r15_network.node[14].content_store 	p_hit[14] 	0.20383693045564
scalar tree_4_3_u03_r15_network.node[14].content_store 	hits[14] 	2465
scalar tree_4_3_u03_r15_network.node[14].content_store 	misses[14] 	9628
scalar tree_4_3_u03_r15_network.node[14].content_store 	decision_yes[14] 	1008
scalar tree_4_3_u03_r15_network.node[14].content_store 	decision_no[14] 	8620
scalar tree_4_3_u03_r15_network.node[14].content_store 	decision_ratio[14] 	0.10469464063149
scalar tree_4_3_u03_r15_network.node[15].core_layer 	interests[15] 	11838
scalar tree_4_3_u03_r15_network.node[15].core_layer 	data[15] 	9379
scalar tree_4_3_u03_r15_network.node[15].content_store 	p_hit[15] 	0.20772089880047
scalar tree_4_3_u03_r15_network.node[15].content_store 	hits[15] 	2459
scalar tree_4_3_u03_r15_network.node[15].content_store 	misses[15] 	9379
scalar tree_4_3_u03_r15_network.node[15].content_store 	decision_yes[15] 	965
scalar tree_4_3_u03_r15_network.node[15].content_store 	decision_no[15] 	8414
scalar tree_4_3_u03_r15_network.node[15].content_store 	decision_ratio[15] 	0.10288943384156
scalar tree_4_3_u03_r15_network.node[16].core_layer 	interests[16] 	12187
scalar tree_4_3_u03_r15_network.node[16].core_layer 	data[16] 	9770
scalar tree_4_3_u03_r15_network.node[16].content_store 	p_hit[16] 	0.19824403052433
scalar tree_4_3_u03_r15_network.node[16].content_store 	hits[16] 	2416
scalar tree_4_3_u03_r15_network.node[16].content_store 	misses[16] 	9771
scalar tree_4_3_u03_r15_network.node[16].content_store 	decision_yes[16] 	981
scalar tree_4_3_u03_r15_network.node[16].content_store 	decision_no[16] 	8789
scalar tree_4_3_u03_r15_network.node[16].content_store 	decision_ratio[16] 	0.10040941658137
scalar tree_4_3_u03_r15_network.node[17].core_layer 	interests[17] 	12088
scalar tree_4_3_u03_r15_network.node[17].core_layer 	data[17] 	9714
scalar tree_4_3_u03_r15_network.node[17].content_store 	p_hit[17] 	0.19631039046989
scalar tree_4_3_u03_r15_network.node[17].content_store 	hits[17] 	2373
scalar tree_4_3_u03_r15_network.node[17].content_store 	misses[17] 	9715
scalar tree_4_3_u03_r15_network.node[17].content_store 	decision_yes[17] 	937
scalar tree_4_3_u03_r15_network.node[17].content_store 	decision_no[17] 	8777
scalar tree_4_3_u03_r15_network.node[17].content_store 	decision_ratio[17] 	0.096458719374099
scalar tree_4_3_u03_r15_network.node[18].core_layer 	interests[18] 	12168
scalar tree_4_3_u03_r15_network.node[18].core_layer 	data[18] 	9695
scalar tree_4_3_u03_r15_network.node[18].content_store 	p_hit[18] 	0.20323800131492
scalar tree_4_3_u03_r15_network.node[18].content_store 	hits[18] 	2473
scalar tree_4_3_u03_r15_network.node[18].content_store 	misses[18] 	9695
scalar tree_4_3_u03_r15_network.node[18].content_store 	decision_yes[18] 	1006
scalar tree_4_3_u03_r15_network.node[18].content_store 	decision_no[18] 	8689
scalar tree_4_3_u03_r15_network.node[18].content_store 	decision_ratio[18] 	0.10376482723053
scalar tree_4_3_u03_r15_network.node[19].core_layer 	interests[19] 	12192
scalar tree_4_3_u03_r15_network.node[19].core_layer 	data[19] 	9682
scalar tree_4_3_u03_r15_network.node[19].content_store 	p_hit[19] 	0.20587270341207
scalar tree_4_3_u03_r15_network.node[19].content_store 	hits[19] 	2510
scalar tree_4_3_u03_r15_network.node[19].content_store 	misses[19] 	9682
scalar tree_4_3_u03_r15_network.node[19].content_store 	decision_yes[19] 	936
scalar tree_4_3_u03_r15_network.node[19].content_store 	decision_no[19] 	8746
scalar tree_4_3_u03_r15_network.node[19].content_store 	decision_ratio[19] 	0.096674240859327
scalar tree_4_3_u03_r15_network.node[20].core_layer 	interests[20] 	12166
scalar tree_4_3_u03_r15_network.node[20].core_layer 	data[20] 	9671
scalar tree_4_3_u03_r15_network.node[20].content_store 	p_hit[20] 	0.20499753411146
scalar tree_4_3_u03_r15_network.node[20].content_store 	hits[20] 	2494
scalar tree_4_3_u03_r15_network.node[20].content_store 	misses[20] 	9672
scalar tree_4_3_u03_r15_network.node[20].content_store 	decision_yes[20] 	1003
scalar tree_4_3_u03_r15_network.node[20].content_store 	decision_no[20] 	8668
scalar tree_4_3_u03_r15_network.node[20].content_store 	decision_ratio[20] 	0.1037121290456
scalar tree_4_3_u03_r15_network.node[21].core_layer 	interests[21] 	11912
scalar tree_4_3_u03_r15_network.node[21].core_layer 	data[21] 	9471
scalar tree_4_3_u03_r15_network.node[21].content_store 	p_hit[21] 	0.20491940899933
scalar tree_4_3_u03_r15_network.node[21].content_store 	hits[21] 	2441
scalar tree_4_3_u03_r15_network.node[21].content_store 	misses[21] 	9471
scalar tree_4_3_u03_r15_network.node[21].content_store 	decision_yes[21] 	964
scalar tree_4_3_u03_r15_network.node[21].content_store 	decision_no[21] 	8507
scalar tree_4_3_u03_r15_network.node[21].content_store 	decision_ratio[21] 	0.10178439446732
scalar tree_4_3_u03_r15_network.node[22].core_layer 	interests[22] 	11858
scalar tree_4_3_u03_r15_network.node[22].core_layer 	data[22] 	9403
scalar tree_4_3_u03_r15_network.node[22].content_store 	p_hit[22] 	0.20703322651375
scalar tree_4_3_u03_r15_network.node[22].content_store 	hits[22] 	2455
scalar tree_4_3_u03_r15_network.node[22].content_store 	misses[22] 	9403
scalar tree_4_3_u03_r15_network.node[22].content_store 	decision_yes[22] 	976
scalar tree_4_3_u03_r15_network.node[22].content_store 	decision_no[22] 	8427
scalar tree_4_3_u03_r15_network.node[22].content_store 	decision_ratio[22] 	0.10379666064022
scalar tree_4_3_u03_r15_network.node[23].core_layer 	interests[23] 	12185
scalar tree_4_3_u03_r15_network.node[23].core_layer 	data[23] 	9741
scalar tree_4_3_u03_r15_network.node[23].content_store 	p_hit[23] 	0.20065654493229
scalar tree_4_3_u03_r15_network.node[23].content_store 	hits[23] 	2445
scalar tree_4_3_u03_r15_network.node[23].content_store 	misses[23] 	9740
scalar tree_4_3_u03_r15_network.node[23].content_store 	decision_yes[23] 	935
scalar tree_4_3_u03_r15_network.node[23].content_store 	decision_no[23] 	8806
scalar tree_4_3_u03_r15_network.node[23].content_store 	decision_ratio[23] 	0.095986038394415
scalar tree_4_3_u03_r15_network.node[24].core_layer 	interests[24] 	12013
scalar tree_4_3_u03_r15_network.node[24].core_layer 	data[24] 	9494
scalar tree_4_3_u03_r15_network.node[24].content_store 	p_hit[24] 	0.20968950303838
scalar tree_4_3_u03_r15_network.node[24].content_store 	hits[24] 	2519
scalar tree_4_3_u03_r15_network.node[24].content_store 	misses[24] 	9494
scalar tree_4_3_u03_r15_network.node[24].content_store 	decision_yes[24] 	1037
scalar tree_4_3_u03_r15_network.node[24].content_store 	decision_no[24] 	8457
scalar tree_4_3_u03_r15_network.node[24].content_store 	decision_ratio[24] 	0.10922688013482
scalar tree_4_3_u03_r15_network.node[25].core_layer 	interests[25] 	11672
scalar tree_4_3_u03_r15_network.node[25].core_layer 	data[25] 	9214
scalar tree_4_3_u03_r15_network.node[25].content_store 	p_hit[25] 	0.21058944482522
scalar tree_4_3_u03_r15_network.node[25].content_store 	hits[25] 	2458
scalar tree_4_3_u03_r15_network.node[25].content_store 	misses[25] 	9214
scalar tree_4_3_u03_r15_network.node[25].content_store 	decision_yes[25] 	922
scalar tree_4_3_u03_r15_network.node[25].content_store 	decision_no[25] 	8292
scalar tree_4_3_u03_r15_network.node[25].content_store 	decision_ratio[25] 	0.10006511829824
scalar tree_4_3_u03_r15_network.node[26].core_layer 	interests[26] 	12184
scalar tree_4_3_u03_r15_network.node[26].core_layer 	data[26] 	9691
scalar tree_4_3_u03_r15_network.node[26].content_store 	p_hit[26] 	0.20469468154957
scalar tree_4_3_u03_r15_network.node[26].content_store 	hits[26] 	2494
scalar tree_4_3_u03_r15_network.node[26].content_store 	misses[26] 	9690
scalar tree_4_3_u03_r15_network.node[26].content_store 	decision_yes[26] 	988
scalar tree_4_3_u03_r15_network.node[26].content_store 	decision_no[26] 	8703
scalar tree_4_3_u03_r15_network.node[26].content_store 	decision_ratio[26] 	0.10195026313074
scalar tree_4_3_u03_r15_network.node[27].core_layer 	interests[27] 	12046
scalar tree_4_3_u03_r15_network.node[27].core_layer 	data[27] 	9621
scalar tree_4_3_u03_r15_network.node[27].content_store 	p_hit[27] 	0.20114560850075
scalar tree_4_3_u03_r15_network.node[27].content_store 	hits[27] 	2423
scalar tree_4_3_u03_r15_network.node[27].content_store 	misses[27] 	9623
scalar tree_4_3_u03_r15_network.node[27].content_store 	decision_yes[27] 	958
scalar tree_4_3_u03_r15_network.node[27].content_store 	decision_no[27] 	8663
scalar tree_4_3_u03_r15_network.node[27].content_store 	decision_ratio[27] 	0.099573848872259
scalar tree_4_3_u03_r15_network.node[28].core_layer 	interests[28] 	11998
scalar tree_4_3_u03_r15_network.node[28].core_layer 	data[28] 	9548
scalar tree_4_3_u03_r15_network.node[28].content_store 	p_hit[28] 	0.20420070011669
scalar tree_4_3_u03_r15_network.node[28].content_store 	hits[28] 	2450
scalar tree_4_3_u03_r15_network.node[28].content_store 	misses[28] 	9548
scalar tree_4_3_u03_r15_network.node[28].content_store 	decision_yes[28] 	937
scalar tree_4_3_u03_r15_network.node[28].content_store 	decision_no[28] 	8611
scalar tree_4_3_u03_r15_network.node[28].content_store 	decision_ratio[28] 	0.098135735232509
scalar tree_4_3_u03_r15_network.node[29].core_layer 	interests[29] 	11906
scalar tree_4_3_u03_r15_network.node[29].core_layer 	data[29] 	9403
scalar tree_4_3_u03_r15_network.node[29].content_store 	p_hit[29] 	0.21023013606585
scalar tree_4_3_u03_r15_network.node[29].content_store 	hits[29] 	2503
scalar tree_4_3_u03_r15_network.node[29].content_store 	misses[29] 	9403
scalar tree_4_3_u03_r15_network.node[29].content_store 	decision_yes[29] 	899
scalar tree_4_3_u03_r15_network.node[29].content_store 	decision_no[29] 	8504
scalar tree_4_3_u03_r15_network.node[29].content_store 	decision_ratio[29] 	0.095607784749548
scalar tree_4_3_u03_r15_network.node[30].core_layer 	interests[30] 	12014
scalar tree_4_3_u03_r15_network.node[30].core_layer 	data[30] 	9601
scalar tree_4_3_u03_r15_network.node[30].content_store 	p_hit[30] 	0.20068253704012
scalar tree_4_3_u03_r15_network.node[30].content_store 	hits[30] 	2411
scalar tree_4_3_u03_r15_network.node[30].content_store 	misses[30] 	9603
scalar tree_4_3_u03_r15_network.node[30].content_store 	decision_yes[30] 	1009
scalar tree_4_3_u03_r15_network.node[30].content_store 	decision_no[30] 	8592
scalar tree_4_3_u03_r15_network.node[30].content_store 	decision_ratio[30] 	0.10509321945631
scalar tree_4_3_u03_r15_network.node[31].core_layer 	interests[31] 	12176
scalar tree_4_3_u03_r15_network.node[31].core_layer 	data[31] 	9596
scalar tree_4_3_u03_r15_network.node[31].content_store 	p_hit[31] 	0.21189224704336
scalar tree_4_3_u03_r15_network.node[31].content_store 	hits[31] 	2580
scalar tree_4_3_u03_r15_network.node[31].content_store 	misses[31] 	9596
scalar tree_4_3_u03_r15_network.node[31].content_store 	decision_yes[31] 	991
scalar tree_4_3_u03_r15_network.node[31].content_store 	decision_no[31] 	8605
scalar tree_4_3_u03_r15_network.node[31].content_store 	decision_ratio[31] 	0.10327219674865
scalar tree_4_3_u03_r15_network.node[32].core_layer 	interests[32] 	12199
scalar tree_4_3_u03_r15_network.node[32].core_layer 	data[32] 	9662
scalar tree_4_3_u03_r15_network.node[32].content_store 	p_hit[32] 	0.20796786621854
scalar tree_4_3_u03_r15_network.node[32].content_store 	hits[32] 	2537
scalar tree_4_3_u03_r15_network.node[32].content_store 	misses[32] 	9662
scalar tree_4_3_u03_r15_network.node[32].content_store 	decision_yes[32] 	981
scalar tree_4_3_u03_r15_network.node[32].content_store 	decision_no[32] 	8681
scalar tree_4_3_u03_r15_network.node[32].content_store 	decision_ratio[32] 	0.10153177395984
scalar tree_4_3_u03_r15_network.node[33].core_layer 	interests[33] 	11889
scalar tree_4_3_u03_r15_network.node[33].core_layer 	data[33] 	9459
scalar tree_4_3_u03_r15_network.node[33].content_store 	p_hit[33] 	0.20439061317184
scalar tree_4_3_u03_r15_network.node[33].content_store 	hits[33] 	2430
scalar tree_4_3_u03_r15_network.node[33].content_store 	misses[33] 	9459
scalar tree_4_3_u03_r15_network.node[33].content_store 	decision_yes[33] 	973
scalar tree_4_3_u03_r15_network.node[33].content_store 	decision_no[33] 	8486
scalar tree_4_3_u03_r15_network.node[33].content_store 	decision_ratio[33] 	0.10286499629982
scalar tree_4_3_u03_r15_network.node[34].core_layer 	interests[34] 	12064
scalar tree_4_3_u03_r15_network.node[34].core_layer 	data[34] 	9624
scalar tree_4_3_u03_r15_network.node[34].content_store 	p_hit[34] 	0.20217175066313
scalar tree_4_3_u03_r15_network.node[34].content_store 	hits[34] 	2439
scalar tree_4_3_u03_r15_network.node[34].content_store 	misses[34] 	9625
scalar tree_4_3_u03_r15_network.node[34].content_store 	decision_yes[34] 	929
scalar tree_4_3_u03_r15_network.node[34].content_store 	decision_no[34] 	8695
scalar tree_4_3_u03_r15_network.node[34].content_store 	decision_ratio[34] 	0.096529509559435
scalar tree_4_3_u03_r15_network.node[35].core_layer 	interests[35] 	12080
scalar tree_4_3_u03_r15_network.node[35].core_layer 	data[35] 	9556
scalar tree_4_3_u03_r15_network.node[35].content_store 	p_hit[35] 	0.20885761589404
scalar tree_4_3_u03_r15_network.node[35].content_store 	hits[35] 	2523
scalar tree_4_3_u03_r15_network.node[35].content_store 	misses[35] 	9557
scalar tree_4_3_u03_r15_network.node[35].content_store 	decision_yes[35] 	911
scalar tree_4_3_u03_r15_network.node[35].content_store 	decision_no[35] 	8645
scalar tree_4_3_u03_r15_network.node[35].content_store 	decision_ratio[35] 	0.095332775219757
scalar tree_4_3_u03_r15_network.node[36].core_layer 	interests[36] 	12045
scalar tree_4_3_u03_r15_network.node[36].core_layer 	data[36] 	9455
scalar tree_4_3_u03_r15_network.node[36].content_store 	p_hit[36] 	0.21494396014944
scalar tree_4_3_u03_r15_network.node[36].content_store 	hits[36] 	2589
scalar tree_4_3_u03_r15_network.node[36].content_store 	misses[36] 	9456
scalar tree_4_3_u03_r15_network.node[36].content_store 	decision_yes[36] 	956
scalar tree_4_3_u03_r15_network.node[36].content_store 	decision_no[36] 	8499
scalar tree_4_3_u03_r15_network.node[36].content_store 	decision_ratio[36] 	0.10111052353252
scalar tree_4_3_u03_r15_network.node[37].core_layer 	interests[37] 	11891
scalar tree_4_3_u03_r15_network.node[37].core_layer 	data[37] 	9383
scalar tree_4_3_u03_r15_network.node[37].content_store 	p_hit[37] 	0.2109158186864
scalar tree_4_3_u03_r15_network.node[37].content_store 	hits[37] 	2508
scalar tree_4_3_u03_r15_network.node[37].content_store 	misses[37] 	9383
scalar tree_4_3_u03_r15_network.node[37].content_store 	decision_yes[37] 	955
scalar tree_4_3_u03_r15_network.node[37].content_store 	decision_no[37] 	8428
scalar tree_4_3_u03_r15_network.node[37].content_store 	decision_ratio[37] 	0.10177981455824
scalar tree_4_3_u03_r15_network.node[38].core_layer 	interests[38] 	12117
scalar tree_4_3_u03_r15_network.node[38].core_layer 	data[38] 	9560
scalar tree_4_3_u03_r15_network.node[38].content_store 	p_hit[38] 	0.21102583147644
scalar tree_4_3_u03_r15_network.node[38].content_store 	hits[38] 	2557
scalar tree_4_3_u03_r15_network.node[38].content_store 	misses[38] 	9560
scalar tree_4_3_u03_r15_network.node[38].content_store 	decision_yes[38] 	913
scalar tree_4_3_u03_r15_network.node[38].content_store 	decision_no[38] 	8647
scalar tree_4_3_u03_r15_network.node[38].content_store 	decision_ratio[38] 	0.095502092050209
scalar tree_4_3_u03_r15_network.node[39].core_layer 	interests[39] 	11838
scalar tree_4_3_u03_r15_network.node[39].core_layer 	data[39] 	9356
scalar tree_4_3_u03_r15_network.node[39].content_store 	p_hit[39] 	0.20966379455989
scalar tree_4_3_u03_r15_network.node[39].content_store 	hits[39] 	2482
scalar tree_4_3_u03_r15_network.node[39].content_store 	misses[39] 	9356
scalar tree_4_3_u03_r15_network.node[39].content_store 	decision_yes[39] 	923
scalar tree_4_3_u03_r15_network.node[39].content_store 	decision_no[39] 	8433
scalar tree_4_3_u03_r15_network.node[39].content_store 	decision_ratio[39] 	0.098653270628474
scalar tree_4_3_u03_r15_network.client[13] 	hdistance[13] 	3.028796028134
scalar tree_4_3_u03_r15_network.client[13] 	downloads[13] 	12085
scalar tree_4_3_u03_r15_network.client[13] 	avg_time[13] 	0.00459726633
scalar tree_4_3_u03_r15_network.client[14] 	hdistance[14] 	3.042834697759
scalar tree_4_3_u03_r15_network.client[14] 	downloads[14] 	12093
scalar tree_4_3_u03_r15_network.client[14] 	avg_time[14] 	0.004620521273
scalar tree_4_3_u03_r15_network.client[15] 	hdistance[15] 	3.0420679168779
scalar tree_4_3_u03_r15_network.client[15] 	downloads[15] 	11838
scalar tree_4_3_u03_r15_network.client[15] 	avg_time[15] 	0.004616831561
scalar tree_4_3_u03_r15_network.client[16] 	hdistance[16] 	3.07418348925
scalar tree_4_3_u03_r15_network.client[16] 	downloads[16] 	12186
scalar tree_4_3_u03_r15_network.client[16] 	avg_time[16] 	0.004664617914
scalar tree_4_3_u03_r15_network.client[17] 	hdistance[17] 	3.068172416646
scalar tree_4_3_u03_r15_network.client[17] 	downloads[17] 	12087
scalar tree_4_3_u03_r15_network.client[17] 	avg_time[17] 	0.004660241144
scalar tree_4_3_u03_r15_network.client[18] 	hdistance[18] 	3.0459401709402
scalar tree_4_3_u03_r15_network.client[18] 	downloads[18] 	12168
scalar tree_4_3_u03_r15_network.client[18] 	avg_time[18] 	0.004622547316
scalar tree_4_3_u03_r15_network.client[19] 	hdistance[19] 	3.0474081364829
scalar tree_4_3_u03_r15_network.client[19] 	downloads[19] 	12192
scalar tree_4_3_u03_r15_network.client[19] 	avg_time[19] 	0.004625405682
scalar tree_4_3_u03_r15_network.client[20] 	hdistance[20] 	3.0445540484998
scalar tree_4_3_u03_r15_network.client[20] 	downloads[20] 	12165
scalar tree_4_3_u03_r15_network.client[20] 	avg_time[20] 	0.004621716348
scalar tree_4_3_u03_r15_network.client[21] 	hdistance[21] 	3.0592679650772
scalar tree_4_3_u03_r15_network.client[21] 	downloads[21] 	11912
scalar tree_4_3_u03_r15_network.client[21] 	avg_time[21] 	0.004641031252
scalar tree_4_3_u03_r15_network.client[22] 	hdistance[22] 	3.0421656265812
scalar tree_4_3_u03_r15_network.client[22] 	downloads[22] 	11858
scalar tree_4_3_u03_r15_network.client[22] 	avg_time[22] 	0.004616458509
scalar tree_4_3_u03_r15_network.client[23] 	hdistance[23] 	3.069423929099
scalar tree_4_3_u03_r15_network.client[23] 	downloads[23] 	12186
scalar tree_4_3_u03_r15_network.client[23] 	avg_time[23] 	0.00465761104
scalar tree_4_3_u03_r15_network.client[24] 	hdistance[24] 	3.0387080662615
scalar tree_4_3_u03_r15_network.client[24] 	downloads[24] 	12013
scalar tree_4_3_u03_r15_network.client[24] 	avg_time[24] 	0.004613959755
scalar tree_4_3_u03_r15_network.client[25] 	hdistance[25] 	3.0340986977382
scalar tree_4_3_u03_r15_network.client[25] 	downloads[25] 	11672
scalar tree_4_3_u03_r15_network.client[25] 	avg_time[25] 	0.004600873469
scalar tree_4_3_u03_r15_network.client[26] 	hdistance[26] 	3.0553139105458
scalar tree_4_3_u03_r15_network.client[26] 	downloads[26] 	12185
scalar tree_4_3_u03_r15_network.client[26] 	avg_time[26] 	0.004634508363
scalar tree_4_3_u03_r15_network.client[27] 	hdistance[27] 	3.0675024908668
scalar tree_4_3_u03_r15_network.client[27] 	downloads[27] 	12044
scalar tree_4_3_u03_r15_network.client[27] 	avg_time[27] 	0.004653153454
scalar tree_4_3_u03_r15_network.client[28] 	hdistance[28] 	3.0591765294216
scalar tree_4_3_u03_r15_network.client[28] 	downloads[28] 	11998
scalar tree_4_3_u03_r15_network.client[28] 	avg_time[28] 	0.004641770609
scalar tree_4_3_u03_r15_network.client[29] 	hdistance[29] 	3.0251973794725
scalar tree_4_3_u03_r15_network.client[29] 	downloads[29] 	11906
scalar tree_4_3_u03_r15_network.client[29] 	avg_time[29] 	0.004590119683
scalar tree_4_3_u03_r15_network.client[30] 	hdistance[30] 	3.0584415584416
scalar tree_4_3_u03_r15_network.client[30] 	downloads[30] 	12012
scalar tree_4_3_u03_r15_network.client[30] 	avg_time[30] 	0.004641068841
scalar tree_4_3_u03_r15_network.client[31] 	hdistance[31] 	3.02373521682
scalar tree_4_3_u03_r15_network.client[31] 	downloads[31] 	12176
scalar tree_4_3_u03_r15_network.client[31] 	avg_time[31] 	0.00458694598
scalar tree_4_3_u03_r15_network.client[32] 	hdistance[32] 	3.0349208951553
scalar tree_4_3_u03_r15_network.client[32] 	downloads[32] 	12199
scalar tree_4_3_u03_r15_network.client[32] 	avg_time[32] 	0.004605748169
scalar tree_4_3_u03_r15_network.client[33] 	hdistance[33] 	3.0475229203465
scalar tree_4_3_u03_r15_network.client[33] 	downloads[33] 	11889
scalar tree_4_3_u03_r15_network.client[33] 	avg_time[33] 	0.004623088294
scalar tree_4_3_u03_r15_network.client[34] 	hdistance[34] 	3.0495730746912
scalar tree_4_3_u03_r15_network.client[34] 	downloads[34] 	12063
scalar tree_4_3_u03_r15_network.client[34] 	avg_time[34] 	0.004628829082
scalar tree_4_3_u03_r15_network.client[35] 	hdistance[35] 	3.0416425200762
scalar tree_4_3_u03_r15_network.client[35] 	downloads[35] 	12079
scalar tree_4_3_u03_r15_network.client[35] 	avg_time[35] 	0.004612509763
scalar tree_4_3_u03_r15_network.client[36] 	hdistance[36] 	3.0111258718034
scalar tree_4_3_u03_r15_network.client[36] 	downloads[36] 	12044
scalar tree_4_3_u03_r15_network.client[36] 	avg_time[36] 	0.004567098923
scalar tree_4_3_u03_r15_network.client[37] 	hdistance[37] 	3.0290135396518
scalar tree_4_3_u03_r15_network.client[37] 	downloads[37] 	11891
scalar tree_4_3_u03_r15_network.client[37] 	avg_time[37] 	0.004595741702
scalar tree_4_3_u03_r15_network.client[38] 	hdistance[38] 	3.0402739952133
scalar tree_4_3_u03_r15_network.client[38] 	downloads[38] 	12117
scalar tree_4_3_u03_r15_network.client[38] 	avg_time[38] 	0.004608893567
scalar tree_4_3_u03_r15_network.client[39] 	hdistance[39] 	3.0308329109647
scalar tree_4_3_u03_r15_network.client[39] 	downloads[39] 	11838
scalar tree_4_3_u03_r15_network.client[39] 	avg_time[39] 	0.004600098406
