version 2
run General-69-20160820-03:47:31-14346
attr a 0.9
attr cd fix0.1
attr configname General
attr cr lru
attr datetime 20160820-03:47:31
attr experiment General
attr fsize 1
attr inifile hw5115/scenario_A/SPR-FIX0.1.ini
attr iterationvars "$name=tree_4_3, $un=03, $rep=10, $cd=fix0.1, $cr=lru, $fsize=1, $a=0.9, $sl=spr, $ttl=1000, $variance=0.05"
attr iterationvars2 "$name=tree_4_3, $un=03, $rep=10, $cd=fix0.1, $cr=lru, $fsize=1, $a=0.9, $sl=spr, $ttl=1000, $variance=0.05, $repetition=0"
attr measurement "$name=tree_4_3, $un=03, $rep=10, $cd=fix0.1, $cr=lru, $fsize=1, $a=0.9, $sl=spr, $ttl=1000, $variance=0.05"
attr name tree_4_3
attr network networks.${name}_u${un}_r${rep}_network
attr processid 14346
attr rep 10
attr repetition 0
attr replication #0
attr resultdir results
attr runnumber 69
attr seedset 10
attr sl spr
attr ttl 1000
attr un 03
attr variance 0.05

scalar . 	a 	0.9
scalar . 	fsize 	1
scalar . 	rep 	10
scalar . 	ttl 	1000
scalar . 	un 	03
scalar . 	variance 	0.05
scalar tree_4_3_u03_r10_network.content_distribution 	repo-0 	0
scalar tree_4_3_u03_r10_network.content_distribution 	client-0 	13
scalar tree_4_3_u03_r10_network.content_distribution 	client-1 	14
scalar tree_4_3_u03_r10_network.content_distribution 	client-2 	15
scalar tree_4_3_u03_r10_network.content_distribution 	client-3 	16
scalar tree_4_3_u03_r10_network.content_distribution 	client-4 	17
scalar tree_4_3_u03_r10_network.content_distribution 	client-5 	18
scalar tree_4_3_u03_r10_network.content_distribution 	client-6 	19
scalar tree_4_3_u03_r10_network.content_distribution 	client-7 	20
scalar tree_4_3_u03_r10_network.content_distribution 	client-8 	21
scalar tree_4_3_u03_r10_network.content_distribution 	client-9 	22
scalar tree_4_3_u03_r10_network.content_distribution 	client-10 	23
scalar tree_4_3_u03_r10_network.content_distribution 	client-11 	24
scalar tree_4_3_u03_r10_network.content_distribution 	client-12 	25
scalar tree_4_3_u03_r10_network.content_distribution 	client-13 	26
scalar tree_4_3_u03_r10_network.content_distribution 	client-14 	27
scalar tree_4_3_u03_r10_network.content_distribution 	client-15 	28
scalar tree_4_3_u03_r10_network.content_distribution 	client-16 	29
scalar tree_4_3_u03_r10_network.content_distribution 	client-17 	30
scalar tree_4_3_u03_r10_network.content_distribution 	client-18 	31
scalar tree_4_3_u03_r10_network.content_distribution 	client-19 	32
scalar tree_4_3_u03_r10_network.content_distribution 	client-20 	33
scalar tree_4_3_u03_r10_network.content_distribution 	client-21 	34
scalar tree_4_3_u03_r10_network.content_distribution 	client-22 	35
scalar tree_4_3_u03_r10_network.content_distribution 	client-23 	36
scalar tree_4_3_u03_r10_network.content_distribution 	client-24 	37
scalar tree_4_3_u03_r10_network.content_distribution 	client-25 	38
scalar tree_4_3_u03_r10_network.content_distribution 	client-26 	39
scalar tree_4_3_u03_r10_network.content_distribution 	repo-0_card 	100000
scalar tree_4_3_u03_r10_network.content_distribution 	repo-0_price 	0
scalar tree_4_3_u03_r10_network.statistics 	stabilization_time 	885.3
scalar tree_4_3_u03_r10_network.statistics 	p_hit 	0.15067412392037
scalar tree_4_3_u03_r10_network.statistics 	interests 	26696.6
scalar tree_4_3_u03_r10_network.statistics 	data 	18613.25
scalar tree_4_3_u03_r10_network.statistics 	hdistance 	3.0354021991149
scalar tree_4_3_u03_r10_network.statistics 	avg_time 	0.004605402234
scalar tree_4_3_u03_r10_network.statistics 	downloads 	323336
scalar tree_4_3_u03_r10_network.statistics 	total_cost 	0
scalar tree_4_3_u03_r10_network.statistics 	total_replicas 	100000
scalar tree_4_3_u03_r10_network.statistics 	inner_hit 	0.26743078407601
scalar tree_4_3_u03_r10_network.node[0].core_layer 	interests[0] 	241302
scalar tree_4_3_u03_r10_network.node[0].core_layer 	repo_load[0] 	236866
scalar tree_4_3_u03_r10_network.node[0].core_layer 	data[0] 	0
scalar tree_4_3_u03_r10_network.node[0].core_layer 	repo_int[0] 	236866
scalar tree_4_3_u03_r10_network.node[0].content_store 	p_hit[0] 	0.018383602290905
scalar tree_4_3_u03_r10_network.node[0].content_store 	hits[0] 	4436
scalar tree_4_3_u03_r10_network.node[0].content_store 	misses[0] 	236866
scalar tree_4_3_u03_r10_network.node[0].content_store 	decision_yes[0] 	23648
scalar tree_4_3_u03_r10_network.node[0].content_store 	decision_no[0] 	213218
scalar tree_4_3_u03_r10_network.node[0].content_store 	decision_ratio[0] 	0.09983703866321
scalar tree_4_3_u03_r10_network.node[1].core_layer 	interests[1] 	82590
scalar tree_4_3_u03_r10_network.node[1].core_layer 	data[1] 	80589
scalar tree_4_3_u03_r10_network.node[1].content_store 	p_hit[1] 	0.024179682770311
scalar tree_4_3_u03_r10_network.node[1].content_store 	hits[1] 	1997
scalar tree_4_3_u03_r10_network.node[1].content_store 	misses[1] 	80593
scalar tree_4_3_u03_r10_network.node[1].content_store 	decision_yes[1] 	7903
scalar tree_4_3_u03_r10_network.node[1].content_store 	decision_no[1] 	72686
scalar tree_4_3_u03_r10_network.node[1].content_store 	decision_ratio[1] 	0.098065492809192
scalar tree_4_3_u03_r10_network.node[2].core_layer 	interests[2] 	118971
scalar tree_4_3_u03_r10_network.node[2].core_layer 	data[2] 	116151
scalar tree_4_3_u03_r10_network.node[2].content_store 	p_hit[2] 	0.023652822956855
scalar tree_4_3_u03_r10_network.node[2].content_store 	hits[2] 	2814
scalar tree_4_3_u03_r10_network.node[2].content_store 	misses[2] 	116157
scalar tree_4_3_u03_r10_network.node[2].content_store 	decision_yes[2] 	11678
scalar tree_4_3_u03_r10_network.node[2].content_store 	decision_no[2] 	104473
scalar tree_4_3_u03_r10_network.node[2].content_store 	decision_ratio[2] 	0.10054153644824
scalar tree_4_3_u03_r10_network.node[3].core_layer 	interests[3] 	45718
scalar tree_4_3_u03_r10_network.node[3].core_layer 	data[3] 	44562
scalar tree_4_3_u03_r10_network.node[3].content_store 	p_hit[3] 	0.025285445557548
scalar tree_4_3_u03_r10_network.node[3].content_store 	hits[3] 	1156
scalar tree_4_3_u03_r10_network.node[3].content_store 	misses[3] 	44562
scalar tree_4_3_u03_r10_network.node[3].content_store 	decision_yes[3] 	4501
scalar tree_4_3_u03_r10_network.node[3].content_store 	decision_no[3] 	40061
scalar tree_4_3_u03_r10_network.node[3].content_store 	decision_ratio[3] 	0.10100534087339
scalar tree_4_3_u03_r10_network.node[4].core_layer 	interests[4] 	38074
scalar tree_4_3_u03_r10_network.node[4].core_layer 	data[4] 	36711
scalar tree_4_3_u03_r10_network.node[4].content_store 	p_hit[4] 	0.035719913851972
scalar tree_4_3_u03_r10_network.node[4].content_store 	hits[4] 	1360
scalar tree_4_3_u03_r10_network.node[4].content_store 	misses[4] 	36714
scalar tree_4_3_u03_r10_network.node[4].content_store 	decision_yes[4] 	3662
scalar tree_4_3_u03_r10_network.node[4].content_store 	decision_no[4] 	33049
scalar tree_4_3_u03_r10_network.node[4].content_store 	decision_ratio[4] 	0.099752117893819
scalar tree_4_3_u03_r10_network.node[5].core_layer 	interests[5] 	37949
scalar tree_4_3_u03_r10_network.node[5].core_layer 	data[5] 	36749
scalar tree_4_3_u03_r10_network.node[5].content_store 	p_hit[5] 	0.031595035442304
scalar tree_4_3_u03_r10_network.node[5].content_store 	hits[5] 	1199
scalar tree_4_3_u03_r10_network.node[5].content_store 	misses[5] 	36750
scalar tree_4_3_u03_r10_network.node[5].content_store 	decision_yes[5] 	3717
scalar tree_4_3_u03_r10_network.node[5].content_store 	decision_no[5] 	33032
scalar tree_4_3_u03_r10_network.node[5].content_store 	decision_ratio[5] 	0.10114560940434
scalar tree_4_3_u03_r10_network.node[6].core_layer 	interests[6] 	9521
scalar tree_4_3_u03_r10_network.node[6].core_layer 	data[6] 	9131
scalar tree_4_3_u03_r10_network.node[6].content_store 	p_hit[6] 	0.040962083814725
scalar tree_4_3_u03_r10_network.node[6].content_store 	hits[6] 	390
scalar tree_4_3_u03_r10_network.node[6].content_store 	misses[6] 	9131
scalar tree_4_3_u03_r10_network.node[6].content_store 	decision_yes[6] 	900
scalar tree_4_3_u03_r10_network.node[6].content_store 	decision_no[6] 	8231
scalar tree_4_3_u03_r10_network.node[6].content_store 	decision_ratio[6] 	0.098565326908334
scalar tree_4_3_u03_r10_network.node[7].core_layer 	interests[7] 	28285
scalar tree_4_3_u03_r10_network.node[7].core_layer 	data[7] 	27363
scalar tree_4_3_u03_r10_network.node[7].content_store 	p_hit[7] 	0.032596782747039
scalar tree_4_3_u03_r10_network.node[7].content_store 	hits[7] 	922
scalar tree_4_3_u03_r10_network.node[7].content_store 	misses[7] 	27363
scalar tree_4_3_u03_r10_network.node[7].content_store 	decision_yes[7] 	2723
scalar tree_4_3_u03_r10_network.node[7].content_store 	decision_no[7] 	24640
scalar tree_4_3_u03_r10_network.node[7].content_store 	decision_ratio[7] 	0.099513942184702
scalar tree_4_3_u03_r10_network.node[8].core_layer 	interests[8] 	28465
scalar tree_4_3_u03_r10_network.node[8].core_layer 	data[8] 	27562
scalar tree_4_3_u03_r10_network.node[8].content_store 	p_hit[8] 	0.031723168803794
scalar tree_4_3_u03_r10_network.node[8].content_store 	hits[8] 	903
scalar tree_4_3_u03_r10_network.node[8].content_store 	misses[8] 	27562
scalar tree_4_3_u03_r10_network.node[8].content_store 	decision_yes[8] 	2746
scalar tree_4_3_u03_r10_network.node[8].content_store 	decision_no[8] 	24816
scalar tree_4_3_u03_r10_network.node[8].content_store 	decision_ratio[8] 	0.099629925259415
scalar tree_4_3_u03_r10_network.node[9].core_layer 	interests[9] 	28461
scalar tree_4_3_u03_r10_network.node[9].core_layer 	data[9] 	27423
scalar tree_4_3_u03_r10_network.node[9].content_store 	p_hit[9] 	0.036330417061944
scalar tree_4_3_u03_r10_network.node[9].content_store 	hits[9] 	1034
scalar tree_4_3_u03_r10_network.node[9].content_store 	misses[9] 	27427
scalar tree_4_3_u03_r10_network.node[9].content_store 	decision_yes[9] 	2845
scalar tree_4_3_u03_r10_network.node[9].content_store 	decision_no[9] 	24578
scalar tree_4_3_u03_r10_network.node[9].content_store 	decision_ratio[9] 	0.10374503154287
scalar tree_4_3_u03_r10_network.node[10].core_layer 	interests[10] 	18931
scalar tree_4_3_u03_r10_network.node[10].core_layer 	data[10] 	18328
scalar tree_4_3_u03_r10_network.node[10].content_store 	p_hit[10] 	0.031799693624214
scalar tree_4_3_u03_r10_network.node[10].content_store 	hits[10] 	602
scalar tree_4_3_u03_r10_network.node[10].content_store 	misses[10] 	18329
scalar tree_4_3_u03_r10_network.node[10].content_store 	decision_yes[10] 	1843
scalar tree_4_3_u03_r10_network.node[10].content_store 	decision_no[10] 	16485
scalar tree_4_3_u03_r10_network.node[10].content_store 	decision_ratio[10] 	0.1005565255347
scalar tree_4_3_u03_r10_network.node[11].core_layer 	interests[11] 	37927
scalar tree_4_3_u03_r10_network.node[11].core_layer 	data[11] 	36623
scalar tree_4_3_u03_r10_network.node[11].content_store 	p_hit[11] 	0.034329105913993
scalar tree_4_3_u03_r10_network.node[11].content_store 	hits[11] 	1302
scalar tree_4_3_u03_r10_network.node[11].content_store 	misses[11] 	36625
scalar tree_4_3_u03_r10_network.node[11].content_store 	decision_yes[11] 	3657
scalar tree_4_3_u03_r10_network.node[11].content_store 	decision_no[11] 	32966
scalar tree_4_3_u03_r10_network.node[11].content_store 	decision_ratio[11] 	0.099855282199711
scalar tree_4_3_u03_r10_network.node[12].core_layer 	interests[12] 	28332
scalar tree_4_3_u03_r10_network.node[12].core_layer 	data[12] 	27390
scalar tree_4_3_u03_r10_network.node[12].content_store 	p_hit[12] 	0.033248623464634
scalar tree_4_3_u03_r10_network.node[12].content_store 	hits[12] 	942
scalar tree_4_3_u03_r10_network.node[12].content_store 	misses[12] 	27390
scalar tree_4_3_u03_r10_network.node[12].content_store 	decision_yes[12] 	2644
scalar tree_4_3_u03_r10_network.node[12].content_store 	decision_no[12] 	24746
scalar tree_4_3_u03_r10_network.node[12].content_store 	decision_ratio[12] 	0.09653158086893
scalar tree_4_3_u03_r10_network.node[13].core_layer 	interests[13] 	12083
scalar tree_4_3_u03_r10_network.node[13].core_layer 	data[13] 	9680
scalar tree_4_3_u03_r10_network.node[13].content_store 	p_hit[13] 	0.19887445170901
scalar tree_4_3_u03_r10_network.node[13].content_store 	hits[13] 	2403
scalar tree_4_3_u03_r10_network.node[13].content_store 	misses[13] 	9680
scalar tree_4_3_u03_r10_network.node[13].content_store 	decision_yes[13] 	950
scalar tree_4_3_u03_r10_network.node[13].content_store 	decision_no[13] 	8730
scalar tree_4_3_u03_r10_network.node[13].content_store 	decision_ratio[13] 	0.098140495867769
scalar tree_4_3_u03_r10_network.node[14].core_layer 	interests[14] 	11935
scalar tree_4_3_u03_r10_network.node[14].core_layer 	data[14] 	9336
scalar tree_4_3_u03_r10_network.node[14].content_store 	p_hit[14] 	0.21776288227901
scalar tree_4_3_u03_r10_network.node[14].content_store 	hits[14] 	2599
scalar tree_4_3_u03_r10_network.node[14].content_store 	misses[14] 	9336
scalar tree_4_3_u03_r10_network.node[14].content_store 	decision_yes[14] 	888
scalar tree_4_3_u03_r10_network.node[14].content_store 	decision_no[14] 	8448
scalar tree_4_3_u03_r10_network.node[14].content_store 	decision_ratio[14] 	0.095115681233933
scalar tree_4_3_u03_r10_network.node[15].core_layer 	interests[15] 	11788
scalar tree_4_3_u03_r10_network.node[15].core_layer 	data[15] 	9411
scalar tree_4_3_u03_r10_network.node[15].content_store 	p_hit[15] 	0.20156090939939
scalar tree_4_3_u03_r10_network.node[15].content_store 	hits[15] 	2376
scalar tree_4_3_u03_r10_network.node[15].content_store 	misses[15] 	9412
scalar tree_4_3_u03_r10_network.node[15].content_store 	decision_yes[15] 	970
scalar tree_4_3_u03_r10_network.node[15].content_store 	decision_no[15] 	8441
scalar tree_4_3_u03_r10_network.node[15].content_store 	decision_ratio[15] 	0.10307087450855
scalar tree_4_3_u03_r10_network.node[16].core_layer 	interests[16] 	11963
scalar tree_4_3_u03_r10_network.node[16].core_layer 	data[16] 	9409
scalar tree_4_3_u03_r10_network.node[16].content_store 	p_hit[16] 	0.21340800802474
scalar tree_4_3_u03_r10_network.node[16].content_store 	hits[16] 	2553
scalar tree_4_3_u03_r10_network.node[16].content_store 	misses[16] 	9410
scalar tree_4_3_u03_r10_network.node[16].content_store 	decision_yes[16] 	934
scalar tree_4_3_u03_r10_network.node[16].content_store 	decision_no[16] 	8475
scalar tree_4_3_u03_r10_network.node[16].content_store 	decision_ratio[16] 	0.099266659581252
scalar tree_4_3_u03_r10_network.node[17].core_layer 	interests[17] 	12231
scalar tree_4_3_u03_r10_network.node[17].core_layer 	data[17] 	9726
scalar tree_4_3_u03_r10_network.node[17].content_store 	p_hit[17] 	0.20488921592674
scalar tree_4_3_u03_r10_network.node[17].content_store 	hits[17] 	2506
scalar tree_4_3_u03_r10_network.node[17].content_store 	misses[17] 	9725
scalar tree_4_3_u03_r10_network.node[17].content_store 	decision_yes[17] 	998
scalar tree_4_3_u03_r10_network.node[17].content_store 	decision_no[17] 	8728
scalar tree_4_3_u03_r10_network.node[17].content_store 	decision_ratio[17] 	0.10261155665227
scalar tree_4_3_u03_r10_network.node[18].core_layer 	interests[18] 	11987
scalar tree_4_3_u03_r10_network.node[18].core_layer 	data[18] 	9410
scalar tree_4_3_u03_r10_network.node[18].content_store 	p_hit[18] 	0.21506632184867
scalar tree_4_3_u03_r10_network.node[18].content_store 	hits[18] 	2578
scalar tree_4_3_u03_r10_network.node[18].content_store 	misses[18] 	9409
scalar tree_4_3_u03_r10_network.node[18].content_store 	decision_yes[18] 	908
scalar tree_4_3_u03_r10_network.node[18].content_store 	decision_no[18] 	8502
scalar tree_4_3_u03_r10_network.node[18].content_store 	decision_ratio[18] 	0.096493092454835
scalar tree_4_3_u03_r10_network.node[19].core_layer 	interests[19] 	12106
scalar tree_4_3_u03_r10_network.node[19].core_layer 	data[19] 	9647
scalar tree_4_3_u03_r10_network.node[19].content_store 	p_hit[19] 	0.20312241863539
scalar tree_4_3_u03_r10_network.node[19].content_store 	hits[19] 	2459
scalar tree_4_3_u03_r10_network.node[19].content_store 	misses[19] 	9647
scalar tree_4_3_u03_r10_network.node[19].content_store 	decision_yes[19] 	983
scalar tree_4_3_u03_r10_network.node[19].content_store 	decision_no[19] 	8664
scalar tree_4_3_u03_r10_network.node[19].content_store 	decision_ratio[19] 	0.10189696278636
scalar tree_4_3_u03_r10_network.node[20].core_layer 	interests[20] 	11829
scalar tree_4_3_u03_r10_network.node[20].core_layer 	data[20] 	9406
scalar tree_4_3_u03_r10_network.node[20].content_store 	p_hit[20] 	0.20492011159016
scalar tree_4_3_u03_r10_network.node[20].content_store 	hits[20] 	2424
scalar tree_4_3_u03_r10_network.node[20].content_store 	misses[20] 	9405
scalar tree_4_3_u03_r10_network.node[20].content_store 	decision_yes[20] 	978
scalar tree_4_3_u03_r10_network.node[20].content_store 	decision_no[20] 	8428
scalar tree_4_3_u03_r10_network.node[20].content_store 	decision_ratio[20] 	0.10397618541357
scalar tree_4_3_u03_r10_network.node[21].core_layer 	interests[21] 	12131
scalar tree_4_3_u03_r10_network.node[21].core_layer 	data[21] 	9521
scalar tree_4_3_u03_r10_network.node[21].content_store 	p_hit[21] 	0.21515126535323
scalar tree_4_3_u03_r10_network.node[21].content_store 	hits[21] 	2610
scalar tree_4_3_u03_r10_network.node[21].content_store 	misses[21] 	9521
scalar tree_4_3_u03_r10_network.node[21].content_store 	decision_yes[21] 	952
scalar tree_4_3_u03_r10_network.node[21].content_store 	decision_no[21] 	8569
scalar tree_4_3_u03_r10_network.node[21].content_store 	decision_ratio[21] 	0.099989496901586
scalar tree_4_3_u03_r10_network.node[22].core_layer 	interests[22] 	11910
scalar tree_4_3_u03_r10_network.node[22].core_layer 	data[22] 	9382
scalar tree_4_3_u03_r10_network.node[22].content_store 	p_hit[22] 	0.21217464315701
scalar tree_4_3_u03_r10_network.node[22].content_store 	hits[22] 	2527
scalar tree_4_3_u03_r10_network.node[22].content_store 	misses[22] 	9383
scalar tree_4_3_u03_r10_network.node[22].content_store 	decision_yes[22] 	966
scalar tree_4_3_u03_r10_network.node[22].content_store 	decision_no[22] 	8416
scalar tree_4_3_u03_r10_network.node[22].content_store 	decision_ratio[22] 	0.10296312086975
scalar tree_4_3_u03_r10_network.node[23].core_layer 	interests[23] 	11942
scalar tree_4_3_u03_r10_network.node[23].core_layer 	data[23] 	9370
scalar tree_4_3_u03_r10_network.node[23].content_store 	p_hit[23] 	0.21545804722827
scalar tree_4_3_u03_r10_network.node[23].content_store 	hits[23] 	2573
scalar tree_4_3_u03_r10_network.node[23].content_store 	misses[23] 	9369
scalar tree_4_3_u03_r10_network.node[23].content_store 	decision_yes[23] 	919
scalar tree_4_3_u03_r10_network.node[23].content_store 	decision_no[23] 	8451
scalar tree_4_3_u03_r10_network.node[23].content_store 	decision_ratio[23] 	0.098078975453575
scalar tree_4_3_u03_r10_network.node[24].core_layer 	interests[24] 	11873
scalar tree_4_3_u03_r10_network.node[24].core_layer 	data[24] 	9534
scalar tree_4_3_u03_r10_network.node[24].content_store 	p_hit[24] 	0.19691737555799
scalar tree_4_3_u03_r10_network.node[24].content_store 	hits[24] 	2338
scalar tree_4_3_u03_r10_network.node[24].content_store 	misses[24] 	9535
scalar tree_4_3_u03_r10_network.node[24].content_store 	decision_yes[24] 	954
scalar tree_4_3_u03_r10_network.node[24].content_store 	decision_no[24] 	8580
scalar tree_4_3_u03_r10_network.node[24].content_store 	decision_ratio[24] 	0.10006293266205
scalar tree_4_3_u03_r10_network.node[25].core_layer 	interests[25] 	11820
scalar tree_4_3_u03_r10_network.node[25].core_layer 	data[25] 	9413
scalar tree_4_3_u03_r10_network.node[25].content_store 	p_hit[25] 	0.20363790186125
scalar tree_4_3_u03_r10_network.node[25].content_store 	hits[25] 	2407
scalar tree_4_3_u03_r10_network.node[25].content_store 	misses[25] 	9413
scalar tree_4_3_u03_r10_network.node[25].content_store 	decision_yes[25] 	929
scalar tree_4_3_u03_r10_network.node[25].content_store 	decision_no[25] 	8484
scalar tree_4_3_u03_r10_network.node[25].content_store 	decision_ratio[25] 	0.098693296504834
scalar tree_4_3_u03_r10_network.node[26].core_layer 	interests[26] 	12129
scalar tree_4_3_u03_r10_network.node[26].core_layer 	data[26] 	9523
scalar tree_4_3_u03_r10_network.node[26].content_store 	p_hit[26] 	0.21485695440679
scalar tree_4_3_u03_r10_network.node[26].content_store 	hits[26] 	2606
scalar tree_4_3_u03_r10_network.node[26].content_store 	misses[26] 	9523
scalar tree_4_3_u03_r10_network.node[26].content_store 	decision_yes[26] 	970
scalar tree_4_3_u03_r10_network.node[26].content_store 	decision_no[26] 	8553
scalar tree_4_3_u03_r10_network.node[26].content_store 	decision_ratio[26] 	0.10185865798593
scalar tree_4_3_u03_r10_network.node[27].core_layer 	interests[27] 	11958
scalar tree_4_3_u03_r10_network.node[27].core_layer 	data[27] 	9529
scalar tree_4_3_u03_r10_network.node[27].content_store 	p_hit[27] 	0.20312761331326
scalar tree_4_3_u03_r10_network.node[27].content_store 	hits[27] 	2429
scalar tree_4_3_u03_r10_network.node[27].content_store 	misses[27] 	9529
scalar tree_4_3_u03_r10_network.node[27].content_store 	decision_yes[27] 	953
scalar tree_4_3_u03_r10_network.node[27].content_store 	decision_no[27] 	8576
scalar tree_4_3_u03_r10_network.node[27].content_store 	decision_ratio[27] 	0.10001049428062
scalar tree_4_3_u03_r10_network.node[28].core_layer 	interests[28] 	11964
scalar tree_4_3_u03_r10_network.node[28].core_layer 	data[28] 	9379
scalar tree_4_3_u03_r10_network.node[28].content_store 	p_hit[28] 	0.21606486125042
scalar tree_4_3_u03_r10_network.node[28].content_store 	hits[28] 	2585
scalar tree_4_3_u03_r10_network.node[28].content_store 	misses[28] 	9379
scalar tree_4_3_u03_r10_network.node[28].content_store 	decision_yes[28] 	916
scalar tree_4_3_u03_r10_network.node[28].content_store 	decision_no[28] 	8463
scalar tree_4_3_u03_r10_network.node[28].content_store 	decision_ratio[28] 	0.097664996268259
scalar tree_4_3_u03_r10_network.node[29].core_layer 	interests[29] 	11837
scalar tree_4_3_u03_r10_network.node[29].core_layer 	data[29] 	9376
scalar tree_4_3_u03_r10_network.node[29].content_store 	p_hit[29] 	0.20782292810678
scalar tree_4_3_u03_r10_network.node[29].content_store 	hits[29] 	2460
scalar tree_4_3_u03_r10_network.node[29].content_store 	misses[29] 	9377
scalar tree_4_3_u03_r10_network.node[29].content_store 	decision_yes[29] 	903
scalar tree_4_3_u03_r10_network.node[29].content_store 	decision_no[29] 	8473
scalar tree_4_3_u03_r10_network.node[29].content_store 	decision_ratio[29] 	0.096309726962457
scalar tree_4_3_u03_r10_network.node[30].core_layer 	interests[30] 	12175
scalar tree_4_3_u03_r10_network.node[30].core_layer 	data[30] 	9706
scalar tree_4_3_u03_r10_network.node[30].content_store 	p_hit[30] 	0.20287474332649
scalar tree_4_3_u03_r10_network.node[30].content_store 	hits[30] 	2470
scalar tree_4_3_u03_r10_network.node[30].content_store 	misses[30] 	9705
scalar tree_4_3_u03_r10_network.node[30].content_store 	decision_yes[30] 	978
scalar tree_4_3_u03_r10_network.node[30].content_store 	decision_no[30] 	8728
scalar tree_4_3_u03_r10_network.node[30].content_store 	decision_ratio[30] 	0.10076241500103
scalar tree_4_3_u03_r10_network.node[31].core_layer 	interests[31] 	11998
scalar tree_4_3_u03_r10_network.node[31].core_layer 	data[31] 	9501
scalar tree_4_3_u03_r10_network.node[31].content_store 	p_hit[31] 	0.20803467244541
scalar tree_4_3_u03_r10_network.node[31].content_store 	hits[31] 	2496
scalar tree_4_3_u03_r10_network.node[31].content_store 	misses[31] 	9502
scalar tree_4_3_u03_r10_network.node[31].content_store 	decision_yes[31] 	940
scalar tree_4_3_u03_r10_network.node[31].content_store 	decision_no[31] 	8561
scalar tree_4_3_u03_r10_network.node[31].content_store 	decision_ratio[31] 	0.098936954004842
scalar tree_4_3_u03_r10_network.node[32].core_layer 	interests[32] 	11886
scalar tree_4_3_u03_r10_network.node[32].core_layer 	data[32] 	9362
scalar tree_4_3_u03_r10_network.node[32].content_store 	p_hit[32] 	0.21235066464748
scalar tree_4_3_u03_r10_network.node[32].content_store 	hits[32] 	2524
scalar tree_4_3_u03_r10_network.node[32].content_store 	misses[32] 	9362
scalar tree_4_3_u03_r10_network.node[32].content_store 	decision_yes[32] 	948
scalar tree_4_3_u03_r10_network.node[32].content_store 	decision_no[32] 	8414
scalar tree_4_3_u03_r10_network.node[32].content_store 	decision_ratio[32] 	0.10126041444136
scalar tree_4_3_u03_r10_network.node[33].core_layer 	interests[33] 	11938
scalar tree_4_3_u03_r10_network.node[33].core_layer 	data[33] 	9430
scalar tree_4_3_u03_r10_network.node[33].content_store 	p_hit[33] 	0.21008544144748
scalar tree_4_3_u03_r10_network.node[33].content_store 	hits[33] 	2508
scalar tree_4_3_u03_r10_network.node[33].content_store 	misses[33] 	9430
scalar tree_4_3_u03_r10_network.node[33].content_store 	decision_yes[33] 	950
scalar tree_4_3_u03_r10_network.node[33].content_store 	decision_no[33] 	8480
scalar tree_4_3_u03_r10_network.node[33].content_store 	decision_ratio[33] 	0.10074231177094
scalar tree_4_3_u03_r10_network.node[34].core_layer 	interests[34] 	11966
scalar tree_4_3_u03_r10_network.node[34].core_layer 	data[34] 	9593
scalar tree_4_3_u03_r10_network.node[34].content_store 	p_hit[34] 	0.1983118836704
scalar tree_4_3_u03_r10_network.node[34].content_store 	hits[34] 	2373
scalar tree_4_3_u03_r10_network.node[34].content_store 	misses[34] 	9593
scalar tree_4_3_u03_r10_network.node[34].content_store 	decision_yes[34] 	901
scalar tree_4_3_u03_r10_network.node[34].content_store 	decision_no[34] 	8692
scalar tree_4_3_u03_r10_network.node[34].content_store 	decision_ratio[34] 	0.093922651933702
scalar tree_4_3_u03_r10_network.node[35].core_layer 	interests[35] 	11999
scalar tree_4_3_u03_r10_network.node[35].core_layer 	data[35] 	9563
scalar tree_4_3_u03_r10_network.node[35].content_store 	p_hit[35] 	0.20301691807651
scalar tree_4_3_u03_r10_network.node[35].content_store 	hits[35] 	2436
scalar tree_4_3_u03_r10_network.node[35].content_store 	misses[35] 	9563
scalar tree_4_3_u03_r10_network.node[35].content_store 	decision_yes[35] 	980
scalar tree_4_3_u03_r10_network.node[35].content_store 	decision_no[35] 	8583
scalar tree_4_3_u03_r10_network.node[35].content_store 	decision_ratio[35] 	0.10247830178814
scalar tree_4_3_u03_r10_network.node[36].core_layer 	interests[36] 	11992
scalar tree_4_3_u03_r10_network.node[36].core_layer 	data[36] 	9409
scalar tree_4_3_u03_r10_network.node[36].content_store 	p_hit[36] 	0.21539359573049
scalar tree_4_3_u03_r10_network.node[36].content_store 	hits[36] 	2583
scalar tree_4_3_u03_r10_network.node[36].content_store 	misses[36] 	9409
scalar tree_4_3_u03_r10_network.node[36].content_store 	decision_yes[36] 	942
scalar tree_4_3_u03_r10_network.node[36].content_store 	decision_no[36] 	8467
scalar tree_4_3_u03_r10_network.node[36].content_store 	decision_ratio[36] 	0.10011690934212
scalar tree_4_3_u03_r10_network.node[37].core_layer 	interests[37] 	11954
scalar tree_4_3_u03_r10_network.node[37].core_layer 	data[37] 	9385
scalar tree_4_3_u03_r10_network.node[37].content_store 	p_hit[37] 	0.21482349004517
scalar tree_4_3_u03_r10_network.node[37].content_store 	hits[37] 	2568
scalar tree_4_3_u03_r10_network.node[37].content_store 	misses[37] 	9386
scalar tree_4_3_u03_r10_network.node[37].content_store 	decision_yes[37] 	946
scalar tree_4_3_u03_r10_network.node[37].content_store 	decision_no[37] 	8439
scalar tree_4_3_u03_r10_network.node[37].content_store 	decision_ratio[37] 	0.10079914757592
scalar tree_4_3_u03_r10_network.node[38].core_layer 	interests[38] 	12077
scalar tree_4_3_u03_r10_network.node[38].core_layer 	data[38] 	9598
scalar tree_4_3_u03_r10_network.node[38].content_store 	p_hit[38] 	0.20526620849549
scalar tree_4_3_u03_r10_network.node[38].content_store 	hits[38] 	2479
scalar tree_4_3_u03_r10_network.node[38].content_store 	misses[38] 	9598
scalar tree_4_3_u03_r10_network.node[38].content_store 	decision_yes[38] 	972
scalar tree_4_3_u03_r10_network.node[38].content_store 	decision_no[38] 	8626
scalar tree_4_3_u03_r10_network.node[38].content_store 	decision_ratio[38] 	0.10127109814545
scalar tree_4_3_u03_r10_network.node[39].core_layer 	interests[39] 	11867
scalar tree_4_3_u03_r10_network.node[39].core_layer 	data[39] 	9349
scalar tree_4_3_u03_r10_network.node[39].content_store 	p_hit[39] 	0.21218505098171
scalar tree_4_3_u03_r10_network.node[39].content_store 	hits[39] 	2518
scalar tree_4_3_u03_r10_network.node[39].content_store 	misses[39] 	9349
scalar tree_4_3_u03_r10_network.node[39].content_store 	decision_yes[39] 	943
scalar tree_4_3_u03_r10_network.node[39].content_store 	decision_no[39] 	8406
scalar tree_4_3_u03_r10_network.node[39].content_store 	decision_ratio[39] 	0.10086640282383
scalar tree_4_3_u03_r10_network.client[13] 	hdistance[13] 	3.0706778118017
scalar tree_4_3_u03_r10_network.client[13] 	downloads[13] 	12083
scalar tree_4_3_u03_r10_network.client[13] 	avg_time[13] 	0.00466092556
scalar tree_4_3_u03_r10_network.client[14] 	hdistance[14] 	2.9966485127776
scalar tree_4_3_u03_r10_network.client[14] 	downloads[14] 	11935
scalar tree_4_3_u03_r10_network.client[14] 	avg_time[14] 	0.00454763843
scalar tree_4_3_u03_r10_network.client[15] 	hdistance[15] 	3.0521761262408
scalar tree_4_3_u03_r10_network.client[15] 	downloads[15] 	11787
scalar tree_4_3_u03_r10_network.client[15] 	avg_time[15] 	0.004633429345
scalar tree_4_3_u03_r10_network.client[16] 	hdistance[16] 	3.0221534860391
scalar tree_4_3_u03_r10_network.client[16] 	downloads[16] 	11962
scalar tree_4_3_u03_r10_network.client[16] 	avg_time[16] 	0.004585925374
scalar tree_4_3_u03_r10_network.client[17] 	hdistance[17] 	3.0528940483976
scalar tree_4_3_u03_r10_network.client[17] 	downloads[17] 	12232
scalar tree_4_3_u03_r10_network.client[17] 	avg_time[17] 	0.004629820357
scalar tree_4_3_u03_r10_network.client[18] 	hdistance[18] 	3.016016016016
scalar tree_4_3_u03_r10_network.client[18] 	downloads[18] 	11988
scalar tree_4_3_u03_r10_network.client[18] 	avg_time[18] 	0.004573890433
scalar tree_4_3_u03_r10_network.client[19] 	hdistance[19] 	3.0512142739138
scalar tree_4_3_u03_r10_network.client[19] 	downloads[19] 	12106
scalar tree_4_3_u03_r10_network.client[19] 	avg_time[19] 	0.004627697278
scalar tree_4_3_u03_r10_network.client[20] 	hdistance[20] 	3.052493660186
scalar tree_4_3_u03_r10_network.client[20] 	downloads[20] 	11830
scalar tree_4_3_u03_r10_network.client[20] 	avg_time[20] 	0.004631949725
scalar tree_4_3_u03_r10_network.client[21] 	hdistance[21] 	2.9923336905449
scalar tree_4_3_u03_r10_network.client[21] 	downloads[21] 	12131
scalar tree_4_3_u03_r10_network.client[21] 	avg_time[21] 	0.00454389276
scalar tree_4_3_u03_r10_network.client[22] 	hdistance[22] 	3.0317407003107
scalar tree_4_3_u03_r10_network.client[22] 	downloads[22] 	11909
scalar tree_4_3_u03_r10_network.client[22] 	avg_time[22] 	0.004599712386
scalar tree_4_3_u03_r10_network.client[23] 	hdistance[23] 	3.0149041279411
scalar tree_4_3_u03_r10_network.client[23] 	downloads[23] 	11943
scalar tree_4_3_u03_r10_network.client[23] 	avg_time[23] 	0.004572195664
scalar tree_4_3_u03_r10_network.client[24] 	hdistance[24] 	3.0789252021563
scalar tree_4_3_u03_r10_network.client[24] 	downloads[24] 	11872
scalar tree_4_3_u03_r10_network.client[24] 	avg_time[24] 	0.004670166838
scalar tree_4_3_u03_r10_network.client[25] 	hdistance[25] 	3.0500846023689
scalar tree_4_3_u03_r10_network.client[25] 	downloads[25] 	11820
scalar tree_4_3_u03_r10_network.client[25] 	avg_time[25] 	0.004630961542
scalar tree_4_3_u03_r10_network.client[26] 	hdistance[26] 	3.0210239920851
scalar tree_4_3_u03_r10_network.client[26] 	downloads[26] 	12129
scalar tree_4_3_u03_r10_network.client[26] 	avg_time[26] 	0.004582768439
scalar tree_4_3_u03_r10_network.client[27] 	hdistance[27] 	3.0626358922897
scalar tree_4_3_u03_r10_network.client[27] 	downloads[27] 	11958
scalar tree_4_3_u03_r10_network.client[27] 	avg_time[27] 	0.004643917378
scalar tree_4_3_u03_r10_network.client[28] 	hdistance[28] 	3.0046807087931
scalar tree_4_3_u03_r10_network.client[28] 	downloads[28] 	11964
scalar tree_4_3_u03_r10_network.client[28] 	avg_time[28] 	0.004560917121
scalar tree_4_3_u03_r10_network.client[29] 	hdistance[29] 	3.0289793849273
scalar tree_4_3_u03_r10_network.client[29] 	downloads[29] 	11836
scalar tree_4_3_u03_r10_network.client[29] 	avg_time[29] 	0.004595389236
scalar tree_4_3_u03_r10_network.client[30] 	hdistance[30] 	3.0460742444152
scalar tree_4_3_u03_r10_network.client[30] 	downloads[30] 	12176
scalar tree_4_3_u03_r10_network.client[30] 	avg_time[30] 	0.004624298814
scalar tree_4_3_u03_r10_network.client[31] 	hdistance[31] 	3.0479286488289
scalar tree_4_3_u03_r10_network.client[31] 	downloads[31] 	11997
scalar tree_4_3_u03_r10_network.client[31] 	avg_time[31] 	0.004619880539
scalar tree_4_3_u03_r10_network.client[32] 	hdistance[32] 	3.0229681978799
scalar tree_4_3_u03_r10_network.client[32] 	downloads[32] 	11886
scalar tree_4_3_u03_r10_network.client[32] 	avg_time[32] 	0.004584420412
scalar tree_4_3_u03_r10_network.client[33] 	hdistance[33] 	3.0248785391188
scalar tree_4_3_u03_r10_network.client[33] 	downloads[33] 	11938
scalar tree_4_3_u03_r10_network.client[33] 	avg_time[33] 	0.00459171435
scalar tree_4_3_u03_r10_network.client[34] 	hdistance[34] 	3.0690289152599
scalar tree_4_3_u03_r10_network.client[34] 	downloads[34] 	11966
scalar tree_4_3_u03_r10_network.client[34] 	avg_time[34] 	0.004655353896
scalar tree_4_3_u03_r10_network.client[35] 	hdistance[35] 	3.0468372364364
scalar tree_4_3_u03_r10_network.client[35] 	downloads[35] 	11999
scalar tree_4_3_u03_r10_network.client[35] 	avg_time[35] 	0.004627882652
scalar tree_4_3_u03_r10_network.client[36] 	hdistance[36] 	3.0167611741161
scalar tree_4_3_u03_r10_network.client[36] 	downloads[36] 	11992
scalar tree_4_3_u03_r10_network.client[36] 	avg_time[36] 	0.00457489371
scalar tree_4_3_u03_r10_network.client[37] 	hdistance[37] 	3.015477286037
scalar tree_4_3_u03_r10_network.client[37] 	downloads[37] 	11953
scalar tree_4_3_u03_r10_network.client[37] 	avg_time[37] 	0.004573974075
scalar tree_4_3_u03_r10_network.client[38] 	hdistance[38] 	3.0473627556512
scalar tree_4_3_u03_r10_network.client[38] 	downloads[38] 	12077
scalar tree_4_3_u03_r10_network.client[38] 	avg_time[38] 	0.004623330624
scalar tree_4_3_u03_r10_network.client[39] 	hdistance[39] 	3.0189601415691
scalar tree_4_3_u03_r10_network.client[39] 	downloads[39] 	11867
scalar tree_4_3_u03_r10_network.client[39] 	avg_time[39] 	0.004578913396
