version 2
run General-66-20160820-03:44:08-14346
attr a 0.9
attr cd fix0.1
attr configname General
attr cr lru
attr datetime 20160820-03:44:08
attr experiment General
attr fsize 1
attr inifile hw5115/scenario_A/SPR-FIX0.1.ini
attr iterationvars "$name=tree_4_3, $un=03, $rep=7, $cd=fix0.1, $cr=lru, $fsize=1, $a=0.9, $sl=spr, $ttl=1000, $variance=0.05"
attr iterationvars2 "$name=tree_4_3, $un=03, $rep=7, $cd=fix0.1, $cr=lru, $fsize=1, $a=0.9, $sl=spr, $ttl=1000, $variance=0.05, $repetition=0"
attr measurement "$name=tree_4_3, $un=03, $rep=7, $cd=fix0.1, $cr=lru, $fsize=1, $a=0.9, $sl=spr, $ttl=1000, $variance=0.05"
attr name tree_4_3
attr network networks.${name}_u${un}_r${rep}_network
attr processid 14346
attr rep 7
attr repetition 0
attr replication #0
attr resultdir results
attr runnumber 66
attr seedset 7
attr sl spr
attr ttl 1000
attr un 03
attr variance 0.05

scalar . 	a 	0.9
scalar . 	fsize 	1
scalar . 	rep 	7
scalar . 	ttl 	1000
scalar . 	un 	03
scalar . 	variance 	0.05
scalar tree_4_3_u03_r7_network.content_distribution 	repo-0 	0
scalar tree_4_3_u03_r7_network.content_distribution 	client-0 	13
scalar tree_4_3_u03_r7_network.content_distribution 	client-1 	14
scalar tree_4_3_u03_r7_network.content_distribution 	client-2 	15
scalar tree_4_3_u03_r7_network.content_distribution 	client-3 	16
scalar tree_4_3_u03_r7_network.content_distribution 	client-4 	17
scalar tree_4_3_u03_r7_network.content_distribution 	client-5 	18
scalar tree_4_3_u03_r7_network.content_distribution 	client-6 	19
scalar tree_4_3_u03_r7_network.content_distribution 	client-7 	20
scalar tree_4_3_u03_r7_network.content_distribution 	client-8 	21
scalar tree_4_3_u03_r7_network.content_distribution 	client-9 	22
scalar tree_4_3_u03_r7_network.content_distribution 	client-10 	23
scalar tree_4_3_u03_r7_network.content_distribution 	client-11 	24
scalar tree_4_3_u03_r7_network.content_distribution 	client-12 	25
scalar tree_4_3_u03_r7_network.content_distribution 	client-13 	26
scalar tree_4_3_u03_r7_network.content_distribution 	client-14 	27
scalar tree_4_3_u03_r7_network.content_distribution 	client-15 	28
scalar tree_4_3_u03_r7_network.content_distribution 	client-16 	29
scalar tree_4_3_u03_r7_network.content_distribution 	client-17 	30
scalar tree_4_3_u03_r7_network.content_distribution 	client-18 	31
scalar tree_4_3_u03_r7_network.content_distribution 	client-19 	32
scalar tree_4_3_u03_r7_network.content_distribution 	client-20 	33
scalar tree_4_3_u03_r7_network.content_distribution 	client-21 	34
scalar tree_4_3_u03_r7_network.content_distribution 	client-22 	35
scalar tree_4_3_u03_r7_network.content_distribution 	client-23 	36
scalar tree_4_3_u03_r7_network.content_distribution 	client-24 	37
scalar tree_4_3_u03_r7_network.content_distribution 	client-25 	38
scalar tree_4_3_u03_r7_network.content_distribution 	client-26 	39
scalar tree_4_3_u03_r7_network.content_distribution 	repo-0_card 	100000
scalar tree_4_3_u03_r7_network.content_distribution 	repo-0_price 	0
scalar tree_4_3_u03_r7_network.statistics 	stabilization_time 	779.7
scalar tree_4_3_u03_r7_network.statistics 	p_hit 	0.15003503097543
scalar tree_4_3_u03_r7_network.statistics 	interests 	26767.1
scalar tree_4_3_u03_r7_network.statistics 	data 	18666.95
scalar tree_4_3_u03_r7_network.statistics 	hdistance 	3.0376241832417
scalar tree_4_3_u03_r7_network.statistics 	avg_time 	0.004609213057
scalar tree_4_3_u03_r7_network.statistics 	downloads 	324002
scalar tree_4_3_u03_r7_network.statistics 	total_cost 	0
scalar tree_4_3_u03_r7_network.statistics 	total_replicas 	100000
scalar tree_4_3_u03_r7_network.statistics 	inner_hit 	0.26707551187956
scalar tree_4_3_u03_r7_network.node[0].core_layer 	interests[0] 	241971
scalar tree_4_3_u03_r7_network.node[0].core_layer 	repo_load[0] 	237469
scalar tree_4_3_u03_r7_network.node[0].core_layer 	data[0] 	0
scalar tree_4_3_u03_r7_network.node[0].core_layer 	repo_int[0] 	237469
scalar tree_4_3_u03_r7_network.node[0].content_store 	p_hit[0] 	0.018605535374074
scalar tree_4_3_u03_r7_network.node[0].content_store 	hits[0] 	4502
scalar tree_4_3_u03_r7_network.node[0].content_store 	misses[0] 	237469
scalar tree_4_3_u03_r7_network.node[0].content_store 	decision_yes[0] 	23549
scalar tree_4_3_u03_r7_network.node[0].content_store 	decision_no[0] 	213920
scalar tree_4_3_u03_r7_network.node[0].content_store 	decision_ratio[0] 	0.099166628065137
scalar tree_4_3_u03_r7_network.node[1].core_layer 	interests[1] 	82903
scalar tree_4_3_u03_r7_network.node[1].core_layer 	data[1] 	80906
scalar tree_4_3_u03_r7_network.node[1].content_store 	p_hit[1] 	0.024052205589665
scalar tree_4_3_u03_r7_network.node[1].content_store 	hits[1] 	1994
scalar tree_4_3_u03_r7_network.node[1].content_store 	misses[1] 	80909
scalar tree_4_3_u03_r7_network.node[1].content_store 	decision_yes[1] 	8099
scalar tree_4_3_u03_r7_network.node[1].content_store 	decision_no[1] 	72807
scalar tree_4_3_u03_r7_network.node[1].content_store 	decision_ratio[1] 	0.10010382419104
scalar tree_4_3_u03_r7_network.node[2].core_layer 	interests[2] 	119283
scalar tree_4_3_u03_r7_network.node[2].core_layer 	data[2] 	116425
scalar tree_4_3_u03_r7_network.node[2].content_store 	p_hit[2] 	0.023926292933612
scalar tree_4_3_u03_r7_network.node[2].content_store 	hits[2] 	2854
scalar tree_4_3_u03_r7_network.node[2].content_store 	misses[2] 	116429
scalar tree_4_3_u03_r7_network.node[2].content_store 	decision_yes[2] 	11570
scalar tree_4_3_u03_r7_network.node[2].content_store 	decision_no[2] 	104855
scalar tree_4_3_u03_r7_network.node[2].content_store 	decision_ratio[2] 	0.099377281511703
scalar tree_4_3_u03_r7_network.node[3].core_layer 	interests[3] 	45744
scalar tree_4_3_u03_r7_network.node[3].core_layer 	data[3] 	44639
scalar tree_4_3_u03_r7_network.node[3].content_store 	p_hit[3] 	0.024134312696747
scalar tree_4_3_u03_r7_network.node[3].content_store 	hits[3] 	1104
scalar tree_4_3_u03_r7_network.node[3].content_store 	misses[3] 	44640
scalar tree_4_3_u03_r7_network.node[3].content_store 	decision_yes[3] 	4359
scalar tree_4_3_u03_r7_network.node[3].content_store 	decision_no[3] 	40280
scalar tree_4_3_u03_r7_network.node[3].content_store 	decision_ratio[3] 	0.097650036963194
scalar tree_4_3_u03_r7_network.node[4].core_layer 	interests[4] 	38057
scalar tree_4_3_u03_r7_network.node[4].core_layer 	data[4] 	36778
scalar tree_4_3_u03_r7_network.node[4].content_store 	p_hit[4] 	0.033476101637018
scalar tree_4_3_u03_r7_network.node[4].content_store 	hits[4] 	1274
scalar tree_4_3_u03_r7_network.node[4].content_store 	misses[4] 	36783
scalar tree_4_3_u03_r7_network.node[4].content_store 	decision_yes[4] 	3788
scalar tree_4_3_u03_r7_network.node[4].content_store 	decision_no[4] 	32990
scalar tree_4_3_u03_r7_network.node[4].content_store 	decision_ratio[4] 	0.10299635651748
scalar tree_4_3_u03_r7_network.node[5].core_layer 	interests[5] 	19128
scalar tree_4_3_u03_r7_network.node[5].core_layer 	data[5] 	18518
scalar tree_4_3_u03_r7_network.node[5].content_store 	p_hit[5] 	0.031942701798411
scalar tree_4_3_u03_r7_network.node[5].content_store 	hits[5] 	611
scalar tree_4_3_u03_r7_network.node[5].content_store 	misses[5] 	18517
scalar tree_4_3_u03_r7_network.node[5].content_store 	decision_yes[5] 	1872
scalar tree_4_3_u03_r7_network.node[5].content_store 	decision_no[5] 	16646
scalar tree_4_3_u03_r7_network.node[5].content_store 	decision_ratio[5] 	0.10109083054326
scalar tree_4_3_u03_r7_network.node[6].core_layer 	interests[6] 	28598
scalar tree_4_3_u03_r7_network.node[6].core_layer 	data[6] 	27608
scalar tree_4_3_u03_r7_network.node[6].content_store 	p_hit[6] 	0.034652772921183
scalar tree_4_3_u03_r7_network.node[6].content_store 	hits[6] 	991
scalar tree_4_3_u03_r7_network.node[6].content_store 	misses[6] 	27607
scalar tree_4_3_u03_r7_network.node[6].content_store 	decision_yes[6] 	2702
scalar tree_4_3_u03_r7_network.node[6].content_store 	decision_no[6] 	24906
scalar tree_4_3_u03_r7_network.node[6].content_store 	decision_ratio[6] 	0.097870182555781
scalar tree_4_3_u03_r7_network.node[7].core_layer 	interests[7] 	28520
scalar tree_4_3_u03_r7_network.node[7].core_layer 	data[7] 	27540
scalar tree_4_3_u03_r7_network.node[7].content_store 	p_hit[7] 	0.034361851332398
scalar tree_4_3_u03_r7_network.node[7].content_store 	hits[7] 	980
scalar tree_4_3_u03_r7_network.node[7].content_store 	misses[7] 	27540
scalar tree_4_3_u03_r7_network.node[7].content_store 	decision_yes[7] 	2744
scalar tree_4_3_u03_r7_network.node[7].content_store 	decision_no[7] 	24796
scalar tree_4_3_u03_r7_network.node[7].content_store 	decision_ratio[7] 	0.099636891793755
scalar tree_4_3_u03_r7_network.node[8].core_layer 	interests[8] 	28531
scalar tree_4_3_u03_r7_network.node[8].core_layer 	data[8] 	27503
scalar tree_4_3_u03_r7_network.node[8].content_store 	p_hit[8] 	0.036030983842137
scalar tree_4_3_u03_r7_network.node[8].content_store 	hits[8] 	1028
scalar tree_4_3_u03_r7_network.node[8].content_store 	misses[8] 	27503
scalar tree_4_3_u03_r7_network.node[8].content_store 	decision_yes[8] 	2716
scalar tree_4_3_u03_r7_network.node[8].content_store 	decision_no[8] 	24787
scalar tree_4_3_u03_r7_network.node[8].content_store 	decision_ratio[8] 	0.098752863324001
scalar tree_4_3_u03_r7_network.node[9].core_layer 	interests[9] 	28302
scalar tree_4_3_u03_r7_network.node[9].core_layer 	data[9] 	27398
scalar tree_4_3_u03_r7_network.node[9].content_store 	p_hit[9] 	0.03187053918451
scalar tree_4_3_u03_r7_network.node[9].content_store 	hits[9] 	902
scalar tree_4_3_u03_r7_network.node[9].content_store 	misses[9] 	27400
scalar tree_4_3_u03_r7_network.node[9].content_store 	decision_yes[9] 	2829
scalar tree_4_3_u03_r7_network.node[9].content_store 	decision_no[9] 	24569
scalar tree_4_3_u03_r7_network.node[9].content_store 	decision_ratio[9] 	0.10325571209577
scalar tree_4_3_u03_r7_network.node[10].core_layer 	interests[10] 	28395
scalar tree_4_3_u03_r7_network.node[10].core_layer 	data[10] 	27423
scalar tree_4_3_u03_r7_network.node[10].content_store 	p_hit[10] 	0.034231378763867
scalar tree_4_3_u03_r7_network.node[10].content_store 	hits[10] 	972
scalar tree_4_3_u03_r7_network.node[10].content_store 	misses[10] 	27423
scalar tree_4_3_u03_r7_network.node[10].content_store 	decision_yes[10] 	2758
scalar tree_4_3_u03_r7_network.node[10].content_store 	decision_no[10] 	24665
scalar tree_4_3_u03_r7_network.node[10].content_store 	decision_ratio[10] 	0.10057251212486
scalar tree_4_3_u03_r7_network.node[11].core_layer 	interests[11] 	38250
scalar tree_4_3_u03_r7_network.node[11].core_layer 	data[11] 	36842
scalar tree_4_3_u03_r7_network.node[11].content_store 	p_hit[11] 	0.03681045751634
scalar tree_4_3_u03_r7_network.node[11].content_store 	hits[11] 	1408
scalar tree_4_3_u03_r7_network.node[11].content_store 	misses[11] 	36842
scalar tree_4_3_u03_r7_network.node[11].content_store 	decision_yes[11] 	3742
scalar tree_4_3_u03_r7_network.node[11].content_store 	decision_no[11] 	33100
scalar tree_4_3_u03_r7_network.node[11].content_store 	decision_ratio[11] 	0.10156886162532
scalar tree_4_3_u03_r7_network.node[12].core_layer 	interests[12] 	18996
scalar tree_4_3_u03_r7_network.node[12].core_layer 	data[12] 	18321
scalar tree_4_3_u03_r7_network.node[12].content_store 	p_hit[12] 	0.035481153927143
scalar tree_4_3_u03_r7_network.node[12].content_store 	hits[12] 	674
scalar tree_4_3_u03_r7_network.node[12].content_store 	misses[12] 	18322
scalar tree_4_3_u03_r7_network.node[12].content_store 	decision_yes[12] 	1811
scalar tree_4_3_u03_r7_network.node[12].content_store 	decision_no[12] 	16510
scalar tree_4_3_u03_r7_network.node[12].content_store 	decision_ratio[12] 	0.098848316139949
scalar tree_4_3_u03_r7_network.node[13].core_layer 	interests[13] 	11928
scalar tree_4_3_u03_r7_network.node[13].core_layer 	data[13] 	9494
scalar tree_4_3_u03_r7_network.node[13].content_store 	p_hit[13] 	0.20397384305835
scalar tree_4_3_u03_r7_network.node[13].content_store 	hits[13] 	2433
scalar tree_4_3_u03_r7_network.node[13].content_store 	misses[13] 	9495
scalar tree_4_3_u03_r7_network.node[13].content_store 	decision_yes[13] 	895
scalar tree_4_3_u03_r7_network.node[13].content_store 	decision_no[13] 	8599
scalar tree_4_3_u03_r7_network.node[13].content_store 	decision_ratio[13] 	0.094270065304403
scalar tree_4_3_u03_r7_network.node[14].core_layer 	interests[14] 	12177
scalar tree_4_3_u03_r7_network.node[14].core_layer 	data[14] 	9632
scalar tree_4_3_u03_r7_network.node[14].content_store 	p_hit[14] 	0.20891845282089
scalar tree_4_3_u03_r7_network.node[14].content_store 	hits[14] 	2544
scalar tree_4_3_u03_r7_network.node[14].content_store 	misses[14] 	9633
scalar tree_4_3_u03_r7_network.node[14].content_store 	decision_yes[14] 	945
scalar tree_4_3_u03_r7_network.node[14].content_store 	decision_no[14] 	8687
scalar tree_4_3_u03_r7_network.node[14].content_store 	decision_ratio[14] 	0.098110465116279
scalar tree_4_3_u03_r7_network.node[15].core_layer 	interests[15] 	12113
scalar tree_4_3_u03_r7_network.node[15].core_layer 	data[15] 	9631
scalar tree_4_3_u03_r7_network.node[15].content_store 	p_hit[15] 	0.20473871047635
scalar tree_4_3_u03_r7_network.node[15].content_store 	hits[15] 	2480
scalar tree_4_3_u03_r7_network.node[15].content_store 	misses[15] 	9633
scalar tree_4_3_u03_r7_network.node[15].content_store 	decision_yes[15] 	947
scalar tree_4_3_u03_r7_network.node[15].content_store 	decision_no[15] 	8684
scalar tree_4_3_u03_r7_network.node[15].content_store 	decision_ratio[15] 	0.098328314816738
scalar tree_4_3_u03_r7_network.node[16].core_layer 	interests[16] 	11842
scalar tree_4_3_u03_r7_network.node[16].core_layer 	data[16] 	9298
scalar tree_4_3_u03_r7_network.node[16].content_store 	p_hit[16] 	0.21482857625401
scalar tree_4_3_u03_r7_network.node[16].content_store 	hits[16] 	2544
scalar tree_4_3_u03_r7_network.node[16].content_store 	misses[16] 	9298
scalar tree_4_3_u03_r7_network.node[16].content_store 	decision_yes[16] 	932
scalar tree_4_3_u03_r7_network.node[16].content_store 	decision_no[16] 	8366
scalar tree_4_3_u03_r7_network.node[16].content_store 	decision_ratio[16] 	0.10023661002366
scalar tree_4_3_u03_r7_network.node[17].core_layer 	interests[17] 	11973
scalar tree_4_3_u03_r7_network.node[17].core_layer 	data[17] 	9580
scalar tree_4_3_u03_r7_network.node[17].content_store 	p_hit[17] 	0.19986636599014
scalar tree_4_3_u03_r7_network.node[17].content_store 	hits[17] 	2393
scalar tree_4_3_u03_r7_network.node[17].content_store 	misses[17] 	9580
scalar tree_4_3_u03_r7_network.node[17].content_store 	decision_yes[17] 	976
scalar tree_4_3_u03_r7_network.node[17].content_store 	decision_no[17] 	8604
scalar tree_4_3_u03_r7_network.node[17].content_store 	decision_ratio[17] 	0.10187891440501
scalar tree_4_3_u03_r7_network.node[18].core_layer 	interests[18] 	11894
scalar tree_4_3_u03_r7_network.node[18].core_layer 	data[18] 	9549
scalar tree_4_3_u03_r7_network.node[18].content_store 	p_hit[18] 	0.19724230704557
scalar tree_4_3_u03_r7_network.node[18].content_store 	hits[18] 	2346
scalar tree_4_3_u03_r7_network.node[18].content_store 	misses[18] 	9548
scalar tree_4_3_u03_r7_network.node[18].content_store 	decision_yes[18] 	987
scalar tree_4_3_u03_r7_network.node[18].content_store 	decision_no[18] 	8562
scalar tree_4_3_u03_r7_network.node[18].content_store 	decision_ratio[18] 	0.1033616085454
scalar tree_4_3_u03_r7_network.node[19].core_layer 	interests[19] 	12024
scalar tree_4_3_u03_r7_network.node[19].core_layer 	data[19] 	9570
scalar tree_4_3_u03_r7_network.node[19].content_store 	p_hit[19] 	0.20409181636727
scalar tree_4_3_u03_r7_network.node[19].content_store 	hits[19] 	2454
scalar tree_4_3_u03_r7_network.node[19].content_store 	misses[19] 	9570
scalar tree_4_3_u03_r7_network.node[19].content_store 	decision_yes[19] 	912
scalar tree_4_3_u03_r7_network.node[19].content_store 	decision_no[19] 	8658
scalar tree_4_3_u03_r7_network.node[19].content_store 	decision_ratio[19] 	0.095297805642633
scalar tree_4_3_u03_r7_network.node[20].core_layer 	interests[20] 	11969
scalar tree_4_3_u03_r7_network.node[20].core_layer 	data[20] 	9429
scalar tree_4_3_u03_r7_network.node[20].content_store 	p_hit[20] 	0.21221488846186
scalar tree_4_3_u03_r7_network.node[20].content_store 	hits[20] 	2540
scalar tree_4_3_u03_r7_network.node[20].content_store 	misses[20] 	9429
scalar tree_4_3_u03_r7_network.node[20].content_store 	decision_yes[20] 	944
scalar tree_4_3_u03_r7_network.node[20].content_store 	decision_no[20] 	8485
scalar tree_4_3_u03_r7_network.node[20].content_store 	decision_ratio[20] 	0.10011666136388
scalar tree_4_3_u03_r7_network.node[21].core_layer 	interests[21] 	12097
scalar tree_4_3_u03_r7_network.node[21].core_layer 	data[21] 	9600
scalar tree_4_3_u03_r7_network.node[21].content_store 	p_hit[21] 	0.20649747871373
scalar tree_4_3_u03_r7_network.node[21].content_store 	hits[21] 	2498
scalar tree_4_3_u03_r7_network.node[21].content_store 	misses[21] 	9599
scalar tree_4_3_u03_r7_network.node[21].content_store 	decision_yes[21] 	951
scalar tree_4_3_u03_r7_network.node[21].content_store 	decision_no[21] 	8649
scalar tree_4_3_u03_r7_network.node[21].content_store 	decision_ratio[21] 	0.0990625
scalar tree_4_3_u03_r7_network.node[22].core_layer 	interests[22] 	12016
scalar tree_4_3_u03_r7_network.node[22].core_layer 	data[22] 	9519
scalar tree_4_3_u03_r7_network.node[22].content_store 	p_hit[22] 	0.20780625832224
scalar tree_4_3_u03_r7_network.node[22].content_store 	hits[22] 	2497
scalar tree_4_3_u03_r7_network.node[22].content_store 	misses[22] 	9519
scalar tree_4_3_u03_r7_network.node[22].content_store 	decision_yes[22] 	964
scalar tree_4_3_u03_r7_network.node[22].content_store 	decision_no[22] 	8555
scalar tree_4_3_u03_r7_network.node[22].content_store 	decision_ratio[22] 	0.10127114192667
scalar tree_4_3_u03_r7_network.node[23].core_layer 	interests[23] 	11916
scalar tree_4_3_u03_r7_network.node[23].core_layer 	data[23] 	9414
scalar tree_4_3_u03_r7_network.node[23].content_store 	p_hit[23] 	0.20996978851964
scalar tree_4_3_u03_r7_network.node[23].content_store 	hits[23] 	2502
scalar tree_4_3_u03_r7_network.node[23].content_store 	misses[23] 	9414
scalar tree_4_3_u03_r7_network.node[23].content_store 	decision_yes[23] 	925
scalar tree_4_3_u03_r7_network.node[23].content_store 	decision_no[23] 	8489
scalar tree_4_3_u03_r7_network.node[23].content_store 	decision_ratio[23] 	0.098257913745485
scalar tree_4_3_u03_r7_network.node[24].core_layer 	interests[24] 	12170
scalar tree_4_3_u03_r7_network.node[24].core_layer 	data[24] 	9587
scalar tree_4_3_u03_r7_network.node[24].content_store 	p_hit[24] 	0.21216105176664
scalar tree_4_3_u03_r7_network.node[24].content_store 	hits[24] 	2582
scalar tree_4_3_u03_r7_network.node[24].content_store 	misses[24] 	9588
scalar tree_4_3_u03_r7_network.node[24].content_store 	decision_yes[24] 	952
scalar tree_4_3_u03_r7_network.node[24].content_store 	decision_no[24] 	8635
scalar tree_4_3_u03_r7_network.node[24].content_store 	decision_ratio[24] 	0.099301136956295
scalar tree_4_3_u03_r7_network.node[25].core_layer 	interests[25] 	11998
scalar tree_4_3_u03_r7_network.node[25].core_layer 	data[25] 	9405
scalar tree_4_3_u03_r7_network.node[25].content_store 	p_hit[25] 	0.21611935322554
scalar tree_4_3_u03_r7_network.node[25].content_store 	hits[25] 	2593
scalar tree_4_3_u03_r7_network.node[25].content_store 	misses[25] 	9405
scalar tree_4_3_u03_r7_network.node[25].content_store 	decision_yes[25] 	926
scalar tree_4_3_u03_r7_network.node[25].content_store 	decision_no[25] 	8479
scalar tree_4_3_u03_r7_network.node[25].content_store 	decision_ratio[25] 	0.09845826687932
scalar tree_4_3_u03_r7_network.node[26].core_layer 	interests[26] 	12027
scalar tree_4_3_u03_r7_network.node[26].core_layer 	data[26] 	9435
scalar tree_4_3_u03_r7_network.node[26].content_store 	p_hit[26] 	0.21551509104515
scalar tree_4_3_u03_r7_network.node[26].content_store 	hits[26] 	2592
scalar tree_4_3_u03_r7_network.node[26].content_store 	misses[26] 	9435
scalar tree_4_3_u03_r7_network.node[26].content_store 	decision_yes[26] 	914
scalar tree_4_3_u03_r7_network.node[26].content_store 	decision_no[26] 	8521
scalar tree_4_3_u03_r7_network.node[26].content_store 	decision_ratio[26] 	0.096873343932167
scalar tree_4_3_u03_r7_network.node[27].core_layer 	interests[27] 	12143
scalar tree_4_3_u03_r7_network.node[27].core_layer 	data[27] 	9691
scalar tree_4_3_u03_r7_network.node[27].content_store 	p_hit[27] 	0.20200938812485
scalar tree_4_3_u03_r7_network.node[27].content_store 	hits[27] 	2453
scalar tree_4_3_u03_r7_network.node[27].content_store 	misses[27] 	9690
scalar tree_4_3_u03_r7_network.node[27].content_store 	decision_yes[27] 	935
scalar tree_4_3_u03_r7_network.node[27].content_store 	decision_no[27] 	8756
scalar tree_4_3_u03_r7_network.node[27].content_store 	decision_ratio[27] 	0.096481271282633
scalar tree_4_3_u03_r7_network.node[28].core_layer 	interests[28] 	11803
scalar tree_4_3_u03_r7_network.node[28].core_layer 	data[28] 	9525
scalar tree_4_3_u03_r7_network.node[28].content_store 	p_hit[28] 	0.19300177920868
scalar tree_4_3_u03_r7_network.node[28].content_store 	hits[28] 	2278
scalar tree_4_3_u03_r7_network.node[28].content_store 	misses[28] 	9525
scalar tree_4_3_u03_r7_network.node[28].content_store 	decision_yes[28] 	970
scalar tree_4_3_u03_r7_network.node[28].content_store 	decision_no[28] 	8555
scalar tree_4_3_u03_r7_network.node[28].content_store 	decision_ratio[28] 	0.10183727034121
scalar tree_4_3_u03_r7_network.node[29].core_layer 	interests[29] 	12034
scalar tree_4_3_u03_r7_network.node[29].core_layer 	data[29] 	9489
scalar tree_4_3_u03_r7_network.node[29].content_store 	p_hit[29] 	0.21148412830314
scalar tree_4_3_u03_r7_network.node[29].content_store 	hits[29] 	2545
scalar tree_4_3_u03_r7_network.node[29].content_store 	misses[29] 	9489
scalar tree_4_3_u03_r7_network.node[29].content_store 	decision_yes[29] 	913
scalar tree_4_3_u03_r7_network.node[29].content_store 	decision_no[29] 	8576
scalar tree_4_3_u03_r7_network.node[29].content_store 	decision_ratio[29] 	0.096216671935926
scalar tree_4_3_u03_r7_network.node[30].core_layer 	interests[30] 	11712
scalar tree_4_3_u03_r7_network.node[30].core_layer 	data[30] 	9288
scalar tree_4_3_u03_r7_network.node[30].content_store 	p_hit[30] 	0.20688183060109
scalar tree_4_3_u03_r7_network.node[30].content_store 	hits[30] 	2423
scalar tree_4_3_u03_r7_network.node[30].content_store 	misses[30] 	9289
scalar tree_4_3_u03_r7_network.node[30].content_store 	decision_yes[30] 	968
scalar tree_4_3_u03_r7_network.node[30].content_store 	decision_no[30] 	8320
scalar tree_4_3_u03_r7_network.node[30].content_store 	decision_ratio[30] 	0.10422049956934
scalar tree_4_3_u03_r7_network.node[31].core_layer 	interests[31] 	12022
scalar tree_4_3_u03_r7_network.node[31].core_layer 	data[31] 	9504
scalar tree_4_3_u03_r7_network.node[31].content_store 	p_hit[31] 	0.2094493428714
scalar tree_4_3_u03_r7_network.node[31].content_store 	hits[31] 	2518
scalar tree_4_3_u03_r7_network.node[31].content_store 	misses[31] 	9504
scalar tree_4_3_u03_r7_network.node[31].content_store 	decision_yes[31] 	986
scalar tree_4_3_u03_r7_network.node[31].content_store 	decision_no[31] 	8518
scalar tree_4_3_u03_r7_network.node[31].content_store 	decision_ratio[31] 	0.10374579124579
scalar tree_4_3_u03_r7_network.node[32].core_layer 	interests[32] 	12027
scalar tree_4_3_u03_r7_network.node[32].core_layer 	data[32] 	9450
scalar tree_4_3_u03_r7_network.node[32].content_store 	p_hit[32] 	0.21426789723123
scalar tree_4_3_u03_r7_network.node[32].content_store 	hits[32] 	2577
scalar tree_4_3_u03_r7_network.node[32].content_store 	misses[32] 	9450
scalar tree_4_3_u03_r7_network.node[32].content_store 	decision_yes[32] 	963
scalar tree_4_3_u03_r7_network.node[32].content_store 	decision_no[32] 	8487
scalar tree_4_3_u03_r7_network.node[32].content_store 	decision_ratio[32] 	0.10190476190476
scalar tree_4_3_u03_r7_network.node[33].core_layer 	interests[33] 	11961
scalar tree_4_3_u03_r7_network.node[33].core_layer 	data[33] 	9441
scalar tree_4_3_u03_r7_network.node[33].content_store 	p_hit[33] 	0.21068472535741
scalar tree_4_3_u03_r7_network.node[33].content_store 	hits[33] 	2520
scalar tree_4_3_u03_r7_network.node[33].content_store 	misses[33] 	9441
scalar tree_4_3_u03_r7_network.node[33].content_store 	decision_yes[33] 	938
scalar tree_4_3_u03_r7_network.node[33].content_store 	decision_no[33] 	8503
scalar tree_4_3_u03_r7_network.node[33].content_store 	decision_ratio[33] 	0.099353882004025
scalar tree_4_3_u03_r7_network.node[34].core_layer 	interests[34] 	12142
scalar tree_4_3_u03_r7_network.node[34].core_layer 	data[34] 	9668
scalar tree_4_3_u03_r7_network.node[34].content_store 	p_hit[34] 	0.20375555921594
scalar tree_4_3_u03_r7_network.node[34].content_store 	hits[34] 	2474
scalar tree_4_3_u03_r7_network.node[34].content_store 	misses[34] 	9668
scalar tree_4_3_u03_r7_network.node[34].content_store 	decision_yes[34] 	889
scalar tree_4_3_u03_r7_network.node[34].content_store 	decision_no[34] 	8779
scalar tree_4_3_u03_r7_network.node[34].content_store 	decision_ratio[34] 	0.091952834091849
scalar tree_4_3_u03_r7_network.node[35].core_layer 	interests[35] 	11944
scalar tree_4_3_u03_r7_network.node[35].core_layer 	data[35] 	9448
scalar tree_4_3_u03_r7_network.node[35].content_store 	p_hit[35] 	0.20897521768252
scalar tree_4_3_u03_r7_network.node[35].content_store 	hits[35] 	2496
scalar tree_4_3_u03_r7_network.node[35].content_store 	misses[35] 	9448
scalar tree_4_3_u03_r7_network.node[35].content_store 	decision_yes[35] 	958
scalar tree_4_3_u03_r7_network.node[35].content_store 	decision_no[35] 	8490
scalar tree_4_3_u03_r7_network.node[35].content_store 	decision_ratio[35] 	0.10139712108383
scalar tree_4_3_u03_r7_network.node[36].core_layer 	interests[36] 	12078
scalar tree_4_3_u03_r7_network.node[36].core_layer 	data[36] 	9630
scalar tree_4_3_u03_r7_network.node[36].content_store 	p_hit[36] 	0.20259976817354
scalar tree_4_3_u03_r7_network.node[36].content_store 	hits[36] 	2447
scalar tree_4_3_u03_r7_network.node[36].content_store 	misses[36] 	9631
scalar tree_4_3_u03_r7_network.node[36].content_store 	decision_yes[36] 	947
scalar tree_4_3_u03_r7_network.node[36].content_store 	decision_no[36] 	8683
scalar tree_4_3_u03_r7_network.node[36].content_store 	decision_ratio[36] 	0.098338525441329
scalar tree_4_3_u03_r7_network.node[37].core_layer 	interests[37] 	12046
scalar tree_4_3_u03_r7_network.node[37].core_layer 	data[37] 	9589
scalar tree_4_3_u03_r7_network.node[37].content_store 	p_hit[37] 	0.20396812219824
scalar tree_4_3_u03_r7_network.node[37].content_store 	hits[37] 	2457
scalar tree_4_3_u03_r7_network.node[37].content_store 	misses[37] 	9589
scalar tree_4_3_u03_r7_network.node[37].content_store 	decision_yes[37] 	999
scalar tree_4_3_u03_r7_network.node[37].content_store 	decision_no[37] 	8590
scalar tree_4_3_u03_r7_network.node[37].content_store 	decision_ratio[37] 	0.10418187506518
scalar tree_4_3_u03_r7_network.node[38].core_layer 	interests[38] 	11999
scalar tree_4_3_u03_r7_network.node[38].core_layer 	data[38] 	9504
scalar tree_4_3_u03_r7_network.node[38].content_store 	p_hit[38] 	0.20793399449954
scalar tree_4_3_u03_r7_network.node[38].content_store 	hits[38] 	2495
scalar tree_4_3_u03_r7_network.node[38].content_store 	misses[38] 	9504
scalar tree_4_3_u03_r7_network.node[38].content_store 	decision_yes[38] 	987
scalar tree_4_3_u03_r7_network.node[38].content_store 	decision_no[38] 	8517
scalar tree_4_3_u03_r7_network.node[38].content_store 	decision_ratio[38] 	0.10385101010101
scalar tree_4_3_u03_r7_network.node[39].core_layer 	interests[39] 	11951
scalar tree_4_3_u03_r7_network.node[39].core_layer 	data[39] 	9407
scalar tree_4_3_u03_r7_network.node[39].content_store 	p_hit[39] 	0.21286921596519
scalar tree_4_3_u03_r7_network.node[39].content_store 	hits[39] 	2544
scalar tree_4_3_u03_r7_network.node[39].content_store 	misses[39] 	9407
scalar tree_4_3_u03_r7_network.node[39].content_store 	decision_yes[39] 	935
scalar tree_4_3_u03_r7_network.node[39].content_store 	decision_no[39] 	8472
scalar tree_4_3_u03_r7_network.node[39].content_store 	decision_ratio[39] 	0.09939406824705
scalar tree_4_3_u03_r7_network.client[13] 	hdistance[13] 	3.050892932003
scalar tree_4_3_u03_r7_network.client[13] 	downloads[13] 	11927
scalar tree_4_3_u03_r7_network.client[13] 	avg_time[13] 	0.004629231045
scalar tree_4_3_u03_r7_network.client[14] 	hdistance[14] 	3.0372864651774
scalar tree_4_3_u03_r7_network.client[14] 	downloads[14] 	12176
scalar tree_4_3_u03_r7_network.client[14] 	avg_time[14] 	0.004607215886
scalar tree_4_3_u03_r7_network.client[15] 	hdistance[15] 	3.0465692345801
scalar tree_4_3_u03_r7_network.client[15] 	downloads[15] 	12111
scalar tree_4_3_u03_r7_network.client[15] 	avg_time[15] 	0.004622190523
scalar tree_4_3_u03_r7_network.client[16] 	hdistance[16] 	3.0126667792603
scalar tree_4_3_u03_r7_network.client[16] 	downloads[16] 	11842
scalar tree_4_3_u03_r7_network.client[16] 	avg_time[16] 	0.004570508782
scalar tree_4_3_u03_r7_network.client[17] 	hdistance[17] 	3.0734987054205
scalar tree_4_3_u03_r7_network.client[17] 	downloads[17] 	11973
scalar tree_4_3_u03_r7_network.client[17] 	avg_time[17] 	0.004659480856
scalar tree_4_3_u03_r7_network.client[18] 	hdistance[18] 	3.0868432114334
scalar tree_4_3_u03_r7_network.client[18] 	downloads[18] 	11895
scalar tree_4_3_u03_r7_network.client[18] 	avg_time[18] 	0.00468331929
scalar tree_4_3_u03_r7_network.client[19] 	hdistance[19] 	3.0395874916833
scalar tree_4_3_u03_r7_network.client[19] 	downloads[19] 	12024
scalar tree_4_3_u03_r7_network.client[19] 	avg_time[19] 	0.004613270474
scalar tree_4_3_u03_r7_network.client[20] 	hdistance[20] 	3.0304954465703
scalar tree_4_3_u03_r7_network.client[20] 	downloads[20] 	11969
scalar tree_4_3_u03_r7_network.client[20] 	avg_time[20] 	0.00459553546
scalar tree_4_3_u03_r7_network.client[21] 	hdistance[21] 	3.0380228136882
scalar tree_4_3_u03_r7_network.client[21] 	downloads[21] 	12098
scalar tree_4_3_u03_r7_network.client[21] 	avg_time[21] 	0.004613017937
scalar tree_4_3_u03_r7_network.client[22] 	hdistance[22] 	3.0203062583222
scalar tree_4_3_u03_r7_network.client[22] 	downloads[22] 	12016
scalar tree_4_3_u03_r7_network.client[22] 	avg_time[22] 	0.004586881151
scalar tree_4_3_u03_r7_network.client[23] 	hdistance[23] 	3.0380161127895
scalar tree_4_3_u03_r7_network.client[23] 	downloads[23] 	11916
scalar tree_4_3_u03_r7_network.client[23] 	avg_time[23] 	0.004609429732
scalar tree_4_3_u03_r7_network.client[24] 	hdistance[24] 	3.0224340537431
scalar tree_4_3_u03_r7_network.client[24] 	downloads[24] 	12169
scalar tree_4_3_u03_r7_network.client[24] 	avg_time[24] 	0.004583972326
scalar tree_4_3_u03_r7_network.client[25] 	hdistance[25] 	3.0036672778796
scalar tree_4_3_u03_r7_network.client[25] 	downloads[25] 	11998
scalar tree_4_3_u03_r7_network.client[25] 	avg_time[25] 	0.004556089707
scalar tree_4_3_u03_r7_network.client[26] 	hdistance[26] 	3.0053213602727
scalar tree_4_3_u03_r7_network.client[26] 	downloads[26] 	12027
scalar tree_4_3_u03_r7_network.client[26] 	avg_time[26] 	0.004562231969
scalar tree_4_3_u03_r7_network.client[27] 	hdistance[27] 	3.0480895915678
scalar tree_4_3_u03_r7_network.client[27] 	downloads[27] 	12144
scalar tree_4_3_u03_r7_network.client[27] 	avg_time[27] 	0.004625985069
scalar tree_4_3_u03_r7_network.client[28] 	hdistance[28] 	3.1063288994323
scalar tree_4_3_u03_r7_network.client[28] 	downloads[28] 	11803
scalar tree_4_3_u03_r7_network.client[28] 	avg_time[28] 	0.004710068626
scalar tree_4_3_u03_r7_network.client[29] 	hdistance[29] 	3.0248462689048
scalar tree_4_3_u03_r7_network.client[29] 	downloads[29] 	12034
scalar tree_4_3_u03_r7_network.client[29] 	avg_time[29] 	0.004589803126
scalar tree_4_3_u03_r7_network.client[30] 	hdistance[30] 	3.045000426949
scalar tree_4_3_u03_r7_network.client[30] 	downloads[30] 	11711
scalar tree_4_3_u03_r7_network.client[30] 	avg_time[30] 	0.004619648801
scalar tree_4_3_u03_r7_network.client[31] 	hdistance[31] 	3.0391781733489
scalar tree_4_3_u03_r7_network.client[31] 	downloads[31] 	12022
scalar tree_4_3_u03_r7_network.client[31] 	avg_time[31] 	0.004610211605
scalar tree_4_3_u03_r7_network.client[32] 	hdistance[32] 	3.009229234223
scalar tree_4_3_u03_r7_network.client[32] 	downloads[32] 	12027
scalar tree_4_3_u03_r7_network.client[32] 	avg_time[32] 	0.004566389279
scalar tree_4_3_u03_r7_network.client[33] 	hdistance[33] 	3.0155505392526
scalar tree_4_3_u03_r7_network.client[33] 	downloads[33] 	11961
scalar tree_4_3_u03_r7_network.client[33] 	avg_time[33] 	0.00458055046
scalar tree_4_3_u03_r7_network.client[34] 	hdistance[34] 	3.0410146598583
scalar tree_4_3_u03_r7_network.client[34] 	downloads[34] 	12142
scalar tree_4_3_u03_r7_network.client[34] 	avg_time[34] 	0.004614722729
scalar tree_4_3_u03_r7_network.client[35] 	hdistance[35] 	3.0292196918955
scalar tree_4_3_u03_r7_network.client[35] 	downloads[35] 	11944
scalar tree_4_3_u03_r7_network.client[35] 	avg_time[35] 	0.004595944743
scalar tree_4_3_u03_r7_network.client[36] 	hdistance[36] 	3.0510060445475
scalar tree_4_3_u03_r7_network.client[36] 	downloads[36] 	12077
scalar tree_4_3_u03_r7_network.client[36] 	avg_time[36] 	0.004630280673
scalar tree_4_3_u03_r7_network.client[37] 	hdistance[37] 	3.0505562012286
scalar tree_4_3_u03_r7_network.client[37] 	downloads[37] 	12046
scalar tree_4_3_u03_r7_network.client[37] 	avg_time[37] 	0.004631077834
scalar tree_4_3_u03_r7_network.client[38] 	hdistance[38] 	3.0366697224769
scalar tree_4_3_u03_r7_network.client[38] 	downloads[38] 	11999
scalar tree_4_3_u03_r7_network.client[38] 	avg_time[38] 	0.004610214536
scalar tree_4_3_u03_r7_network.client[39] 	hdistance[39] 	3.0135553510167
scalar tree_4_3_u03_r7_network.client[39] 	downloads[39] 	11951
scalar tree_4_3_u03_r7_network.client[39] 	avg_time[39] 	0.004571479945
