version 2
run General-57-20160819-15:42:29-23511
attr a 0.9
attr cd lce
attr configname General
attr cr lru
attr datetime 20160819-15:42:29
attr experiment General
attr fsize 1
attr inifile hw5115/scenario_A/NRR-LCE.ini
attr iterationvars "$name=tree_4_3, $un=02, $rep=18, $cd=lce, $cr=lru, $fsize=1, $a=0.9, $sl=nrr, $ttl=1000, $variance=0.05"
attr iterationvars2 "$name=tree_4_3, $un=02, $rep=18, $cd=lce, $cr=lru, $fsize=1, $a=0.9, $sl=nrr, $ttl=1000, $variance=0.05, $repetition=0"
attr measurement "$name=tree_4_3, $un=02, $rep=18, $cd=lce, $cr=lru, $fsize=1, $a=0.9, $sl=nrr, $ttl=1000, $variance=0.05"
attr name tree_4_3
attr network networks.${name}_u${un}_r${rep}_network
attr processid 23511
attr rep 18
attr repetition 0
attr replication #0
attr resultdir results
attr runnumber 57
attr seedset 18
attr sl nrr
attr ttl 1000
attr un 02
attr variance 0.05

scalar . 	a 	0.9
scalar . 	fsize 	1
scalar . 	rep 	18
scalar . 	ttl 	1000
scalar . 	un 	02
scalar . 	variance 	0.05
scalar tree_4_3_u02_r18_network.content_distribution 	repo-0 	0
scalar tree_4_3_u02_r18_network.content_distribution 	client-0 	13
scalar tree_4_3_u02_r18_network.content_distribution 	client-1 	14
scalar tree_4_3_u02_r18_network.content_distribution 	client-2 	15
scalar tree_4_3_u02_r18_network.content_distribution 	client-3 	16
scalar tree_4_3_u02_r18_network.content_distribution 	client-4 	17
scalar tree_4_3_u02_r18_network.content_distribution 	client-5 	18
scalar tree_4_3_u02_r18_network.content_distribution 	client-6 	19
scalar tree_4_3_u02_r18_network.content_distribution 	client-7 	20
scalar tree_4_3_u02_r18_network.content_distribution 	client-8 	21
scalar tree_4_3_u02_r18_network.content_distribution 	client-9 	22
scalar tree_4_3_u02_r18_network.content_distribution 	client-10 	23
scalar tree_4_3_u02_r18_network.content_distribution 	client-11 	24
scalar tree_4_3_u02_r18_network.content_distribution 	client-12 	25
scalar tree_4_3_u02_r18_network.content_distribution 	client-13 	26
scalar tree_4_3_u02_r18_network.content_distribution 	client-14 	27
scalar tree_4_3_u02_r18_network.content_distribution 	client-15 	28
scalar tree_4_3_u02_r18_network.content_distribution 	client-16 	29
scalar tree_4_3_u02_r18_network.content_distribution 	client-17 	30
scalar tree_4_3_u02_r18_network.content_distribution 	client-18 	31
scalar tree_4_3_u02_r18_network.content_distribution 	client-19 	32
scalar tree_4_3_u02_r18_network.content_distribution 	client-20 	33
scalar tree_4_3_u02_r18_network.content_distribution 	client-21 	34
scalar tree_4_3_u02_r18_network.content_distribution 	client-22 	35
scalar tree_4_3_u02_r18_network.content_distribution 	client-23 	36
scalar tree_4_3_u02_r18_network.content_distribution 	client-24 	37
scalar tree_4_3_u02_r18_network.content_distribution 	client-25 	38
scalar tree_4_3_u02_r18_network.content_distribution 	client-26 	39
scalar tree_4_3_u02_r18_network.content_distribution 	repo-0_card 	100000
scalar tree_4_3_u02_r18_network.content_distribution 	repo-0_price 	0
scalar tree_4_3_u02_r18_network.statistics 	stabilization_time 	418.6
scalar tree_4_3_u02_r18_network.statistics 	p_hit 	0.17277382045955
scalar tree_4_3_u02_r18_network.statistics 	interests 	27654.225
scalar tree_4_3_u02_r18_network.statistics 	data 	19559.7
scalar tree_4_3_u02_r18_network.statistics 	hdistance 	3.1002915633298
scalar tree_4_3_u02_r18_network.statistics 	avg_time 	0.004832845341
scalar tree_4_3_u02_r18_network.statistics 	downloads 	323766
scalar tree_4_3_u02_r18_network.statistics 	total_cost 	0
scalar tree_4_3_u02_r18_network.statistics 	total_replicas 	100000
scalar tree_4_3_u02_r18_network.statistics 	inner_hit 	0.31611719575249
scalar tree_4_3_u02_r18_network.node[0].core_layer 	interests[0] 	223168
scalar tree_4_3_u02_r18_network.node[0].core_layer 	repo_load[0] 	221418
scalar tree_4_3_u02_r18_network.node[0].core_layer 	data[0] 	0
scalar tree_4_3_u02_r18_network.node[0].core_layer 	repo_int[0] 	221418
scalar tree_4_3_u02_r18_network.node[0].content_store 	p_hit[0] 	0.0078416260395756
scalar tree_4_3_u02_r18_network.node[0].content_store 	hits[0] 	1750
scalar tree_4_3_u02_r18_network.node[0].content_store 	misses[0] 	221418
scalar tree_4_3_u02_r18_network.node[0].content_store 	decision_yes[0] 	221418
scalar tree_4_3_u02_r18_network.node[0].content_store 	decision_no[0] 	0
scalar tree_4_3_u02_r18_network.node[0].content_store 	decision_ratio[0] 	1
scalar tree_4_3_u02_r18_network.node[1].core_layer 	interests[1] 	81209
scalar tree_4_3_u02_r18_network.node[1].core_layer 	data[1] 	80269
scalar tree_4_3_u02_r18_network.node[1].content_store 	p_hit[1] 	0.011550443916315
scalar tree_4_3_u02_r18_network.node[1].content_store 	hits[1] 	938
scalar tree_4_3_u02_r18_network.node[1].content_store 	misses[1] 	80271
scalar tree_4_3_u02_r18_network.node[1].content_store 	decision_yes[1] 	80260
scalar tree_4_3_u02_r18_network.node[1].content_store 	decision_no[1] 	0
scalar tree_4_3_u02_r18_network.node[1].content_store 	decision_ratio[1] 	1
scalar tree_4_3_u02_r18_network.node[2].core_layer 	interests[2] 	81395
scalar tree_4_3_u02_r18_network.node[2].core_layer 	data[2] 	80456
scalar tree_4_3_u02_r18_network.node[2].content_store 	p_hit[2] 	0.011524049388783
scalar tree_4_3_u02_r18_network.node[2].content_store 	hits[2] 	938
scalar tree_4_3_u02_r18_network.node[2].content_store 	misses[2] 	80457
scalar tree_4_3_u02_r18_network.node[2].content_store 	decision_yes[2] 	80451
scalar tree_4_3_u02_r18_network.node[2].content_store 	decision_no[2] 	0
scalar tree_4_3_u02_r18_network.node[2].content_store 	decision_ratio[2] 	1
scalar tree_4_3_u02_r18_network.node[3].core_layer 	interests[3] 	79166
scalar tree_4_3_u02_r18_network.node[3].core_layer 	data[3] 	78478
scalar tree_4_3_u02_r18_network.node[3].content_store 	p_hit[3] 	0.0087032311851047
scalar tree_4_3_u02_r18_network.node[3].content_store 	hits[3] 	689
scalar tree_4_3_u02_r18_network.node[3].content_store 	misses[3] 	78477
scalar tree_4_3_u02_r18_network.node[3].content_store 	decision_yes[3] 	78471
scalar tree_4_3_u02_r18_network.node[3].content_store 	decision_no[3] 	0
scalar tree_4_3_u02_r18_network.node[3].content_store 	decision_ratio[3] 	1
scalar tree_4_3_u02_r18_network.node[4].core_layer 	interests[4] 	31282
scalar tree_4_3_u02_r18_network.node[4].core_layer 	data[4] 	29899
scalar tree_4_3_u02_r18_network.node[4].content_store 	p_hit[4] 	0.044178760948788
scalar tree_4_3_u02_r18_network.node[4].content_store 	hits[4] 	1382
scalar tree_4_3_u02_r18_network.node[4].content_store 	misses[4] 	29900
scalar tree_4_3_u02_r18_network.node[4].content_store 	decision_yes[4] 	29895
scalar tree_4_3_u02_r18_network.node[4].content_store 	decision_no[4] 	0
scalar tree_4_3_u02_r18_network.node[4].content_store 	decision_ratio[4] 	1
scalar tree_4_3_u02_r18_network.node[5].core_layer 	interests[5] 	32792
scalar tree_4_3_u02_r18_network.node[5].core_layer 	data[5] 	30819
scalar tree_4_3_u02_r18_network.node[5].content_store 	p_hit[5] 	0.060167113930227
scalar tree_4_3_u02_r18_network.node[5].content_store 	hits[5] 	1973
scalar tree_4_3_u02_r18_network.node[5].content_store 	misses[5] 	30819
scalar tree_4_3_u02_r18_network.node[5].content_store 	decision_yes[5] 	30818
scalar tree_4_3_u02_r18_network.node[5].content_store 	decision_no[5] 	0
scalar tree_4_3_u02_r18_network.node[5].content_store 	decision_ratio[5] 	1
scalar tree_4_3_u02_r18_network.node[6].core_layer 	interests[6] 	32079
scalar tree_4_3_u02_r18_network.node[6].core_layer 	data[6] 	30596
scalar tree_4_3_u02_r18_network.node[6].content_store 	p_hit[6] 	0.046136101499423
scalar tree_4_3_u02_r18_network.node[6].content_store 	hits[6] 	1480
scalar tree_4_3_u02_r18_network.node[6].content_store 	misses[6] 	30599
scalar tree_4_3_u02_r18_network.node[6].content_store 	decision_yes[6] 	30593
scalar tree_4_3_u02_r18_network.node[6].content_store 	decision_no[6] 	0
scalar tree_4_3_u02_r18_network.node[6].content_store 	decision_ratio[6] 	1
scalar tree_4_3_u02_r18_network.node[7].core_layer 	interests[7] 	42025
scalar tree_4_3_u02_r18_network.node[7].core_layer 	data[7] 	40324
scalar tree_4_3_u02_r18_network.node[7].content_store 	p_hit[7] 	0.040452111838192
scalar tree_4_3_u02_r18_network.node[7].content_store 	hits[7] 	1700
scalar tree_4_3_u02_r18_network.node[7].content_store 	misses[7] 	40325
scalar tree_4_3_u02_r18_network.node[7].content_store 	decision_yes[7] 	40322
scalar tree_4_3_u02_r18_network.node[7].content_store 	decision_no[7] 	0
scalar tree_4_3_u02_r18_network.node[7].content_store 	decision_ratio[7] 	1
scalar tree_4_3_u02_r18_network.node[8].core_layer 	interests[8] 	32271
scalar tree_4_3_u02_r18_network.node[8].core_layer 	data[8] 	30710
scalar tree_4_3_u02_r18_network.node[8].content_store 	p_hit[8] 	0.048278640265254
scalar tree_4_3_u02_r18_network.node[8].content_store 	hits[8] 	1558
scalar tree_4_3_u02_r18_network.node[8].content_store 	misses[8] 	30713
scalar tree_4_3_u02_r18_network.node[8].content_store 	decision_yes[8] 	30708
scalar tree_4_3_u02_r18_network.node[8].content_store 	decision_no[8] 	0
scalar tree_4_3_u02_r18_network.node[8].content_store 	decision_ratio[8] 	1
scalar tree_4_3_u02_r18_network.node[9].core_layer 	interests[9] 	22186
scalar tree_4_3_u02_r18_network.node[9].core_layer 	data[9] 	20438
scalar tree_4_3_u02_r18_network.node[9].content_store 	p_hit[9] 	0.078743351663211
scalar tree_4_3_u02_r18_network.node[9].content_store 	hits[9] 	1747
scalar tree_4_3_u02_r18_network.node[9].content_store 	misses[9] 	20439
scalar tree_4_3_u02_r18_network.node[9].content_store 	decision_yes[9] 	20438
scalar tree_4_3_u02_r18_network.node[9].content_store 	decision_no[9] 	0
scalar tree_4_3_u02_r18_network.node[9].content_store 	decision_ratio[9] 	1
scalar tree_4_3_u02_r18_network.node[10].core_layer 	interests[10] 	40316
scalar tree_4_3_u02_r18_network.node[10].core_layer 	data[10] 	38887
scalar tree_4_3_u02_r18_network.node[10].content_store 	p_hit[10] 	0.03542018057347
scalar tree_4_3_u02_r18_network.node[10].content_store 	hits[10] 	1428
scalar tree_4_3_u02_r18_network.node[10].content_store 	misses[10] 	38888
scalar tree_4_3_u02_r18_network.node[10].content_store 	decision_yes[10] 	38883
scalar tree_4_3_u02_r18_network.node[10].content_store 	decision_no[10] 	0
scalar tree_4_3_u02_r18_network.node[10].content_store 	decision_ratio[10] 	1
scalar tree_4_3_u02_r18_network.node[11].core_layer 	interests[11] 	41209
scalar tree_4_3_u02_r18_network.node[11].core_layer 	data[11] 	39676
scalar tree_4_3_u02_r18_network.node[11].content_store 	p_hit[11] 	0.037103545342037
scalar tree_4_3_u02_r18_network.node[11].content_store 	hits[11] 	1529
scalar tree_4_3_u02_r18_network.node[11].content_store 	misses[11] 	39680
scalar tree_4_3_u02_r18_network.node[11].content_store 	decision_yes[11] 	39672
scalar tree_4_3_u02_r18_network.node[11].content_store 	decision_no[11] 	0
scalar tree_4_3_u02_r18_network.node[11].content_store 	decision_ratio[11] 	1
scalar tree_4_3_u02_r18_network.node[12].core_layer 	interests[12] 	13140
scalar tree_4_3_u02_r18_network.node[12].core_layer 	data[12] 	10571
scalar tree_4_3_u02_r18_network.node[12].content_store 	p_hit[12] 	0.1955098934551
scalar tree_4_3_u02_r18_network.node[12].content_store 	hits[12] 	2569
scalar tree_4_3_u02_r18_network.node[12].content_store 	misses[12] 	10571
scalar tree_4_3_u02_r18_network.node[12].content_store 	decision_yes[12] 	10570
scalar tree_4_3_u02_r18_network.node[12].content_store 	decision_no[12] 	0
scalar tree_4_3_u02_r18_network.node[12].content_store 	decision_ratio[12] 	1
scalar tree_4_3_u02_r18_network.node[13].core_layer 	interests[13] 	12955
scalar tree_4_3_u02_r18_network.node[13].core_layer 	data[13] 	10151
scalar tree_4_3_u02_r18_network.node[13].content_store 	p_hit[13] 	0.21620995754535
scalar tree_4_3_u02_r18_network.node[13].content_store 	hits[13] 	2801
scalar tree_4_3_u02_r18_network.node[13].content_store 	misses[13] 	10154
scalar tree_4_3_u02_r18_network.node[13].content_store 	decision_yes[13] 	10151
scalar tree_4_3_u02_r18_network.node[13].content_store 	decision_no[13] 	0
scalar tree_4_3_u02_r18_network.node[13].content_store 	decision_ratio[13] 	1
scalar tree_4_3_u02_r18_network.node[14].core_layer 	interests[14] 	14031
scalar tree_4_3_u02_r18_network.node[14].core_layer 	data[14] 	9991
scalar tree_4_3_u02_r18_network.node[14].content_store 	p_hit[14] 	0.28786258997933
scalar tree_4_3_u02_r18_network.node[14].content_store 	hits[14] 	4039
scalar tree_4_3_u02_r18_network.node[14].content_store 	misses[14] 	9992
scalar tree_4_3_u02_r18_network.node[14].content_store 	decision_yes[14] 	9991
scalar tree_4_3_u02_r18_network.node[14].content_store 	decision_no[14] 	0
scalar tree_4_3_u02_r18_network.node[14].content_store 	decision_ratio[14] 	1
scalar tree_4_3_u02_r18_network.node[15].core_layer 	interests[15] 	12877
scalar tree_4_3_u02_r18_network.node[15].core_layer 	data[15] 	10107
scalar tree_4_3_u02_r18_network.node[15].content_store 	p_hit[15] 	0.21511221557816
scalar tree_4_3_u02_r18_network.node[15].content_store 	hits[15] 	2770
scalar tree_4_3_u02_r18_network.node[15].content_store 	misses[15] 	10107
scalar tree_4_3_u02_r18_network.node[15].content_store 	decision_yes[15] 	10107
scalar tree_4_3_u02_r18_network.node[15].content_store 	decision_no[15] 	0
scalar tree_4_3_u02_r18_network.node[15].content_store 	decision_ratio[15] 	1
scalar tree_4_3_u02_r18_network.node[16].core_layer 	interests[16] 	13041
scalar tree_4_3_u02_r18_network.node[16].core_layer 	data[16] 	10106
scalar tree_4_3_u02_r18_network.node[16].content_store 	p_hit[16] 	0.22505942795798
scalar tree_4_3_u02_r18_network.node[16].content_store 	hits[16] 	2935
scalar tree_4_3_u02_r18_network.node[16].content_store 	misses[16] 	10106
scalar tree_4_3_u02_r18_network.node[16].content_store 	decision_yes[16] 	10106
scalar tree_4_3_u02_r18_network.node[16].content_store 	decision_no[16] 	0
scalar tree_4_3_u02_r18_network.node[16].content_store 	decision_ratio[16] 	1
scalar tree_4_3_u02_r18_network.node[17].core_layer 	interests[17] 	12935
scalar tree_4_3_u02_r18_network.node[17].core_layer 	data[17] 	9999
scalar tree_4_3_u02_r18_network.node[17].content_store 	p_hit[17] 	0.22682643989177
scalar tree_4_3_u02_r18_network.node[17].content_store 	hits[17] 	2934
scalar tree_4_3_u02_r18_network.node[17].content_store 	misses[17] 	10001
scalar tree_4_3_u02_r18_network.node[17].content_store 	decision_yes[17] 	9999
scalar tree_4_3_u02_r18_network.node[17].content_store 	decision_no[17] 	0
scalar tree_4_3_u02_r18_network.node[17].content_store 	decision_ratio[17] 	1
scalar tree_4_3_u02_r18_network.node[18].core_layer 	interests[18] 	12962
scalar tree_4_3_u02_r18_network.node[18].core_layer 	data[18] 	9940
scalar tree_4_3_u02_r18_network.node[18].content_store 	p_hit[18] 	0.23314303348249
scalar tree_4_3_u02_r18_network.node[18].content_store 	hits[18] 	3022
scalar tree_4_3_u02_r18_network.node[18].content_store 	misses[18] 	9940
scalar tree_4_3_u02_r18_network.node[18].content_store 	decision_yes[18] 	9940
scalar tree_4_3_u02_r18_network.node[18].content_store 	decision_no[18] 	0
scalar tree_4_3_u02_r18_network.node[18].content_store 	decision_ratio[18] 	1
scalar tree_4_3_u02_r18_network.node[19].core_layer 	interests[19] 	12954
scalar tree_4_3_u02_r18_network.node[19].core_layer 	data[19] 	9910
scalar tree_4_3_u02_r18_network.node[19].content_store 	p_hit[19] 	0.23483094025012
scalar tree_4_3_u02_r18_network.node[19].content_store 	hits[19] 	3042
scalar tree_4_3_u02_r18_network.node[19].content_store 	misses[19] 	9912
scalar tree_4_3_u02_r18_network.node[19].content_store 	decision_yes[19] 	9910
scalar tree_4_3_u02_r18_network.node[19].content_store 	decision_no[19] 	0
scalar tree_4_3_u02_r18_network.node[19].content_store 	decision_ratio[19] 	1
scalar tree_4_3_u02_r18_network.node[20].core_layer 	interests[20] 	13080
scalar tree_4_3_u02_r18_network.node[20].core_layer 	data[20] 	10120
scalar tree_4_3_u02_r18_network.node[20].content_store 	p_hit[20] 	0.22614678899083
scalar tree_4_3_u02_r18_network.node[20].content_store 	hits[20] 	2958
scalar tree_4_3_u02_r18_network.node[20].content_store 	misses[20] 	10122
scalar tree_4_3_u02_r18_network.node[20].content_store 	decision_yes[20] 	10120
scalar tree_4_3_u02_r18_network.node[20].content_store 	decision_no[20] 	0
scalar tree_4_3_u02_r18_network.node[20].content_store 	decision_ratio[20] 	1
scalar tree_4_3_u02_r18_network.node[21].core_layer 	interests[21] 	13004
scalar tree_4_3_u02_r18_network.node[21].core_layer 	data[21] 	9988
scalar tree_4_3_u02_r18_network.node[21].content_store 	p_hit[21] 	0.23192863734236
scalar tree_4_3_u02_r18_network.node[21].content_store 	hits[21] 	3016
scalar tree_4_3_u02_r18_network.node[21].content_store 	misses[21] 	9988
scalar tree_4_3_u02_r18_network.node[21].content_store 	decision_yes[21] 	9988
scalar tree_4_3_u02_r18_network.node[21].content_store 	decision_no[21] 	0
scalar tree_4_3_u02_r18_network.node[21].content_store 	decision_ratio[21] 	1
scalar tree_4_3_u02_r18_network.node[22].core_layer 	interests[22] 	13204
scalar tree_4_3_u02_r18_network.node[22].core_layer 	data[22] 	10028
scalar tree_4_3_u02_r18_network.node[22].content_store 	p_hit[22] 	0.24053317176613
scalar tree_4_3_u02_r18_network.node[22].content_store 	hits[22] 	3176
scalar tree_4_3_u02_r18_network.node[22].content_store 	misses[22] 	10028
scalar tree_4_3_u02_r18_network.node[22].content_store 	decision_yes[22] 	10028
scalar tree_4_3_u02_r18_network.node[22].content_store 	decision_no[22] 	0
scalar tree_4_3_u02_r18_network.node[22].content_store 	decision_ratio[22] 	1
scalar tree_4_3_u02_r18_network.node[23].core_layer 	interests[23] 	13168
scalar tree_4_3_u02_r18_network.node[23].core_layer 	data[23] 	10138
scalar tree_4_3_u02_r18_network.node[23].content_store 	p_hit[23] 	0.23010328068044
scalar tree_4_3_u02_r18_network.node[23].content_store 	hits[23] 	3030
scalar tree_4_3_u02_r18_network.node[23].content_store 	misses[23] 	10138
scalar tree_4_3_u02_r18_network.node[23].content_store 	decision_yes[23] 	10138
scalar tree_4_3_u02_r18_network.node[23].content_store 	decision_no[23] 	0
scalar tree_4_3_u02_r18_network.node[23].content_store 	decision_ratio[23] 	1
scalar tree_4_3_u02_r18_network.node[24].core_layer 	interests[24] 	13229
scalar tree_4_3_u02_r18_network.node[24].core_layer 	data[24] 	10155
scalar tree_4_3_u02_r18_network.node[24].content_store 	p_hit[24] 	0.23236828180513
scalar tree_4_3_u02_r18_network.node[24].content_store 	hits[24] 	3074
scalar tree_4_3_u02_r18_network.node[24].content_store 	misses[24] 	10155
scalar tree_4_3_u02_r18_network.node[24].content_store 	decision_yes[24] 	10155
scalar tree_4_3_u02_r18_network.node[24].content_store 	decision_no[24] 	0
scalar tree_4_3_u02_r18_network.node[24].content_store 	decision_ratio[24] 	1
scalar tree_4_3_u02_r18_network.node[25].core_layer 	interests[25] 	13300
scalar tree_4_3_u02_r18_network.node[25].core_layer 	data[25] 	10288
scalar tree_4_3_u02_r18_network.node[25].content_store 	p_hit[25] 	0.22646616541353
scalar tree_4_3_u02_r18_network.node[25].content_store 	hits[25] 	3012
scalar tree_4_3_u02_r18_network.node[25].content_store 	misses[25] 	10288
scalar tree_4_3_u02_r18_network.node[25].content_store 	decision_yes[25] 	10288
scalar tree_4_3_u02_r18_network.node[25].content_store 	decision_no[25] 	0
scalar tree_4_3_u02_r18_network.node[25].content_store 	decision_ratio[25] 	1
scalar tree_4_3_u02_r18_network.node[26].core_layer 	interests[26] 	13089
scalar tree_4_3_u02_r18_network.node[26].core_layer 	data[26] 	10025
scalar tree_4_3_u02_r18_network.node[26].content_store 	p_hit[26] 	0.23408969363588
scalar tree_4_3_u02_r18_network.node[26].content_store 	hits[26] 	3064
scalar tree_4_3_u02_r18_network.node[26].content_store 	misses[26] 	10025
scalar tree_4_3_u02_r18_network.node[26].content_store 	decision_yes[26] 	10025
scalar tree_4_3_u02_r18_network.node[26].content_store 	decision_no[26] 	0
scalar tree_4_3_u02_r18_network.node[26].content_store 	decision_ratio[26] 	1
scalar tree_4_3_u02_r18_network.node[27].core_layer 	interests[27] 	12880
scalar tree_4_3_u02_r18_network.node[27].core_layer 	data[27] 	9823
scalar tree_4_3_u02_r18_network.node[27].content_store 	p_hit[27] 	0.23726708074534
scalar tree_4_3_u02_r18_network.node[27].content_store 	hits[27] 	3056
scalar tree_4_3_u02_r18_network.node[27].content_store 	misses[27] 	9824
scalar tree_4_3_u02_r18_network.node[27].content_store 	decision_yes[27] 	9823
scalar tree_4_3_u02_r18_network.node[27].content_store 	decision_no[27] 	0
scalar tree_4_3_u02_r18_network.node[27].content_store 	decision_ratio[27] 	1
scalar tree_4_3_u02_r18_network.node[28].core_layer 	interests[28] 	14236
scalar tree_4_3_u02_r18_network.node[28].core_layer 	data[28] 	10090
scalar tree_4_3_u02_r18_network.node[28].content_store 	p_hit[28] 	0.29130373700478
scalar tree_4_3_u02_r18_network.node[28].content_store 	hits[28] 	4147
scalar tree_4_3_u02_r18_network.node[28].content_store 	misses[28] 	10089
scalar tree_4_3_u02_r18_network.node[28].content_store 	decision_yes[28] 	10090
scalar tree_4_3_u02_r18_network.node[28].content_store 	decision_no[28] 	0
scalar tree_4_3_u02_r18_network.node[28].content_store 	decision_ratio[28] 	1
scalar tree_4_3_u02_r18_network.node[29].core_layer 	interests[29] 	12668
scalar tree_4_3_u02_r18_network.node[29].core_layer 	data[29] 	10032
scalar tree_4_3_u02_r18_network.node[29].content_store 	p_hit[29] 	0.20808335964635
scalar tree_4_3_u02_r18_network.node[29].content_store 	hits[29] 	2636
scalar tree_4_3_u02_r18_network.node[29].content_store 	misses[29] 	10032
scalar tree_4_3_u02_r18_network.node[29].content_store 	decision_yes[29] 	10032
scalar tree_4_3_u02_r18_network.node[29].content_store 	decision_no[29] 	0
scalar tree_4_3_u02_r18_network.node[29].content_store 	decision_ratio[29] 	1
scalar tree_4_3_u02_r18_network.node[30].core_layer 	interests[30] 	12602
scalar tree_4_3_u02_r18_network.node[30].core_layer 	data[30] 	9970
scalar tree_4_3_u02_r18_network.node[30].content_store 	p_hit[30] 	0.20885573718457
scalar tree_4_3_u02_r18_network.node[30].content_store 	hits[30] 	2632
scalar tree_4_3_u02_r18_network.node[30].content_store 	misses[30] 	9970
scalar tree_4_3_u02_r18_network.node[30].content_store 	decision_yes[30] 	9970
scalar tree_4_3_u02_r18_network.node[30].content_store 	decision_no[30] 	0
scalar tree_4_3_u02_r18_network.node[30].content_store 	decision_ratio[30] 	1
scalar tree_4_3_u02_r18_network.node[31].core_layer 	interests[31] 	13095
scalar tree_4_3_u02_r18_network.node[31].core_layer 	data[31] 	10122
scalar tree_4_3_u02_r18_network.node[31].content_store 	p_hit[31] 	0.22695685376098
scalar tree_4_3_u02_r18_network.node[31].content_store 	hits[31] 	2972
scalar tree_4_3_u02_r18_network.node[31].content_store 	misses[31] 	10123
scalar tree_4_3_u02_r18_network.node[31].content_store 	decision_yes[31] 	10122
scalar tree_4_3_u02_r18_network.node[31].content_store 	decision_no[31] 	0
scalar tree_4_3_u02_r18_network.node[31].content_store 	decision_ratio[31] 	1
scalar tree_4_3_u02_r18_network.node[32].core_layer 	interests[32] 	12919
scalar tree_4_3_u02_r18_network.node[32].core_layer 	data[32] 	10036
scalar tree_4_3_u02_r18_network.node[32].content_store 	p_hit[32] 	0.22308228191036
scalar tree_4_3_u02_r18_network.node[32].content_store 	hits[32] 	2882
scalar tree_4_3_u02_r18_network.node[32].content_store 	misses[32] 	10037
scalar tree_4_3_u02_r18_network.node[32].content_store 	decision_yes[32] 	10036
scalar tree_4_3_u02_r18_network.node[32].content_store 	decision_no[32] 	0
scalar tree_4_3_u02_r18_network.node[32].content_store 	decision_ratio[32] 	1
scalar tree_4_3_u02_r18_network.node[33].core_layer 	interests[33] 	13433
scalar tree_4_3_u02_r18_network.node[33].core_layer 	data[33] 	10004
scalar tree_4_3_u02_r18_network.node[33].content_store 	p_hit[33] 	0.25526688007147
scalar tree_4_3_u02_r18_network.node[33].content_store 	hits[33] 	3429
scalar tree_4_3_u02_r18_network.node[33].content_store 	misses[33] 	10004
scalar tree_4_3_u02_r18_network.node[33].content_store 	decision_yes[33] 	10004
scalar tree_4_3_u02_r18_network.node[33].content_store 	decision_no[33] 	0
scalar tree_4_3_u02_r18_network.node[33].content_store 	decision_ratio[33] 	1
scalar tree_4_3_u02_r18_network.node[34].core_layer 	interests[34] 	13041
scalar tree_4_3_u02_r18_network.node[34].core_layer 	data[34] 	10024
scalar tree_4_3_u02_r18_network.node[34].content_store 	p_hit[34] 	0.2313472893183
scalar tree_4_3_u02_r18_network.node[34].content_store 	hits[34] 	3017
scalar tree_4_3_u02_r18_network.node[34].content_store 	misses[34] 	10024
scalar tree_4_3_u02_r18_network.node[34].content_store 	decision_yes[34] 	10024
scalar tree_4_3_u02_r18_network.node[34].content_store 	decision_no[34] 	0
scalar tree_4_3_u02_r18_network.node[34].content_store 	decision_ratio[34] 	1
scalar tree_4_3_u02_r18_network.node[35].core_layer 	interests[35] 	12942
scalar tree_4_3_u02_r18_network.node[35].core_layer 	data[35] 	10023
scalar tree_4_3_u02_r18_network.node[35].content_store 	p_hit[35] 	0.22554473806212
scalar tree_4_3_u02_r18_network.node[35].content_store 	hits[35] 	2919
scalar tree_4_3_u02_r18_network.node[35].content_store 	misses[35] 	10023
scalar tree_4_3_u02_r18_network.node[35].content_store 	decision_yes[35] 	10023
scalar tree_4_3_u02_r18_network.node[35].content_store 	decision_no[35] 	0
scalar tree_4_3_u02_r18_network.node[35].content_store 	decision_ratio[35] 	1
scalar tree_4_3_u02_r18_network.node[36].core_layer 	interests[36] 	13119
scalar tree_4_3_u02_r18_network.node[36].core_layer 	data[36] 	10215
scalar tree_4_3_u02_r18_network.node[36].content_store 	p_hit[36] 	0.22112965927281
scalar tree_4_3_u02_r18_network.node[36].content_store 	hits[36] 	2901
scalar tree_4_3_u02_r18_network.node[36].content_store 	misses[36] 	10218
scalar tree_4_3_u02_r18_network.node[36].content_store 	decision_yes[36] 	10215
scalar tree_4_3_u02_r18_network.node[36].content_store 	decision_no[36] 	0
scalar tree_4_3_u02_r18_network.node[36].content_store 	decision_ratio[36] 	1
scalar tree_4_3_u02_r18_network.node[37].core_layer 	interests[37] 	13369
scalar tree_4_3_u02_r18_network.node[37].core_layer 	data[37] 	9974
scalar tree_4_3_u02_r18_network.node[37].content_store 	p_hit[37] 	0.25387089535493
scalar tree_4_3_u02_r18_network.node[37].content_store 	hits[37] 	3394
scalar tree_4_3_u02_r18_network.node[37].content_store 	misses[37] 	9975
scalar tree_4_3_u02_r18_network.node[37].content_store 	decision_yes[37] 	9974
scalar tree_4_3_u02_r18_network.node[37].content_store 	decision_no[37] 	0
scalar tree_4_3_u02_r18_network.node[37].content_store 	decision_ratio[37] 	1
scalar tree_4_3_u02_r18_network.node[38].core_layer 	interests[38] 	13845
scalar tree_4_3_u02_r18_network.node[38].core_layer 	data[38] 	10118
scalar tree_4_3_u02_r18_network.node[38].content_store 	p_hit[38] 	0.26919465511015
scalar tree_4_3_u02_r18_network.node[38].content_store 	hits[38] 	3727
scalar tree_4_3_u02_r18_network.node[38].content_store 	misses[38] 	10118
scalar tree_4_3_u02_r18_network.node[38].content_store 	decision_yes[38] 	10118
scalar tree_4_3_u02_r18_network.node[38].content_store 	decision_no[38] 	0
scalar tree_4_3_u02_r18_network.node[38].content_store 	decision_ratio[38] 	1
scalar tree_4_3_u02_r18_network.node[39].core_layer 	interests[39] 	11953
scalar tree_4_3_u02_r18_network.node[39].core_layer 	data[39] 	9888
scalar tree_4_3_u02_r18_network.node[39].content_store 	p_hit[39] 	0.17275997657492
scalar tree_4_3_u02_r18_network.node[39].content_store 	hits[39] 	2065
scalar tree_4_3_u02_r18_network.node[39].content_store 	misses[39] 	9888
scalar tree_4_3_u02_r18_network.node[39].content_store 	decision_yes[39] 	9888
scalar tree_4_3_u02_r18_network.node[39].content_store 	decision_no[39] 	0
scalar tree_4_3_u02_r18_network.node[39].content_store 	decision_ratio[39] 	1
scalar tree_4_3_u02_r18_network.client[13] 	hdistance[13] 	3.1418610442434
scalar tree_4_3_u02_r18_network.client[13] 	downloads[13] 	12047
scalar tree_4_3_u02_r18_network.client[13] 	avg_time[13] 	0.004921337407
scalar tree_4_3_u02_r18_network.client[14] 	hdistance[14] 	3.0365365365365
scalar tree_4_3_u02_r18_network.client[14] 	downloads[14] 	11988
scalar tree_4_3_u02_r18_network.client[14] 	avg_time[14] 	0.00469326795
scalar tree_4_3_u02_r18_network.client[15] 	hdistance[15] 	3.1610855949896
scalar tree_4_3_u02_r18_network.client[15] 	downloads[15] 	11975
scalar tree_4_3_u02_r18_network.client[15] 	avg_time[15] 	0.004939955264
scalar tree_4_3_u02_r18_network.client[16] 	hdistance[16] 	3.1175144074167
scalar tree_4_3_u02_r18_network.client[16] 	downloads[16] 	11973
scalar tree_4_3_u02_r18_network.client[16] 	avg_time[16] 	0.00485950431
scalar tree_4_3_u02_r18_network.client[17] 	hdistance[17] 	3.1057700360104
scalar tree_4_3_u02_r18_network.client[17] 	downloads[17] 	11941
scalar tree_4_3_u02_r18_network.client[17] 	avg_time[17] 	0.004839428205
scalar tree_4_3_u02_r18_network.client[18] 	hdistance[18] 	3.0888720411086
scalar tree_4_3_u02_r18_network.client[18] 	downloads[18] 	11871
scalar tree_4_3_u02_r18_network.client[18] 	avg_time[18] 	0.004816440478
scalar tree_4_3_u02_r18_network.client[19] 	hdistance[19] 	3.1330128205128
scalar tree_4_3_u02_r18_network.client[19] 	downloads[19] 	11856
scalar tree_4_3_u02_r18_network.client[19] 	avg_time[19] 	0.004896996208
scalar tree_4_3_u02_r18_network.client[20] 	hdistance[20] 	3.1450811526996
scalar tree_4_3_u02_r18_network.client[20] 	downloads[20] 	12076
scalar tree_4_3_u02_r18_network.client[20] 	avg_time[20] 	0.004913600386
scalar tree_4_3_u02_r18_network.client[21] 	hdistance[21] 	3.1191964657831
scalar tree_4_3_u02_r18_network.client[21] 	downloads[21] 	11997
scalar tree_4_3_u02_r18_network.client[21] 	avg_time[21] 	0.004876216064
scalar tree_4_3_u02_r18_network.client[22] 	hdistance[22] 	3.0869130869131
scalar tree_4_3_u02_r18_network.client[22] 	downloads[22] 	12012
scalar tree_4_3_u02_r18_network.client[22] 	avg_time[22] 	0.004807373498
scalar tree_4_3_u02_r18_network.client[23] 	hdistance[23] 	3.1267429239375
scalar tree_4_3_u02_r18_network.client[23] 	downloads[23] 	11977
scalar tree_4_3_u02_r18_network.client[23] 	avg_time[23] 	0.004880017013
scalar tree_4_3_u02_r18_network.client[24] 	hdistance[24] 	3.0877149674977
scalar tree_4_3_u02_r18_network.client[24] 	downloads[24] 	12153
scalar tree_4_3_u02_r18_network.client[24] 	avg_time[24] 	0.004813536483
scalar tree_4_3_u02_r18_network.client[25] 	hdistance[25] 	3.1462298831795
scalar tree_4_3_u02_r18_network.client[25] 	downloads[25] 	12241
scalar tree_4_3_u02_r18_network.client[25] 	avg_time[25] 	0.004914260208
scalar tree_4_3_u02_r18_network.client[26] 	hdistance[26] 	3.11500747881
scalar tree_4_3_u02_r18_network.client[26] 	downloads[26] 	12034
scalar tree_4_3_u02_r18_network.client[26] 	avg_time[26] 	0.004872026257
scalar tree_4_3_u02_r18_network.client[27] 	hdistance[27] 	3.098917822117
scalar tree_4_3_u02_r18_network.client[27] 	downloads[27] 	11828
scalar tree_4_3_u02_r18_network.client[27] 	avg_time[27] 	0.004849930322
scalar tree_4_3_u02_r18_network.client[28] 	hdistance[28] 	3.0265275952694
scalar tree_4_3_u02_r18_network.client[28] 	downloads[28] 	12176
scalar tree_4_3_u02_r18_network.client[28] 	avg_time[28] 	0.004679530444
scalar tree_4_3_u02_r18_network.client[29] 	hdistance[29] 	3.1300792657489
scalar tree_4_3_u02_r18_network.client[29] 	downloads[29] 	11985
scalar tree_4_3_u02_r18_network.client[29] 	avg_time[29] 	0.004896716306
scalar tree_4_3_u02_r18_network.client[30] 	hdistance[30] 	3.1368031615236
scalar tree_4_3_u02_r18_network.client[30] 	downloads[30] 	11893
scalar tree_4_3_u02_r18_network.client[30] 	avg_time[30] 	0.004913475541
scalar tree_4_3_u02_r18_network.client[31] 	hdistance[31] 	3.0968995452666
scalar tree_4_3_u02_r18_network.client[31] 	downloads[31] 	12095
scalar tree_4_3_u02_r18_network.client[31] 	avg_time[31] 	0.004829633745
scalar tree_4_3_u02_r18_network.client[32] 	hdistance[32] 	3.1065841211411
scalar tree_4_3_u02_r18_network.client[32] 	downloads[32] 	11953
scalar tree_4_3_u02_r18_network.client[32] 	avg_time[32] 	0.004841439081
scalar tree_4_3_u02_r18_network.client[33] 	hdistance[33] 	3.0107715430862
scalar tree_4_3_u02_r18_network.client[33] 	downloads[33] 	11976
scalar tree_4_3_u02_r18_network.client[33] 	avg_time[33] 	0.004663497479
scalar tree_4_3_u02_r18_network.client[34] 	hdistance[34] 	3.0814098825098
scalar tree_4_3_u02_r18_network.client[34] 	downloads[34] 	12001
scalar tree_4_3_u02_r18_network.client[34] 	avg_time[34] 	0.004815429024
scalar tree_4_3_u02_r18_network.client[35] 	hdistance[35] 	3.1086428032526
scalar tree_4_3_u02_r18_network.client[35] 	downloads[35] 	11929
scalar tree_4_3_u02_r18_network.client[35] 	avg_time[35] 	0.004848517423
scalar tree_4_3_u02_r18_network.client[36] 	hdistance[36] 	3.137582781457
scalar tree_4_3_u02_r18_network.client[36] 	downloads[36] 	12080
scalar tree_4_3_u02_r18_network.client[36] 	avg_time[36] 	0.004892861641
scalar tree_4_3_u02_r18_network.client[37] 	hdistance[37] 	3.027983816588
scalar tree_4_3_u02_r18_network.client[37] 	downloads[37] 	11864
scalar tree_4_3_u02_r18_network.client[37] 	avg_time[37] 	0.004692343631
scalar tree_4_3_u02_r18_network.client[38] 	hdistance[38] 	3.0199917389509
scalar tree_4_3_u02_r18_network.client[38] 	downloads[38] 	12105
scalar tree_4_3_u02_r18_network.client[38] 	avg_time[38] 	0.004664978337
scalar tree_4_3_u02_r18_network.client[39] 	hdistance[39] 	3.1141396933561
scalar tree_4_3_u02_r18_network.client[39] 	downloads[39] 	11740
scalar tree_4_3_u02_r18_network.client[39] 	avg_time[39] 	0.004854511528
