version 2
run General-52-20160819-15:37:00-23511
attr a 0.9
attr cd lce
attr configname General
attr cr lru
attr datetime 20160819-15:37:00
attr experiment General
attr fsize 1
attr inifile hw5115/scenario_A/NRR-LCE.ini
attr iterationvars "$name=tree_4_3, $un=02, $rep=13, $cd=lce, $cr=lru, $fsize=1, $a=0.9, $sl=nrr, $ttl=1000, $variance=0.05"
attr iterationvars2 "$name=tree_4_3, $un=02, $rep=13, $cd=lce, $cr=lru, $fsize=1, $a=0.9, $sl=nrr, $ttl=1000, $variance=0.05, $repetition=0"
attr measurement "$name=tree_4_3, $un=02, $rep=13, $cd=lce, $cr=lru, $fsize=1, $a=0.9, $sl=nrr, $ttl=1000, $variance=0.05"
attr name tree_4_3
attr network networks.${name}_u${un}_r${rep}_network
attr processid 23511
attr rep 13
attr repetition 0
attr replication #0
attr resultdir results
attr runnumber 52
attr seedset 13
attr sl nrr
attr ttl 1000
attr un 02
attr variance 0.05

scalar . 	a 	0.9
scalar . 	fsize 	1
scalar . 	rep 	13
scalar . 	ttl 	1000
scalar . 	un 	02
scalar . 	variance 	0.05
scalar tree_4_3_u02_r13_network.content_distribution 	repo-0 	0
scalar tree_4_3_u02_r13_network.content_distribution 	client-0 	13
scalar tree_4_3_u02_r13_network.content_distribution 	client-1 	14
scalar tree_4_3_u02_r13_network.content_distribution 	client-2 	15
scalar tree_4_3_u02_r13_network.content_distribution 	client-3 	16
scalar tree_4_3_u02_r13_network.content_distribution 	client-4 	17
scalar tree_4_3_u02_r13_network.content_distribution 	client-5 	18
scalar tree_4_3_u02_r13_network.content_distribution 	client-6 	19
scalar tree_4_3_u02_r13_network.content_distribution 	client-7 	20
scalar tree_4_3_u02_r13_network.content_distribution 	client-8 	21
scalar tree_4_3_u02_r13_network.content_distribution 	client-9 	22
scalar tree_4_3_u02_r13_network.content_distribution 	client-10 	23
scalar tree_4_3_u02_r13_network.content_distribution 	client-11 	24
scalar tree_4_3_u02_r13_network.content_distribution 	client-12 	25
scalar tree_4_3_u02_r13_network.content_distribution 	client-13 	26
scalar tree_4_3_u02_r13_network.content_distribution 	client-14 	27
scalar tree_4_3_u02_r13_network.content_distribution 	client-15 	28
scalar tree_4_3_u02_r13_network.content_distribution 	client-16 	29
scalar tree_4_3_u02_r13_network.content_distribution 	client-17 	30
scalar tree_4_3_u02_r13_network.content_distribution 	client-18 	31
scalar tree_4_3_u02_r13_network.content_distribution 	client-19 	32
scalar tree_4_3_u02_r13_network.content_distribution 	client-20 	33
scalar tree_4_3_u02_r13_network.content_distribution 	client-21 	34
scalar tree_4_3_u02_r13_network.content_distribution 	client-22 	35
scalar tree_4_3_u02_r13_network.content_distribution 	client-23 	36
scalar tree_4_3_u02_r13_network.content_distribution 	client-24 	37
scalar tree_4_3_u02_r13_network.content_distribution 	client-25 	38
scalar tree_4_3_u02_r13_network.content_distribution 	client-26 	39
scalar tree_4_3_u02_r13_network.content_distribution 	repo-0_card 	100000
scalar tree_4_3_u02_r13_network.content_distribution 	repo-0_price 	0
scalar tree_4_3_u02_r13_network.statistics 	stabilization_time 	546.1
scalar tree_4_3_u02_r13_network.statistics 	p_hit 	0.1802759383435
scalar tree_4_3_u02_r13_network.statistics 	interests 	27891.1
scalar tree_4_3_u02_r13_network.statistics 	data 	19797.425
scalar tree_4_3_u02_r13_network.statistics 	hdistance 	3.0956547437028
scalar tree_4_3_u02_r13_network.statistics 	avg_time 	0.004891991477
scalar tree_4_3_u02_r13_network.statistics 	downloads 	323733
scalar tree_4_3_u02_r13_network.statistics 	total_cost 	0
scalar tree_4_3_u02_r13_network.statistics 	total_replicas 	100000
scalar tree_4_3_u02_r13_network.statistics 	inner_hit 	0.35024850725752
scalar tree_4_3_u02_r13_network.node[0].core_layer 	interests[0] 	211469
scalar tree_4_3_u02_r13_network.node[0].core_layer 	repo_load[0] 	210346
scalar tree_4_3_u02_r13_network.node[0].core_layer 	data[0] 	0
scalar tree_4_3_u02_r13_network.node[0].core_layer 	repo_int[0] 	210346
scalar tree_4_3_u02_r13_network.node[0].content_store 	p_hit[0] 	0.0053104710383082
scalar tree_4_3_u02_r13_network.node[0].content_store 	hits[0] 	1123
scalar tree_4_3_u02_r13_network.node[0].content_store 	misses[0] 	210346
scalar tree_4_3_u02_r13_network.node[0].content_store 	decision_yes[0] 	210346
scalar tree_4_3_u02_r13_network.node[0].content_store 	decision_no[0] 	0
scalar tree_4_3_u02_r13_network.node[0].content_store 	decision_ratio[0] 	1
scalar tree_4_3_u02_r13_network.node[1].core_layer 	interests[1] 	140648
scalar tree_4_3_u02_r13_network.node[1].core_layer 	data[1] 	138708
scalar tree_4_3_u02_r13_network.node[1].content_store 	p_hit[1] 	0.013750639895342
scalar tree_4_3_u02_r13_network.node[1].content_store 	hits[1] 	1934
scalar tree_4_3_u02_r13_network.node[1].content_store 	misses[1] 	138714
scalar tree_4_3_u02_r13_network.node[1].content_store 	decision_yes[1] 	138666
scalar tree_4_3_u02_r13_network.node[1].content_store 	decision_no[1] 	0
scalar tree_4_3_u02_r13_network.node[1].content_store 	decision_ratio[1] 	1
scalar tree_4_3_u02_r13_network.node[2].core_layer 	interests[2] 	57160
scalar tree_4_3_u02_r13_network.node[2].core_layer 	data[2] 	55995
scalar tree_4_3_u02_r13_network.node[2].content_store 	p_hit[2] 	0.020346396081176
scalar tree_4_3_u02_r13_network.node[2].content_store 	hits[2] 	1163
scalar tree_4_3_u02_r13_network.node[2].content_store 	misses[2] 	55997
scalar tree_4_3_u02_r13_network.node[2].content_store 	decision_yes[2] 	55988
scalar tree_4_3_u02_r13_network.node[2].content_store 	decision_no[2] 	0
scalar tree_4_3_u02_r13_network.node[2].content_store 	decision_ratio[2] 	1
scalar tree_4_3_u02_r13_network.node[3].core_layer 	interests[3] 	46495
scalar tree_4_3_u02_r13_network.node[3].core_layer 	data[3] 	45602
scalar tree_4_3_u02_r13_network.node[3].content_store 	p_hit[3] 	0.019141843208947
scalar tree_4_3_u02_r13_network.node[3].content_store 	hits[3] 	890
scalar tree_4_3_u02_r13_network.node[3].content_store 	misses[3] 	45605
scalar tree_4_3_u02_r13_network.node[3].content_store 	decision_yes[3] 	45599
scalar tree_4_3_u02_r13_network.node[3].content_store 	decision_no[3] 	0
scalar tree_4_3_u02_r13_network.node[3].content_store 	decision_ratio[3] 	1
scalar tree_4_3_u02_r13_network.node[4].core_layer 	interests[4] 	32534
scalar tree_4_3_u02_r13_network.node[4].core_layer 	data[4] 	30490
scalar tree_4_3_u02_r13_network.node[4].content_store 	p_hit[4] 	0.062734370197332
scalar tree_4_3_u02_r13_network.node[4].content_store 	hits[4] 	2041
scalar tree_4_3_u02_r13_network.node[4].content_store 	misses[4] 	30493
scalar tree_4_3_u02_r13_network.node[4].content_store 	decision_yes[4] 	30485
scalar tree_4_3_u02_r13_network.node[4].content_store 	decision_no[4] 	0
scalar tree_4_3_u02_r13_network.node[4].content_store 	decision_ratio[4] 	1
scalar tree_4_3_u02_r13_network.node[5].core_layer 	interests[5] 	33309
scalar tree_4_3_u02_r13_network.node[5].core_layer 	data[5] 	31047
scalar tree_4_3_u02_r13_network.node[5].content_store 	p_hit[5] 	0.067879552073013
scalar tree_4_3_u02_r13_network.node[5].content_store 	hits[5] 	2261
scalar tree_4_3_u02_r13_network.node[5].content_store 	misses[5] 	31048
scalar tree_4_3_u02_r13_network.node[5].content_store 	decision_yes[5] 	31041
scalar tree_4_3_u02_r13_network.node[5].content_store 	decision_no[5] 	0
scalar tree_4_3_u02_r13_network.node[5].content_store 	decision_ratio[5] 	1
scalar tree_4_3_u02_r13_network.node[6].core_layer 	interests[6] 	34233
scalar tree_4_3_u02_r13_network.node[6].core_layer 	data[6] 	31437
scalar tree_4_3_u02_r13_network.node[6].content_store 	p_hit[6] 	0.081646364618935
scalar tree_4_3_u02_r13_network.node[6].content_store 	hits[6] 	2795
scalar tree_4_3_u02_r13_network.node[6].content_store 	misses[6] 	31438
scalar tree_4_3_u02_r13_network.node[6].content_store 	decision_yes[6] 	31434
scalar tree_4_3_u02_r13_network.node[6].content_store 	decision_no[6] 	0
scalar tree_4_3_u02_r13_network.node[6].content_store 	decision_ratio[6] 	1
scalar tree_4_3_u02_r13_network.node[7].core_layer 	interests[7] 	36904
scalar tree_4_3_u02_r13_network.node[7].core_layer 	data[7] 	32726
scalar tree_4_3_u02_r13_network.node[7].content_store 	p_hit[7] 	0.11321265987427
scalar tree_4_3_u02_r13_network.node[7].content_store 	hits[7] 	4178
scalar tree_4_3_u02_r13_network.node[7].content_store 	misses[7] 	32726
scalar tree_4_3_u02_r13_network.node[7].content_store 	decision_yes[7] 	32719
scalar tree_4_3_u02_r13_network.node[7].content_store 	decision_no[7] 	0
scalar tree_4_3_u02_r13_network.node[7].content_store 	decision_ratio[7] 	1
scalar tree_4_3_u02_r13_network.node[8].core_layer 	interests[8] 	31844
scalar tree_4_3_u02_r13_network.node[8].core_layer 	data[8] 	30444
scalar tree_4_3_u02_r13_network.node[8].content_store 	p_hit[8] 	0.043870116819495
scalar tree_4_3_u02_r13_network.node[8].content_store 	hits[8] 	1397
scalar tree_4_3_u02_r13_network.node[8].content_store 	misses[8] 	30447
scalar tree_4_3_u02_r13_network.node[8].content_store 	decision_yes[8] 	30443
scalar tree_4_3_u02_r13_network.node[8].content_store 	decision_no[8] 	0
scalar tree_4_3_u02_r13_network.node[8].content_store 	decision_ratio[8] 	1
scalar tree_4_3_u02_r13_network.node[9].core_layer 	interests[9] 	31898
scalar tree_4_3_u02_r13_network.node[9].core_layer 	data[9] 	30465
scalar tree_4_3_u02_r13_network.node[9].content_store 	p_hit[9] 	0.044830396890087
scalar tree_4_3_u02_r13_network.node[9].content_store 	hits[9] 	1430
scalar tree_4_3_u02_r13_network.node[9].content_store 	misses[9] 	30468
scalar tree_4_3_u02_r13_network.node[9].content_store 	decision_yes[9] 	30464
scalar tree_4_3_u02_r13_network.node[9].content_store 	decision_no[9] 	0
scalar tree_4_3_u02_r13_network.node[9].content_store 	decision_ratio[9] 	1
scalar tree_4_3_u02_r13_network.node[10].core_layer 	interests[10] 	46639
scalar tree_4_3_u02_r13_network.node[10].core_layer 	data[10] 	42946
scalar tree_4_3_u02_r13_network.node[10].content_store 	p_hit[10] 	0.079139775724179
scalar tree_4_3_u02_r13_network.node[10].content_store 	hits[10] 	3691
scalar tree_4_3_u02_r13_network.node[10].content_store 	misses[10] 	42948
scalar tree_4_3_u02_r13_network.node[10].content_store 	decision_yes[10] 	42938
scalar tree_4_3_u02_r13_network.node[10].content_store 	decision_no[10] 	0
scalar tree_4_3_u02_r13_network.node[10].content_store 	decision_ratio[10] 	1
scalar tree_4_3_u02_r13_network.node[11].core_layer 	interests[11] 	31233
scalar tree_4_3_u02_r13_network.node[11].core_layer 	data[11] 	29818
scalar tree_4_3_u02_r13_network.node[11].content_store 	p_hit[11] 	0.045112541222425
scalar tree_4_3_u02_r13_network.node[11].content_store 	hits[11] 	1409
scalar tree_4_3_u02_r13_network.node[11].content_store 	misses[11] 	29824
scalar tree_4_3_u02_r13_network.node[11].content_store 	decision_yes[11] 	29818
scalar tree_4_3_u02_r13_network.node[11].content_store 	decision_no[11] 	0
scalar tree_4_3_u02_r13_network.node[11].content_store 	decision_ratio[11] 	1
scalar tree_4_3_u02_r13_network.node[12].core_layer 	interests[12] 	21872
scalar tree_4_3_u02_r13_network.node[12].core_layer 	data[12] 	20591
scalar tree_4_3_u02_r13_network.node[12].content_store 	p_hit[12] 	0.058522311631309
scalar tree_4_3_u02_r13_network.node[12].content_store 	hits[12] 	1280
scalar tree_4_3_u02_r13_network.node[12].content_store 	misses[12] 	20592
scalar tree_4_3_u02_r13_network.node[12].content_store 	decision_yes[12] 	20591
scalar tree_4_3_u02_r13_network.node[12].content_store 	decision_no[12] 	0
scalar tree_4_3_u02_r13_network.node[12].content_store 	decision_ratio[12] 	1
scalar tree_4_3_u02_r13_network.node[13].core_layer 	interests[13] 	12985
scalar tree_4_3_u02_r13_network.node[13].core_layer 	data[13] 	10026
scalar tree_4_3_u02_r13_network.node[13].content_store 	p_hit[13] 	0.22787832113978
scalar tree_4_3_u02_r13_network.node[13].content_store 	hits[13] 	2959
scalar tree_4_3_u02_r13_network.node[13].content_store 	misses[13] 	10026
scalar tree_4_3_u02_r13_network.node[13].content_store 	decision_yes[13] 	10026
scalar tree_4_3_u02_r13_network.node[13].content_store 	decision_no[13] 	0
scalar tree_4_3_u02_r13_network.node[13].content_store 	decision_ratio[13] 	1
scalar tree_4_3_u02_r13_network.node[14].core_layer 	interests[14] 	13156
scalar tree_4_3_u02_r13_network.node[14].core_layer 	data[14] 	10243
scalar tree_4_3_u02_r13_network.node[14].content_store 	p_hit[14] 	0.22141988446336
scalar tree_4_3_u02_r13_network.node[14].content_store 	hits[14] 	2913
scalar tree_4_3_u02_r13_network.node[14].content_store 	misses[14] 	10243
scalar tree_4_3_u02_r13_network.node[14].content_store 	decision_yes[14] 	10243
scalar tree_4_3_u02_r13_network.node[14].content_store 	decision_no[14] 	0
scalar tree_4_3_u02_r13_network.node[14].content_store 	decision_ratio[14] 	1
scalar tree_4_3_u02_r13_network.node[15].core_layer 	interests[15] 	14456
scalar tree_4_3_u02_r13_network.node[15].core_layer 	data[15] 	10151
scalar tree_4_3_u02_r13_network.node[15].content_store 	p_hit[15] 	0.29780022136137
scalar tree_4_3_u02_r13_network.node[15].content_store 	hits[15] 	4305
scalar tree_4_3_u02_r13_network.node[15].content_store 	misses[15] 	10151
scalar tree_4_3_u02_r13_network.node[15].content_store 	decision_yes[15] 	10151
scalar tree_4_3_u02_r13_network.node[15].content_store 	decision_no[15] 	0
scalar tree_4_3_u02_r13_network.node[15].content_store 	decision_ratio[15] 	1
scalar tree_4_3_u02_r13_network.node[16].core_layer 	interests[16] 	12826
scalar tree_4_3_u02_r13_network.node[16].core_layer 	data[16] 	9872
scalar tree_4_3_u02_r13_network.node[16].content_store 	p_hit[16] 	0.23031342585373
scalar tree_4_3_u02_r13_network.node[16].content_store 	hits[16] 	2954
scalar tree_4_3_u02_r13_network.node[16].content_store 	misses[16] 	9872
scalar tree_4_3_u02_r13_network.node[16].content_store 	decision_yes[16] 	9872
scalar tree_4_3_u02_r13_network.node[16].content_store 	decision_no[16] 	0
scalar tree_4_3_u02_r13_network.node[16].content_store 	decision_ratio[16] 	1
scalar tree_4_3_u02_r13_network.node[17].core_layer 	interests[17] 	13319
scalar tree_4_3_u02_r13_network.node[17].core_layer 	data[17] 	10208
scalar tree_4_3_u02_r13_network.node[17].content_store 	p_hit[17] 	0.23350101358961
scalar tree_4_3_u02_r13_network.node[17].content_store 	hits[17] 	3110
scalar tree_4_3_u02_r13_network.node[17].content_store 	misses[17] 	10209
scalar tree_4_3_u02_r13_network.node[17].content_store 	decision_yes[17] 	10208
scalar tree_4_3_u02_r13_network.node[17].content_store 	decision_no[17] 	0
scalar tree_4_3_u02_r13_network.node[17].content_store 	decision_ratio[17] 	1
scalar tree_4_3_u02_r13_network.node[18].core_layer 	interests[18] 	13180
scalar tree_4_3_u02_r13_network.node[18].core_layer 	data[18] 	10008
scalar tree_4_3_u02_r13_network.node[18].content_store 	p_hit[18] 	0.24059180576631
scalar tree_4_3_u02_r13_network.node[18].content_store 	hits[18] 	3171
scalar tree_4_3_u02_r13_network.node[18].content_store 	misses[18] 	10009
scalar tree_4_3_u02_r13_network.node[18].content_store 	decision_yes[18] 	10008
scalar tree_4_3_u02_r13_network.node[18].content_store 	decision_no[18] 	0
scalar tree_4_3_u02_r13_network.node[18].content_store 	decision_ratio[18] 	1
scalar tree_4_3_u02_r13_network.node[19].core_layer 	interests[19] 	13170
scalar tree_4_3_u02_r13_network.node[19].core_layer 	data[19] 	10069
scalar tree_4_3_u02_r13_network.node[19].content_store 	p_hit[19] 	0.23545937737282
scalar tree_4_3_u02_r13_network.node[19].content_store 	hits[19] 	3101
scalar tree_4_3_u02_r13_network.node[19].content_store 	misses[19] 	10069
scalar tree_4_3_u02_r13_network.node[19].content_store 	decision_yes[19] 	10069
scalar tree_4_3_u02_r13_network.node[19].content_store 	decision_no[19] 	0
scalar tree_4_3_u02_r13_network.node[19].content_store 	decision_ratio[19] 	1
scalar tree_4_3_u02_r13_network.node[20].core_layer 	interests[20] 	13077
scalar tree_4_3_u02_r13_network.node[20].core_layer 	data[20] 	9952
scalar tree_4_3_u02_r13_network.node[20].content_store 	p_hit[20] 	0.23889271239581
scalar tree_4_3_u02_r13_network.node[20].content_store 	hits[20] 	3124
scalar tree_4_3_u02_r13_network.node[20].content_store 	misses[20] 	9953
scalar tree_4_3_u02_r13_network.node[20].content_store 	decision_yes[20] 	9952
scalar tree_4_3_u02_r13_network.node[20].content_store 	decision_no[20] 	0
scalar tree_4_3_u02_r13_network.node[20].content_store 	decision_ratio[20] 	1
scalar tree_4_3_u02_r13_network.node[21].core_layer 	interests[21] 	13174
scalar tree_4_3_u02_r13_network.node[21].core_layer 	data[21] 	10102
scalar tree_4_3_u02_r13_network.node[21].content_store 	p_hit[21] 	0.23318657962654
scalar tree_4_3_u02_r13_network.node[21].content_store 	hits[21] 	3072
scalar tree_4_3_u02_r13_network.node[21].content_store 	misses[21] 	10102
scalar tree_4_3_u02_r13_network.node[21].content_store 	decision_yes[21] 	10102
scalar tree_4_3_u02_r13_network.node[21].content_store 	decision_no[21] 	0
scalar tree_4_3_u02_r13_network.node[21].content_store 	decision_ratio[21] 	1
scalar tree_4_3_u02_r13_network.node[22].core_layer 	interests[22] 	13750
scalar tree_4_3_u02_r13_network.node[22].core_layer 	data[22] 	9925
scalar tree_4_3_u02_r13_network.node[22].content_store 	p_hit[22] 	0.27818181818182
scalar tree_4_3_u02_r13_network.node[22].content_store 	hits[22] 	3825
scalar tree_4_3_u02_r13_network.node[22].content_store 	misses[22] 	9925
scalar tree_4_3_u02_r13_network.node[22].content_store 	decision_yes[22] 	9925
scalar tree_4_3_u02_r13_network.node[22].content_store 	decision_no[22] 	0
scalar tree_4_3_u02_r13_network.node[22].content_store 	decision_ratio[22] 	1
scalar tree_4_3_u02_r13_network.node[23].core_layer 	interests[23] 	13885
scalar tree_4_3_u02_r13_network.node[23].core_layer 	data[23] 	10173
scalar tree_4_3_u02_r13_network.node[23].content_store 	p_hit[23] 	0.26733885487937
scalar tree_4_3_u02_r13_network.node[23].content_store 	hits[23] 	3712
scalar tree_4_3_u02_r13_network.node[23].content_store 	misses[23] 	10173
scalar tree_4_3_u02_r13_network.node[23].content_store 	decision_yes[23] 	10173
scalar tree_4_3_u02_r13_network.node[23].content_store 	decision_no[23] 	0
scalar tree_4_3_u02_r13_network.node[23].content_store 	decision_ratio[23] 	1
scalar tree_4_3_u02_r13_network.node[24].core_layer 	interests[24] 	13614
scalar tree_4_3_u02_r13_network.node[24].core_layer 	data[24] 	9873
scalar tree_4_3_u02_r13_network.node[24].content_store 	p_hit[24] 	0.27479065667695
scalar tree_4_3_u02_r13_network.node[24].content_store 	hits[24] 	3741
scalar tree_4_3_u02_r13_network.node[24].content_store 	misses[24] 	9873
scalar tree_4_3_u02_r13_network.node[24].content_store 	decision_yes[24] 	9873
scalar tree_4_3_u02_r13_network.node[24].content_store 	decision_no[24] 	0
scalar tree_4_3_u02_r13_network.node[24].content_store 	decision_ratio[24] 	1
scalar tree_4_3_u02_r13_network.node[25].core_layer 	interests[25] 	12796
scalar tree_4_3_u02_r13_network.node[25].core_layer 	data[25] 	10009
scalar tree_4_3_u02_r13_network.node[25].content_store 	p_hit[25] 	0.21772428884026
scalar tree_4_3_u02_r13_network.node[25].content_store 	hits[25] 	2786
scalar tree_4_3_u02_r13_network.node[25].content_store 	misses[25] 	10010
scalar tree_4_3_u02_r13_network.node[25].content_store 	decision_yes[25] 	10009
scalar tree_4_3_u02_r13_network.node[25].content_store 	decision_no[25] 	0
scalar tree_4_3_u02_r13_network.node[25].content_store 	decision_ratio[25] 	1
scalar tree_4_3_u02_r13_network.node[26].core_layer 	interests[26] 	13016
scalar tree_4_3_u02_r13_network.node[26].core_layer 	data[26] 	10111
scalar tree_4_3_u02_r13_network.node[26].content_store 	p_hit[26] 	0.22318684695759
scalar tree_4_3_u02_r13_network.node[26].content_store 	hits[26] 	2905
scalar tree_4_3_u02_r13_network.node[26].content_store 	misses[26] 	10111
scalar tree_4_3_u02_r13_network.node[26].content_store 	decision_yes[26] 	10111
scalar tree_4_3_u02_r13_network.node[26].content_store 	decision_no[26] 	0
scalar tree_4_3_u02_r13_network.node[26].content_store 	decision_ratio[26] 	1
scalar tree_4_3_u02_r13_network.node[27].core_layer 	interests[27] 	12850
scalar tree_4_3_u02_r13_network.node[27].core_layer 	data[27] 	9984
scalar tree_4_3_u02_r13_network.node[27].content_store 	p_hit[27] 	0.22295719844358
scalar tree_4_3_u02_r13_network.node[27].content_store 	hits[27] 	2865
scalar tree_4_3_u02_r13_network.node[27].content_store 	misses[27] 	9985
scalar tree_4_3_u02_r13_network.node[27].content_store 	decision_yes[27] 	9984
scalar tree_4_3_u02_r13_network.node[27].content_store 	decision_no[27] 	0
scalar tree_4_3_u02_r13_network.node[27].content_store 	decision_ratio[27] 	1
scalar tree_4_3_u02_r13_network.node[28].core_layer 	interests[28] 	12847
scalar tree_4_3_u02_r13_network.node[28].core_layer 	data[28] 	9976
scalar tree_4_3_u02_r13_network.node[28].content_store 	p_hit[28] 	0.22339845878415
scalar tree_4_3_u02_r13_network.node[28].content_store 	hits[28] 	2870
scalar tree_4_3_u02_r13_network.node[28].content_store 	misses[28] 	9977
scalar tree_4_3_u02_r13_network.node[28].content_store 	decision_yes[28] 	9976
scalar tree_4_3_u02_r13_network.node[28].content_store 	decision_no[28] 	0
scalar tree_4_3_u02_r13_network.node[28].content_store 	decision_ratio[28] 	1
scalar tree_4_3_u02_r13_network.node[29].core_layer 	interests[29] 	13004
scalar tree_4_3_u02_r13_network.node[29].core_layer 	data[29] 	10181
scalar tree_4_3_u02_r13_network.node[29].content_store 	p_hit[29] 	0.21708705013842
scalar tree_4_3_u02_r13_network.node[29].content_store 	hits[29] 	2823
scalar tree_4_3_u02_r13_network.node[29].content_store 	misses[29] 	10181
scalar tree_4_3_u02_r13_network.node[29].content_store 	decision_yes[29] 	10181
scalar tree_4_3_u02_r13_network.node[29].content_store 	decision_no[29] 	0
scalar tree_4_3_u02_r13_network.node[29].content_store 	decision_ratio[29] 	1
scalar tree_4_3_u02_r13_network.node[30].core_layer 	interests[30] 	12972
scalar tree_4_3_u02_r13_network.node[30].core_layer 	data[30] 	10014
scalar tree_4_3_u02_r13_network.node[30].content_store 	p_hit[30] 	0.22795251310515
scalar tree_4_3_u02_r13_network.node[30].content_store 	hits[30] 	2957
scalar tree_4_3_u02_r13_network.node[30].content_store 	misses[30] 	10015
scalar tree_4_3_u02_r13_network.node[30].content_store 	decision_yes[30] 	10014
scalar tree_4_3_u02_r13_network.node[30].content_store 	decision_no[30] 	0
scalar tree_4_3_u02_r13_network.node[30].content_store 	decision_ratio[30] 	1
scalar tree_4_3_u02_r13_network.node[31].core_layer 	interests[31] 	14014
scalar tree_4_3_u02_r13_network.node[31].core_layer 	data[31] 	10141
scalar tree_4_3_u02_r13_network.node[31].content_store 	p_hit[31] 	0.2763664906522
scalar tree_4_3_u02_r13_network.node[31].content_store 	hits[31] 	3873
scalar tree_4_3_u02_r13_network.node[31].content_store 	misses[31] 	10141
scalar tree_4_3_u02_r13_network.node[31].content_store 	decision_yes[31] 	10141
scalar tree_4_3_u02_r13_network.node[31].content_store 	decision_no[31] 	0
scalar tree_4_3_u02_r13_network.node[31].content_store 	decision_ratio[31] 	1
scalar tree_4_3_u02_r13_network.node[32].core_layer 	interests[32] 	13873
scalar tree_4_3_u02_r13_network.node[32].core_layer 	data[32] 	10145
scalar tree_4_3_u02_r13_network.node[32].content_store 	p_hit[32] 	0.26865133712968
scalar tree_4_3_u02_r13_network.node[32].content_store 	hits[32] 	3727
scalar tree_4_3_u02_r13_network.node[32].content_store 	misses[32] 	10146
scalar tree_4_3_u02_r13_network.node[32].content_store 	decision_yes[32] 	10145
scalar tree_4_3_u02_r13_network.node[32].content_store 	decision_no[32] 	0
scalar tree_4_3_u02_r13_network.node[32].content_store 	decision_ratio[32] 	1
scalar tree_4_3_u02_r13_network.node[33].core_layer 	interests[33] 	13983
scalar tree_4_3_u02_r13_network.node[33].core_layer 	data[33] 	10140
scalar tree_4_3_u02_r13_network.node[33].content_store 	p_hit[33] 	0.2748337266681
scalar tree_4_3_u02_r13_network.node[33].content_store 	hits[33] 	3843
scalar tree_4_3_u02_r13_network.node[33].content_store 	misses[33] 	10140
scalar tree_4_3_u02_r13_network.node[33].content_store 	decision_yes[33] 	10140
scalar tree_4_3_u02_r13_network.node[33].content_store 	decision_no[33] 	0
scalar tree_4_3_u02_r13_network.node[33].content_store 	decision_ratio[33] 	1
scalar tree_4_3_u02_r13_network.node[34].core_layer 	interests[34] 	14981
scalar tree_4_3_u02_r13_network.node[34].core_layer 	data[34] 	9910
scalar tree_4_3_u02_r13_network.node[34].content_store 	p_hit[34] 	0.33842867632334
scalar tree_4_3_u02_r13_network.node[34].content_store 	hits[34] 	5070
scalar tree_4_3_u02_r13_network.node[34].content_store 	misses[34] 	9911
scalar tree_4_3_u02_r13_network.node[34].content_store 	decision_yes[34] 	9910
scalar tree_4_3_u02_r13_network.node[34].content_store 	decision_no[34] 	0
scalar tree_4_3_u02_r13_network.node[34].content_store 	decision_ratio[34] 	1
scalar tree_4_3_u02_r13_network.node[35].core_layer 	interests[35] 	12735
scalar tree_4_3_u02_r13_network.node[35].core_layer 	data[35] 	10098
scalar tree_4_3_u02_r13_network.node[35].content_store 	p_hit[35] 	0.20706713780919
scalar tree_4_3_u02_r13_network.node[35].content_store 	hits[35] 	2637
scalar tree_4_3_u02_r13_network.node[35].content_store 	misses[35] 	10098
scalar tree_4_3_u02_r13_network.node[35].content_store 	decision_yes[35] 	10098
scalar tree_4_3_u02_r13_network.node[35].content_store 	decision_no[35] 	0
scalar tree_4_3_u02_r13_network.node[35].content_store 	decision_ratio[35] 	1
scalar tree_4_3_u02_r13_network.node[36].core_layer 	interests[36] 	12658
scalar tree_4_3_u02_r13_network.node[36].core_layer 	data[36] 	9854
scalar tree_4_3_u02_r13_network.node[36].content_store 	p_hit[36] 	0.22151998735977
scalar tree_4_3_u02_r13_network.node[36].content_store 	hits[36] 	2804
scalar tree_4_3_u02_r13_network.node[36].content_store 	misses[36] 	9854
scalar tree_4_3_u02_r13_network.node[36].content_store 	decision_yes[36] 	9854
scalar tree_4_3_u02_r13_network.node[36].content_store 	decision_no[36] 	0
scalar tree_4_3_u02_r13_network.node[36].content_store 	decision_ratio[36] 	1
scalar tree_4_3_u02_r13_network.node[37].core_layer 	interests[37] 	12657
scalar tree_4_3_u02_r13_network.node[37].core_layer 	data[37] 	10227
scalar tree_4_3_u02_r13_network.node[37].content_store 	p_hit[37] 	0.19183060756893
scalar tree_4_3_u02_r13_network.node[37].content_store 	hits[37] 	2428
scalar tree_4_3_u02_r13_network.node[37].content_store 	misses[37] 	10229
scalar tree_4_3_u02_r13_network.node[37].content_store 	decision_yes[37] 	10227
scalar tree_4_3_u02_r13_network.node[37].content_store 	decision_no[37] 	0
scalar tree_4_3_u02_r13_network.node[37].content_store 	decision_ratio[37] 	1
scalar tree_4_3_u02_r13_network.node[38].core_layer 	interests[38] 	13792
scalar tree_4_3_u02_r13_network.node[38].core_layer 	data[38] 	10057
scalar tree_4_3_u02_r13_network.node[38].content_store 	p_hit[38] 	0.27073665893271
scalar tree_4_3_u02_r13_network.node[38].content_store 	hits[38] 	3734
scalar tree_4_3_u02_r13_network.node[38].content_store 	misses[38] 	10058
scalar tree_4_3_u02_r13_network.node[38].content_store 	decision_yes[38] 	10057
scalar tree_4_3_u02_r13_network.node[38].content_store 	decision_no[38] 	0
scalar tree_4_3_u02_r13_network.node[38].content_store 	decision_ratio[38] 	1
scalar tree_4_3_u02_r13_network.node[39].core_layer 	interests[39] 	12636
scalar tree_4_3_u02_r13_network.node[39].core_layer 	data[39] 	10179
scalar tree_4_3_u02_r13_network.node[39].content_store 	p_hit[39] 	0.19444444444444
scalar tree_4_3_u02_r13_network.node[39].content_store 	hits[39] 	2457
scalar tree_4_3_u02_r13_network.node[39].content_store 	misses[39] 	10179
scalar tree_4_3_u02_r13_network.node[39].content_store 	decision_yes[39] 	10179
scalar tree_4_3_u02_r13_network.node[39].content_store 	decision_no[39] 	0
scalar tree_4_3_u02_r13_network.node[39].content_store 	decision_ratio[39] 	1
scalar tree_4_3_u02_r13_network.client[13] 	hdistance[13] 	3.1225243370258
scalar tree_4_3_u02_r13_network.client[13] 	downloads[13] 	11916
scalar tree_4_3_u02_r13_network.client[13] 	avg_time[13] 	0.004966454212
scalar tree_4_3_u02_r13_network.client[14] 	hdistance[14] 	3.131238142374
scalar tree_4_3_u02_r13_network.client[14] 	downloads[14] 	12123
scalar tree_4_3_u02_r13_network.client[14] 	avg_time[14] 	0.004981107274
scalar tree_4_3_u02_r13_network.client[15] 	hdistance[15] 	3.0033697706912
scalar tree_4_3_u02_r13_network.client[15] 	downloads[15] 	12167
scalar tree_4_3_u02_r13_network.client[15] 	avg_time[15] 	0.004734077757
scalar tree_4_3_u02_r13_network.client[16] 	hdistance[16] 	3.1392752876524
scalar tree_4_3_u02_r13_network.client[16] 	downloads[16] 	11646
scalar tree_4_3_u02_r13_network.client[16] 	avg_time[16] 	0.004995414355
scalar tree_4_3_u02_r13_network.client[17] 	hdistance[17] 	3.1149671052632
scalar tree_4_3_u02_r13_network.client[17] 	downloads[17] 	12160
scalar tree_4_3_u02_r13_network.client[17] 	avg_time[17] 	0.004956893319
scalar tree_4_3_u02_r13_network.client[18] 	hdistance[18] 	3.0989461358314
scalar tree_4_3_u02_r13_network.client[18] 	downloads[18] 	11956
scalar tree_4_3_u02_r13_network.client[18] 	avg_time[18] 	0.004928175891
scalar tree_4_3_u02_r13_network.client[19] 	hdistance[19] 	3.0866003510825
scalar tree_4_3_u02_r13_network.client[19] 	downloads[19] 	11963
scalar tree_4_3_u02_r13_network.client[19] 	avg_time[19] 	0.004903148537
scalar tree_4_3_u02_r13_network.client[20] 	hdistance[20] 	3.0855890041319
scalar tree_4_3_u02_r13_network.client[20] 	downloads[20] 	11859
scalar tree_4_3_u02_r13_network.client[20] 	avg_time[20] 	0.004893066433
scalar tree_4_3_u02_r13_network.client[21] 	hdistance[21] 	3.090924243687
scalar tree_4_3_u02_r13_network.client[21] 	downloads[21] 	11999
scalar tree_4_3_u02_r13_network.client[21] 	avg_time[21] 	0.004909875668
scalar tree_4_3_u02_r13_network.client[22] 	hdistance[22] 	3.0554388912222
scalar tree_4_3_u02_r13_network.client[22] 	downloads[22] 	11905
scalar tree_4_3_u02_r13_network.client[22] 	avg_time[22] 	0.004902978944
scalar tree_4_3_u02_r13_network.client[23] 	hdistance[23] 	3.0647713226205
scalar tree_4_3_u02_r13_network.client[23] 	downloads[23] 	12135
scalar tree_4_3_u02_r13_network.client[23] 	avg_time[23] 	0.004909615952
scalar tree_4_3_u02_r13_network.client[24] 	hdistance[24] 	3.0668811378259
scalar tree_4_3_u02_r13_network.client[24] 	downloads[24] 	11812
scalar tree_4_3_u02_r13_network.client[24] 	avg_time[24] 	0.004908056611
scalar tree_4_3_u02_r13_network.client[25] 	hdistance[25] 	3.1621962498949
scalar tree_4_3_u02_r13_network.client[25] 	downloads[25] 	11893
scalar tree_4_3_u02_r13_network.client[25] 	avg_time[25] 	0.004945524319
scalar tree_4_3_u02_r13_network.client[26] 	hdistance[26] 	3.1409980106101
scalar tree_4_3_u02_r13_network.client[26] 	downloads[26] 	12064
scalar tree_4_3_u02_r13_network.client[26] 	avg_time[26] 	0.004913790093
scalar tree_4_3_u02_r13_network.client[27] 	hdistance[27] 	3.1454148104564
scalar tree_4_3_u02_r13_network.client[27] 	downloads[27] 	11897
scalar tree_4_3_u02_r13_network.client[27] 	avg_time[27] 	0.004918733359
scalar tree_4_3_u02_r13_network.client[28] 	hdistance[28] 	3.1403582541418
scalar tree_4_3_u02_r13_network.client[28] 	downloads[28] 	11891
scalar tree_4_3_u02_r13_network.client[28] 	avg_time[28] 	0.004903587624
scalar tree_4_3_u02_r13_network.client[29] 	hdistance[29] 	3.1491155562903
scalar tree_4_3_u02_r13_network.client[29] 	downloads[29] 	12098
scalar tree_4_3_u02_r13_network.client[29] 	avg_time[29] 	0.004922277991
scalar tree_4_3_u02_r13_network.client[30] 	hdistance[30] 	3.126588587092
scalar tree_4_3_u02_r13_network.client[30] 	downloads[30] 	12039
scalar tree_4_3_u02_r13_network.client[30] 	avg_time[30] 	0.004895980451
scalar tree_4_3_u02_r13_network.client[31] 	hdistance[31] 	3.0299184043518
scalar tree_4_3_u02_r13_network.client[31] 	downloads[31] 	12133
scalar tree_4_3_u02_r13_network.client[31] 	avg_time[31] 	0.004839912439
scalar tree_4_3_u02_r13_network.client[32] 	hdistance[32] 	3.0481558226274
scalar tree_4_3_u02_r13_network.client[32] 	downloads[32] 	12065
scalar tree_4_3_u02_r13_network.client[32] 	avg_time[32] 	0.00485916754
scalar tree_4_3_u02_r13_network.client[33] 	hdistance[33] 	3.0491382167716
scalar tree_4_3_u02_r13_network.client[33] 	downloads[33] 	12068
scalar tree_4_3_u02_r13_network.client[33] 	avg_time[33] 	0.004872246368
scalar tree_4_3_u02_r13_network.client[34] 	hdistance[34] 	2.9578550481776
scalar tree_4_3_u02_r13_network.client[34] 	downloads[34] 	11935
scalar tree_4_3_u02_r13_network.client[34] 	avg_time[34] 	0.00469004429
scalar tree_4_3_u02_r13_network.client[35] 	hdistance[35] 	3.1199632168534
scalar tree_4_3_u02_r13_network.client[35] 	downloads[35] 	11962
scalar tree_4_3_u02_r13_network.client[35] 	avg_time[35] 	0.004866897588
scalar tree_4_3_u02_r13_network.client[36] 	hdistance[36] 	3.0965634280865
scalar tree_4_3_u02_r13_network.client[36] 	downloads[36] 	11785
scalar tree_4_3_u02_r13_network.client[36] 	avg_time[36] 	0.004833979672
scalar tree_4_3_u02_r13_network.client[37] 	hdistance[37] 	3.1653152407745
scalar tree_4_3_u02_r13_network.client[37] 	downloads[37] 	12086
scalar tree_4_3_u02_r13_network.client[37] 	avg_time[37] 	0.00496893201
scalar tree_4_3_u02_r13_network.client[38] 	hdistance[38] 	3.0274380165289
scalar tree_4_3_u02_r13_network.client[38] 	downloads[38] 	12100
scalar tree_4_3_u02_r13_network.client[38] 	avg_time[38] 	0.004699938894
scalar tree_4_3_u02_r13_network.client[39] 	hdistance[39] 	3.1631334879099
scalar tree_4_3_u02_r13_network.client[39] 	downloads[39] 	12076
scalar tree_4_3_u02_r13_network.client[39] 	avg_time[39] 	0.004963892307
