version 2
run General-42-20160819-15:26:48-23511
attr a 0.9
attr cd lce
attr configname General
attr cr lru
attr datetime 20160819-15:26:48
attr experiment General
attr fsize 1
attr inifile hw5115/scenario_A/NRR-LCE.ini
attr iterationvars "$name=tree_4_3, $un=02, $rep=3, $cd=lce, $cr=lru, $fsize=1, $a=0.9, $sl=nrr, $ttl=1000, $variance=0.05"
attr iterationvars2 "$name=tree_4_3, $un=02, $rep=3, $cd=lce, $cr=lru, $fsize=1, $a=0.9, $sl=nrr, $ttl=1000, $variance=0.05, $repetition=0"
attr measurement "$name=tree_4_3, $un=02, $rep=3, $cd=lce, $cr=lru, $fsize=1, $a=0.9, $sl=nrr, $ttl=1000, $variance=0.05"
attr name tree_4_3
attr network networks.${name}_u${un}_r${rep}_network
attr processid 23511
attr rep 3
attr repetition 0
attr replication #0
attr resultdir results
attr runnumber 42
attr seedset 3
attr sl nrr
attr ttl 1000
attr un 02
attr variance 0.05

scalar . 	a 	0.9
scalar . 	fsize 	1
scalar . 	rep 	3
scalar . 	ttl 	1000
scalar . 	un 	02
scalar . 	variance 	0.05
scalar tree_4_3_u02_r3_network.content_distribution 	repo-0 	0
scalar tree_4_3_u02_r3_network.content_distribution 	client-0 	13
scalar tree_4_3_u02_r3_network.content_distribution 	client-1 	14
scalar tree_4_3_u02_r3_network.content_distribution 	client-2 	15
scalar tree_4_3_u02_r3_network.content_distribution 	client-3 	16
scalar tree_4_3_u02_r3_network.content_distribution 	client-4 	17
scalar tree_4_3_u02_r3_network.content_distribution 	client-5 	18
scalar tree_4_3_u02_r3_network.content_distribution 	client-6 	19
scalar tree_4_3_u02_r3_network.content_distribution 	client-7 	20
scalar tree_4_3_u02_r3_network.content_distribution 	client-8 	21
scalar tree_4_3_u02_r3_network.content_distribution 	client-9 	22
scalar tree_4_3_u02_r3_network.content_distribution 	client-10 	23
scalar tree_4_3_u02_r3_network.content_distribution 	client-11 	24
scalar tree_4_3_u02_r3_network.content_distribution 	client-12 	25
scalar tree_4_3_u02_r3_network.content_distribution 	client-13 	26
scalar tree_4_3_u02_r3_network.content_distribution 	client-14 	27
scalar tree_4_3_u02_r3_network.content_distribution 	client-15 	28
scalar tree_4_3_u02_r3_network.content_distribution 	client-16 	29
scalar tree_4_3_u02_r3_network.content_distribution 	client-17 	30
scalar tree_4_3_u02_r3_network.content_distribution 	client-18 	31
scalar tree_4_3_u02_r3_network.content_distribution 	client-19 	32
scalar tree_4_3_u02_r3_network.content_distribution 	client-20 	33
scalar tree_4_3_u02_r3_network.content_distribution 	client-21 	34
scalar tree_4_3_u02_r3_network.content_distribution 	client-22 	35
scalar tree_4_3_u02_r3_network.content_distribution 	client-23 	36
scalar tree_4_3_u02_r3_network.content_distribution 	client-24 	37
scalar tree_4_3_u02_r3_network.content_distribution 	client-25 	38
scalar tree_4_3_u02_r3_network.content_distribution 	client-26 	39
scalar tree_4_3_u02_r3_network.content_distribution 	repo-0_card 	100000
scalar tree_4_3_u02_r3_network.content_distribution 	repo-0_price 	0
scalar tree_4_3_u02_r3_network.statistics 	stabilization_time 	474.4
scalar tree_4_3_u02_r3_network.statistics 	p_hit 	0.17709101887263
scalar tree_4_3_u02_r3_network.statistics 	interests 	27779.275
scalar tree_4_3_u02_r3_network.statistics 	data 	19686.15
scalar tree_4_3_u02_r3_network.statistics 	hdistance 	3.0976673382987
scalar tree_4_3_u02_r3_network.statistics 	avg_time 	0.004864874333
scalar tree_4_3_u02_r3_network.statistics 	downloads 	323700
scalar tree_4_3_u02_r3_network.statistics 	total_cost 	0
scalar tree_4_3_u02_r3_network.statistics 	total_replicas 	100000
scalar tree_4_3_u02_r3_network.statistics 	inner_hit 	0.33467717021934
scalar tree_4_3_u02_r3_network.node[0].core_layer 	interests[0] 	216849
scalar tree_4_3_u02_r3_network.node[0].core_layer 	repo_load[0] 	215365
scalar tree_4_3_u02_r3_network.node[0].core_layer 	data[0] 	0
scalar tree_4_3_u02_r3_network.node[0].core_layer 	repo_int[0] 	215365
scalar tree_4_3_u02_r3_network.node[0].content_store 	p_hit[0] 	0.0068434717245641
scalar tree_4_3_u02_r3_network.node[0].content_store 	hits[0] 	1484
scalar tree_4_3_u02_r3_network.node[0].content_store 	misses[0] 	215365
scalar tree_4_3_u02_r3_network.node[0].content_store 	decision_yes[0] 	215365
scalar tree_4_3_u02_r3_network.node[0].content_store 	decision_no[0] 	0
scalar tree_4_3_u02_r3_network.node[0].content_store 	decision_ratio[0] 	1
scalar tree_4_3_u02_r3_network.node[1].core_layer 	interests[1] 	76312
scalar tree_4_3_u02_r3_network.node[1].core_layer 	data[1] 	75650
scalar tree_4_3_u02_r3_network.node[1].content_store 	p_hit[1] 	0.0086749135129468
scalar tree_4_3_u02_r3_network.node[1].content_store 	hits[1] 	662
scalar tree_4_3_u02_r3_network.node[1].content_store 	misses[1] 	75650
scalar tree_4_3_u02_r3_network.node[1].content_store 	decision_yes[1] 	75642
scalar tree_4_3_u02_r3_network.node[1].content_store 	decision_no[1] 	0
scalar tree_4_3_u02_r3_network.node[1].content_store 	decision_ratio[1] 	1
scalar tree_4_3_u02_r3_network.node[2].core_layer 	interests[2] 	83826
scalar tree_4_3_u02_r3_network.node[2].core_layer 	data[2] 	82334
scalar tree_4_3_u02_r3_network.node[2].content_store 	p_hit[2] 	0.017762985231312
scalar tree_4_3_u02_r3_network.node[2].content_store 	hits[2] 	1489
scalar tree_4_3_u02_r3_network.node[2].content_store 	misses[2] 	82337
scalar tree_4_3_u02_r3_network.node[2].content_store 	decision_yes[2] 	82322
scalar tree_4_3_u02_r3_network.node[2].content_store 	decision_no[2] 	0
scalar tree_4_3_u02_r3_network.node[2].content_store 	decision_ratio[2] 	1
scalar tree_4_3_u02_r3_network.node[3].core_layer 	interests[3] 	82857
scalar tree_4_3_u02_r3_network.node[3].core_layer 	data[3] 	81782
scalar tree_4_3_u02_r3_network.node[3].content_store 	p_hit[3] 	0.012889677395996
scalar tree_4_3_u02_r3_network.node[3].content_store 	hits[3] 	1068
scalar tree_4_3_u02_r3_network.node[3].content_store 	misses[3] 	81789
scalar tree_4_3_u02_r3_network.node[3].content_store 	decision_yes[3] 	81772
scalar tree_4_3_u02_r3_network.node[3].content_store 	decision_no[3] 	0
scalar tree_4_3_u02_r3_network.node[3].content_store 	decision_ratio[3] 	1
scalar tree_4_3_u02_r3_network.node[4].core_layer 	interests[4] 	39170
scalar tree_4_3_u02_r3_network.node[4].core_layer 	data[4] 	37905
scalar tree_4_3_u02_r3_network.node[4].content_store 	p_hit[4] 	0.0322695940771
scalar tree_4_3_u02_r3_network.node[4].content_store 	hits[4] 	1264
scalar tree_4_3_u02_r3_network.node[4].content_store 	misses[4] 	37906
scalar tree_4_3_u02_r3_network.node[4].content_store 	decision_yes[4] 	37902
scalar tree_4_3_u02_r3_network.node[4].content_store 	decision_no[4] 	0
scalar tree_4_3_u02_r3_network.node[4].content_store 	decision_ratio[4] 	1
scalar tree_4_3_u02_r3_network.node[5].core_layer 	interests[5] 	37938
scalar tree_4_3_u02_r3_network.node[5].core_layer 	data[5] 	34144
scalar tree_4_3_u02_r3_network.node[5].content_store 	p_hit[5] 	0.099952554167326
scalar tree_4_3_u02_r3_network.node[5].content_store 	hits[5] 	3792
scalar tree_4_3_u02_r3_network.node[5].content_store 	misses[5] 	34146
scalar tree_4_3_u02_r3_network.node[5].content_store 	decision_yes[5] 	34141
scalar tree_4_3_u02_r3_network.node[5].content_store 	decision_no[5] 	0
scalar tree_4_3_u02_r3_network.node[5].content_store 	decision_ratio[5] 	1
scalar tree_4_3_u02_r3_network.node[6].core_layer 	interests[6] 	21721
scalar tree_4_3_u02_r3_network.node[6].core_layer 	data[6] 	20315
scalar tree_4_3_u02_r3_network.node[6].content_store 	p_hit[6] 	0.064729984807329
scalar tree_4_3_u02_r3_network.node[6].content_store 	hits[6] 	1406
scalar tree_4_3_u02_r3_network.node[6].content_store 	misses[6] 	20315
scalar tree_4_3_u02_r3_network.node[6].content_store 	decision_yes[6] 	20311
scalar tree_4_3_u02_r3_network.node[6].content_store 	decision_no[6] 	0
scalar tree_4_3_u02_r3_network.node[6].content_store 	decision_ratio[6] 	1
scalar tree_4_3_u02_r3_network.node[7].core_layer 	interests[7] 	41417
scalar tree_4_3_u02_r3_network.node[7].core_layer 	data[7] 	39753
scalar tree_4_3_u02_r3_network.node[7].content_store 	p_hit[7] 	0.040104304995533
scalar tree_4_3_u02_r3_network.node[7].content_store 	hits[7] 	1661
scalar tree_4_3_u02_r3_network.node[7].content_store 	misses[7] 	39756
scalar tree_4_3_u02_r3_network.node[7].content_store 	decision_yes[7] 	39749
scalar tree_4_3_u02_r3_network.node[7].content_store 	decision_no[7] 	0
scalar tree_4_3_u02_r3_network.node[7].content_store 	decision_ratio[7] 	1
scalar tree_4_3_u02_r3_network.node[8].core_layer 	interests[8] 	23284
scalar tree_4_3_u02_r3_network.node[8].core_layer 	data[8] 	20743
scalar tree_4_3_u02_r3_network.node[8].content_store 	p_hit[8] 	0.10913073355094
scalar tree_4_3_u02_r3_network.node[8].content_store 	hits[8] 	2541
scalar tree_4_3_u02_r3_network.node[8].content_store 	misses[8] 	20743
scalar tree_4_3_u02_r3_network.node[8].content_store 	decision_yes[8] 	20743
scalar tree_4_3_u02_r3_network.node[8].content_store 	decision_no[8] 	0
scalar tree_4_3_u02_r3_network.node[8].content_store 	decision_ratio[8] 	1
scalar tree_4_3_u02_r3_network.node[9].core_layer 	interests[9] 	32879
scalar tree_4_3_u02_r3_network.node[9].core_layer 	data[9] 	31085
scalar tree_4_3_u02_r3_network.node[9].content_store 	p_hit[9] 	0.054563703275647
scalar tree_4_3_u02_r3_network.node[9].content_store 	hits[9] 	1794
scalar tree_4_3_u02_r3_network.node[9].content_store 	misses[9] 	31085
scalar tree_4_3_u02_r3_network.node[9].content_store 	decision_yes[9] 	31083
scalar tree_4_3_u02_r3_network.node[9].content_store 	decision_no[9] 	0
scalar tree_4_3_u02_r3_network.node[9].content_store 	decision_ratio[9] 	1
scalar tree_4_3_u02_r3_network.node[10].core_layer 	interests[10] 	32534
scalar tree_4_3_u02_r3_network.node[10].core_layer 	data[10] 	30916
scalar tree_4_3_u02_r3_network.node[10].content_store 	p_hit[10] 	0.049609639146739
scalar tree_4_3_u02_r3_network.node[10].content_store 	hits[10] 	1614
scalar tree_4_3_u02_r3_network.node[10].content_store 	misses[10] 	30920
scalar tree_4_3_u02_r3_network.node[10].content_store 	decision_yes[10] 	30913
scalar tree_4_3_u02_r3_network.node[10].content_store 	decision_no[10] 	0
scalar tree_4_3_u02_r3_network.node[10].content_store 	decision_ratio[10] 	1
scalar tree_4_3_u02_r3_network.node[11].core_layer 	interests[11] 	32566
scalar tree_4_3_u02_r3_network.node[11].core_layer 	data[11] 	30885
scalar tree_4_3_u02_r3_network.node[11].content_store 	p_hit[11] 	0.051556838420438
scalar tree_4_3_u02_r3_network.node[11].content_store 	hits[11] 	1679
scalar tree_4_3_u02_r3_network.node[11].content_store 	misses[11] 	30887
scalar tree_4_3_u02_r3_network.node[11].content_store 	decision_yes[11] 	30881
scalar tree_4_3_u02_r3_network.node[11].content_store 	decision_no[11] 	0
scalar tree_4_3_u02_r3_network.node[11].content_store 	decision_ratio[11] 	1
scalar tree_4_3_u02_r3_network.node[12].core_layer 	interests[12] 	32535
scalar tree_4_3_u02_r3_network.node[12].core_layer 	data[12] 	30811
scalar tree_4_3_u02_r3_network.node[12].content_store 	p_hit[12] 	0.052866144152451
scalar tree_4_3_u02_r3_network.node[12].content_store 	hits[12] 	1720
scalar tree_4_3_u02_r3_network.node[12].content_store 	misses[12] 	30815
scalar tree_4_3_u02_r3_network.node[12].content_store 	decision_yes[12] 	30811
scalar tree_4_3_u02_r3_network.node[12].content_store 	decision_no[12] 	0
scalar tree_4_3_u02_r3_network.node[12].content_store 	decision_ratio[12] 	1
scalar tree_4_3_u02_r3_network.node[13].core_layer 	interests[13] 	12964
scalar tree_4_3_u02_r3_network.node[13].core_layer 	data[13] 	10088
scalar tree_4_3_u02_r3_network.node[13].content_store 	p_hit[13] 	0.22184510953409
scalar tree_4_3_u02_r3_network.node[13].content_store 	hits[13] 	2876
scalar tree_4_3_u02_r3_network.node[13].content_store 	misses[13] 	10088
scalar tree_4_3_u02_r3_network.node[13].content_store 	decision_yes[13] 	10088
scalar tree_4_3_u02_r3_network.node[13].content_store 	decision_no[13] 	0
scalar tree_4_3_u02_r3_network.node[13].content_store 	decision_ratio[13] 	1
scalar tree_4_3_u02_r3_network.node[14].core_layer 	interests[14] 	14901
scalar tree_4_3_u02_r3_network.node[14].core_layer 	data[14] 	9892
scalar tree_4_3_u02_r3_network.node[14].content_store 	p_hit[14] 	0.33608482652171
scalar tree_4_3_u02_r3_network.node[14].content_store 	hits[14] 	5008
scalar tree_4_3_u02_r3_network.node[14].content_store 	misses[14] 	9893
scalar tree_4_3_u02_r3_network.node[14].content_store 	decision_yes[14] 	9892
scalar tree_4_3_u02_r3_network.node[14].content_store 	decision_no[14] 	0
scalar tree_4_3_u02_r3_network.node[14].content_store 	decision_ratio[14] 	1
scalar tree_4_3_u02_r3_network.node[15].core_layer 	interests[15] 	12775
scalar tree_4_3_u02_r3_network.node[15].core_layer 	data[15] 	9985
scalar tree_4_3_u02_r3_network.node[15].content_store 	p_hit[15] 	0.21839530332681
scalar tree_4_3_u02_r3_network.node[15].content_store 	hits[15] 	2790
scalar tree_4_3_u02_r3_network.node[15].content_store 	misses[15] 	9985
scalar tree_4_3_u02_r3_network.node[15].content_store 	decision_yes[15] 	9985
scalar tree_4_3_u02_r3_network.node[15].content_store 	decision_no[15] 	0
scalar tree_4_3_u02_r3_network.node[15].content_store 	decision_ratio[15] 	1
scalar tree_4_3_u02_r3_network.node[16].core_layer 	interests[16] 	13703
scalar tree_4_3_u02_r3_network.node[16].core_layer 	data[16] 	10151
scalar tree_4_3_u02_r3_network.node[16].content_store 	p_hit[16] 	0.25914033423338
scalar tree_4_3_u02_r3_network.node[16].content_store 	hits[16] 	3551
scalar tree_4_3_u02_r3_network.node[16].content_store 	misses[16] 	10152
scalar tree_4_3_u02_r3_network.node[16].content_store 	decision_yes[16] 	10151
scalar tree_4_3_u02_r3_network.node[16].content_store 	decision_no[16] 	0
scalar tree_4_3_u02_r3_network.node[16].content_store 	decision_ratio[16] 	1
scalar tree_4_3_u02_r3_network.node[17].core_layer 	interests[17] 	13508
scalar tree_4_3_u02_r3_network.node[17].core_layer 	data[17] 	9935
scalar tree_4_3_u02_r3_network.node[17].content_store 	p_hit[17] 	0.26450992004738
scalar tree_4_3_u02_r3_network.node[17].content_store 	hits[17] 	3573
scalar tree_4_3_u02_r3_network.node[17].content_store 	misses[17] 	9935
scalar tree_4_3_u02_r3_network.node[17].content_store 	decision_yes[17] 	9935
scalar tree_4_3_u02_r3_network.node[17].content_store 	decision_no[17] 	0
scalar tree_4_3_u02_r3_network.node[17].content_store 	decision_ratio[17] 	1
scalar tree_4_3_u02_r3_network.node[18].core_layer 	interests[18] 	13647
scalar tree_4_3_u02_r3_network.node[18].core_layer 	data[18] 	9989
scalar tree_4_3_u02_r3_network.node[18].content_store 	p_hit[18] 	0.26797098263355
scalar tree_4_3_u02_r3_network.node[18].content_store 	hits[18] 	3657
scalar tree_4_3_u02_r3_network.node[18].content_store 	misses[18] 	9990
scalar tree_4_3_u02_r3_network.node[18].content_store 	decision_yes[18] 	9989
scalar tree_4_3_u02_r3_network.node[18].content_store 	decision_no[18] 	0
scalar tree_4_3_u02_r3_network.node[18].content_store 	decision_ratio[18] 	1
scalar tree_4_3_u02_r3_network.node[19].core_layer 	interests[19] 	13831
scalar tree_4_3_u02_r3_network.node[19].core_layer 	data[19] 	10002
scalar tree_4_3_u02_r3_network.node[19].content_store 	p_hit[19] 	0.2768418769431
scalar tree_4_3_u02_r3_network.node[19].content_store 	hits[19] 	3829
scalar tree_4_3_u02_r3_network.node[19].content_store 	misses[19] 	10002
scalar tree_4_3_u02_r3_network.node[19].content_store 	decision_yes[19] 	10002
scalar tree_4_3_u02_r3_network.node[19].content_store 	decision_no[19] 	0
scalar tree_4_3_u02_r3_network.node[19].content_store 	decision_ratio[19] 	1
scalar tree_4_3_u02_r3_network.node[20].core_layer 	interests[20] 	12353
scalar tree_4_3_u02_r3_network.node[20].core_layer 	data[20] 	9898
scalar tree_4_3_u02_r3_network.node[20].content_store 	p_hit[20] 	0.19873714887072
scalar tree_4_3_u02_r3_network.node[20].content_store 	hits[20] 	2455
scalar tree_4_3_u02_r3_network.node[20].content_store 	misses[20] 	9898
scalar tree_4_3_u02_r3_network.node[20].content_store 	decision_yes[20] 	9898
scalar tree_4_3_u02_r3_network.node[20].content_store 	decision_no[20] 	0
scalar tree_4_3_u02_r3_network.node[20].content_store 	decision_ratio[20] 	1
scalar tree_4_3_u02_r3_network.node[21].core_layer 	interests[21] 	12650
scalar tree_4_3_u02_r3_network.node[21].core_layer 	data[21] 	10124
scalar tree_4_3_u02_r3_network.node[21].content_store 	p_hit[21] 	0.1996837944664
scalar tree_4_3_u02_r3_network.node[21].content_store 	hits[21] 	2526
scalar tree_4_3_u02_r3_network.node[21].content_store 	misses[21] 	10124
scalar tree_4_3_u02_r3_network.node[21].content_store 	decision_yes[21] 	10124
scalar tree_4_3_u02_r3_network.node[21].content_store 	decision_no[21] 	0
scalar tree_4_3_u02_r3_network.node[21].content_store 	decision_ratio[21] 	1
scalar tree_4_3_u02_r3_network.node[22].core_layer 	interests[22] 	13089
scalar tree_4_3_u02_r3_network.node[22].core_layer 	data[22] 	10089
scalar tree_4_3_u02_r3_network.node[22].content_store 	p_hit[22] 	0.22920009168004
scalar tree_4_3_u02_r3_network.node[22].content_store 	hits[22] 	3000
scalar tree_4_3_u02_r3_network.node[22].content_store 	misses[22] 	10089
scalar tree_4_3_u02_r3_network.node[22].content_store 	decision_yes[22] 	10089
scalar tree_4_3_u02_r3_network.node[22].content_store 	decision_no[22] 	0
scalar tree_4_3_u02_r3_network.node[22].content_store 	decision_ratio[22] 	1
scalar tree_4_3_u02_r3_network.node[23].core_layer 	interests[23] 	13915
scalar tree_4_3_u02_r3_network.node[23].core_layer 	data[23] 	10202
scalar tree_4_3_u02_r3_network.node[23].content_store 	p_hit[23] 	0.26676248652533
scalar tree_4_3_u02_r3_network.node[23].content_store 	hits[23] 	3712
scalar tree_4_3_u02_r3_network.node[23].content_store 	misses[23] 	10203
scalar tree_4_3_u02_r3_network.node[23].content_store 	decision_yes[23] 	10202
scalar tree_4_3_u02_r3_network.node[23].content_store 	decision_no[23] 	0
scalar tree_4_3_u02_r3_network.node[23].content_store 	decision_ratio[23] 	1
scalar tree_4_3_u02_r3_network.node[24].core_layer 	interests[24] 	12945
scalar tree_4_3_u02_r3_network.node[24].core_layer 	data[24] 	9858
scalar tree_4_3_u02_r3_network.node[24].content_store 	p_hit[24] 	0.2383932020085
scalar tree_4_3_u02_r3_network.node[24].content_store 	hits[24] 	3086
scalar tree_4_3_u02_r3_network.node[24].content_store 	misses[24] 	9859
scalar tree_4_3_u02_r3_network.node[24].content_store 	decision_yes[24] 	9858
scalar tree_4_3_u02_r3_network.node[24].content_store 	decision_no[24] 	0
scalar tree_4_3_u02_r3_network.node[24].content_store 	decision_ratio[24] 	1
scalar tree_4_3_u02_r3_network.node[25].core_layer 	interests[25] 	13806
scalar tree_4_3_u02_r3_network.node[25].core_layer 	data[25] 	9909
scalar tree_4_3_u02_r3_network.node[25].content_store 	p_hit[25] 	0.28226857887875
scalar tree_4_3_u02_r3_network.node[25].content_store 	hits[25] 	3897
scalar tree_4_3_u02_r3_network.node[25].content_store 	misses[25] 	9909
scalar tree_4_3_u02_r3_network.node[25].content_store 	decision_yes[25] 	9909
scalar tree_4_3_u02_r3_network.node[25].content_store 	decision_no[25] 	0
scalar tree_4_3_u02_r3_network.node[25].content_store 	decision_ratio[25] 	1
scalar tree_4_3_u02_r3_network.node[26].core_layer 	interests[26] 	12755
scalar tree_4_3_u02_r3_network.node[26].core_layer 	data[26] 	10003
scalar tree_4_3_u02_r3_network.node[26].content_store 	p_hit[26] 	0.2156017248138
scalar tree_4_3_u02_r3_network.node[26].content_store 	hits[26] 	2750
scalar tree_4_3_u02_r3_network.node[26].content_store 	misses[26] 	10005
scalar tree_4_3_u02_r3_network.node[26].content_store 	decision_yes[26] 	10003
scalar tree_4_3_u02_r3_network.node[26].content_store 	decision_no[26] 	0
scalar tree_4_3_u02_r3_network.node[26].content_store 	decision_ratio[26] 	1
scalar tree_4_3_u02_r3_network.node[27].core_layer 	interests[27] 	12807
scalar tree_4_3_u02_r3_network.node[27].core_layer 	data[27] 	10074
scalar tree_4_3_u02_r3_network.node[27].content_store 	p_hit[27] 	0.21332084016553
scalar tree_4_3_u02_r3_network.node[27].content_store 	hits[27] 	2732
scalar tree_4_3_u02_r3_network.node[27].content_store 	misses[27] 	10075
scalar tree_4_3_u02_r3_network.node[27].content_store 	decision_yes[27] 	10074
scalar tree_4_3_u02_r3_network.node[27].content_store 	decision_no[27] 	0
scalar tree_4_3_u02_r3_network.node[27].content_store 	decision_ratio[27] 	1
scalar tree_4_3_u02_r3_network.node[28].core_layer 	interests[28] 	13188
scalar tree_4_3_u02_r3_network.node[28].core_layer 	data[28] 	9990
scalar tree_4_3_u02_r3_network.node[28].content_store 	p_hit[28] 	0.24241734910525
scalar tree_4_3_u02_r3_network.node[28].content_store 	hits[28] 	3197
scalar tree_4_3_u02_r3_network.node[28].content_store 	misses[28] 	9991
scalar tree_4_3_u02_r3_network.node[28].content_store 	decision_yes[28] 	9990
scalar tree_4_3_u02_r3_network.node[28].content_store 	decision_no[28] 	0
scalar tree_4_3_u02_r3_network.node[28].content_store 	decision_ratio[28] 	1
scalar tree_4_3_u02_r3_network.node[29].core_layer 	interests[29] 	13183
scalar tree_4_3_u02_r3_network.node[29].core_layer 	data[29] 	10147
scalar tree_4_3_u02_r3_network.node[29].content_store 	p_hit[29] 	0.23029659409846
scalar tree_4_3_u02_r3_network.node[29].content_store 	hits[29] 	3036
scalar tree_4_3_u02_r3_network.node[29].content_store 	misses[29] 	10147
scalar tree_4_3_u02_r3_network.node[29].content_store 	decision_yes[29] 	10147
scalar tree_4_3_u02_r3_network.node[29].content_store 	decision_no[29] 	0
scalar tree_4_3_u02_r3_network.node[29].content_store 	decision_ratio[29] 	1
scalar tree_4_3_u02_r3_network.node[30].core_layer 	interests[30] 	13189
scalar tree_4_3_u02_r3_network.node[30].core_layer 	data[30] 	10217
scalar tree_4_3_u02_r3_network.node[30].content_store 	p_hit[30] 	0.22533929789976
scalar tree_4_3_u02_r3_network.node[30].content_store 	hits[30] 	2972
scalar tree_4_3_u02_r3_network.node[30].content_store 	misses[30] 	10217
scalar tree_4_3_u02_r3_network.node[30].content_store 	decision_yes[30] 	10217
scalar tree_4_3_u02_r3_network.node[30].content_store 	decision_no[30] 	0
scalar tree_4_3_u02_r3_network.node[30].content_store 	decision_ratio[30] 	1
scalar tree_4_3_u02_r3_network.node[31].core_layer 	interests[31] 	13244
scalar tree_4_3_u02_r3_network.node[31].core_layer 	data[31] 	10187
scalar tree_4_3_u02_r3_network.node[31].content_store 	p_hit[31] 	0.23082150407732
scalar tree_4_3_u02_r3_network.node[31].content_store 	hits[31] 	3057
scalar tree_4_3_u02_r3_network.node[31].content_store 	misses[31] 	10187
scalar tree_4_3_u02_r3_network.node[31].content_store 	decision_yes[31] 	10187
scalar tree_4_3_u02_r3_network.node[31].content_store 	decision_no[31] 	0
scalar tree_4_3_u02_r3_network.node[31].content_store 	decision_ratio[31] 	1
scalar tree_4_3_u02_r3_network.node[32].core_layer 	interests[32] 	13073
scalar tree_4_3_u02_r3_network.node[32].core_layer 	data[32] 	10026
scalar tree_4_3_u02_r3_network.node[32].content_store 	p_hit[32] 	0.23299931155817
scalar tree_4_3_u02_r3_network.node[32].content_store 	hits[32] 	3046
scalar tree_4_3_u02_r3_network.node[32].content_store 	misses[32] 	10027
scalar tree_4_3_u02_r3_network.node[32].content_store 	decision_yes[32] 	10026
scalar tree_4_3_u02_r3_network.node[32].content_store 	decision_no[32] 	0
scalar tree_4_3_u02_r3_network.node[32].content_store 	decision_ratio[32] 	1
scalar tree_4_3_u02_r3_network.node[33].core_layer 	interests[33] 	13010
scalar tree_4_3_u02_r3_network.node[33].core_layer 	data[33] 	9980
scalar tree_4_3_u02_r3_network.node[33].content_store 	p_hit[33] 	0.23274404304381
scalar tree_4_3_u02_r3_network.node[33].content_store 	hits[33] 	3028
scalar tree_4_3_u02_r3_network.node[33].content_store 	misses[33] 	9982
scalar tree_4_3_u02_r3_network.node[33].content_store 	decision_yes[33] 	9980
scalar tree_4_3_u02_r3_network.node[33].content_store 	decision_no[33] 	0
scalar tree_4_3_u02_r3_network.node[33].content_store 	decision_ratio[33] 	1
scalar tree_4_3_u02_r3_network.node[34].core_layer 	interests[34] 	13211
scalar tree_4_3_u02_r3_network.node[34].core_layer 	data[34] 	10139
scalar tree_4_3_u02_r3_network.node[34].content_store 	p_hit[34] 	0.23245780031792
scalar tree_4_3_u02_r3_network.node[34].content_store 	hits[34] 	3071
scalar tree_4_3_u02_r3_network.node[34].content_store 	misses[34] 	10140
scalar tree_4_3_u02_r3_network.node[34].content_store 	decision_yes[34] 	10139
scalar tree_4_3_u02_r3_network.node[34].content_store 	decision_no[34] 	0
scalar tree_4_3_u02_r3_network.node[34].content_store 	decision_ratio[34] 	1
scalar tree_4_3_u02_r3_network.node[35].core_layer 	interests[35] 	13142
scalar tree_4_3_u02_r3_network.node[35].core_layer 	data[35] 	10098
scalar tree_4_3_u02_r3_network.node[35].content_store 	p_hit[35] 	0.2314716177142
scalar tree_4_3_u02_r3_network.node[35].content_store 	hits[35] 	3042
scalar tree_4_3_u02_r3_network.node[35].content_store 	misses[35] 	10100
scalar tree_4_3_u02_r3_network.node[35].content_store 	decision_yes[35] 	10098
scalar tree_4_3_u02_r3_network.node[35].content_store 	decision_no[35] 	0
scalar tree_4_3_u02_r3_network.node[35].content_store 	decision_ratio[35] 	1
scalar tree_4_3_u02_r3_network.node[36].core_layer 	interests[36] 	13068
scalar tree_4_3_u02_r3_network.node[36].core_layer 	data[36] 	9996
scalar tree_4_3_u02_r3_network.node[36].content_store 	p_hit[36] 	0.23500153045608
scalar tree_4_3_u02_r3_network.node[36].content_store 	hits[36] 	3071
scalar tree_4_3_u02_r3_network.node[36].content_store 	misses[36] 	9997
scalar tree_4_3_u02_r3_network.node[36].content_store 	decision_yes[36] 	9996
scalar tree_4_3_u02_r3_network.node[36].content_store 	decision_no[36] 	0
scalar tree_4_3_u02_r3_network.node[36].content_store 	decision_ratio[36] 	1
scalar tree_4_3_u02_r3_network.node[37].core_layer 	interests[37] 	13245
scalar tree_4_3_u02_r3_network.node[37].core_layer 	data[37] 	10205
scalar tree_4_3_u02_r3_network.node[37].content_store 	p_hit[37] 	0.22952057380143
scalar tree_4_3_u02_r3_network.node[37].content_store 	hits[37] 	3040
scalar tree_4_3_u02_r3_network.node[37].content_store 	misses[37] 	10205
scalar tree_4_3_u02_r3_network.node[37].content_store 	decision_yes[37] 	10205
scalar tree_4_3_u02_r3_network.node[37].content_store 	decision_no[37] 	0
scalar tree_4_3_u02_r3_network.node[37].content_store 	decision_ratio[37] 	1
scalar tree_4_3_u02_r3_network.node[38].core_layer 	interests[38] 	13006
scalar tree_4_3_u02_r3_network.node[38].core_layer 	data[38] 	9895
scalar tree_4_3_u02_r3_network.node[38].content_store 	p_hit[38] 	0.23912040596648
scalar tree_4_3_u02_r3_network.node[38].content_store 	hits[38] 	3110
scalar tree_4_3_u02_r3_network.node[38].content_store 	misses[38] 	9896
scalar tree_4_3_u02_r3_network.node[38].content_store 	decision_yes[38] 	9895
scalar tree_4_3_u02_r3_network.node[38].content_store 	decision_no[38] 	0
scalar tree_4_3_u02_r3_network.node[38].content_store 	decision_ratio[38] 	1
scalar tree_4_3_u02_r3_network.node[39].core_layer 	interests[39] 	13075
scalar tree_4_3_u02_r3_network.node[39].core_layer 	data[39] 	10044
scalar tree_4_3_u02_r3_network.node[39].content_store 	p_hit[39] 	0.23173996175908
scalar tree_4_3_u02_r3_network.node[39].content_store 	hits[39] 	3030
scalar tree_4_3_u02_r3_network.node[39].content_store 	misses[39] 	10045
scalar tree_4_3_u02_r3_network.node[39].content_store 	decision_yes[39] 	10044
scalar tree_4_3_u02_r3_network.node[39].content_store 	decision_no[39] 	0
scalar tree_4_3_u02_r3_network.node[39].content_store 	decision_ratio[39] 	1
scalar tree_4_3_u02_r3_network.client[13] 	hdistance[13] 	3.0986476395918
scalar tree_4_3_u02_r3_network.client[13] 	downloads[13] 	12053
scalar tree_4_3_u02_r3_network.client[13] 	avg_time[13] 	0.004845801427
scalar tree_4_3_u02_r3_network.client[14] 	hdistance[14] 	2.9662014461073
scalar tree_4_3_u02_r3_network.client[14] 	downloads[14] 	11894
scalar tree_4_3_u02_r3_network.client[14] 	avg_time[14] 	0.00467865853
scalar tree_4_3_u02_r3_network.client[15] 	hdistance[15] 	3.0981363331095
scalar tree_4_3_u02_r3_network.client[15] 	downloads[15] 	11912
scalar tree_4_3_u02_r3_network.client[15] 	avg_time[15] 	0.004842340888
scalar tree_4_3_u02_r3_network.client[16] 	hdistance[16] 	3.066500622665
scalar tree_4_3_u02_r3_network.client[16] 	downloads[16] 	12045
scalar tree_4_3_u02_r3_network.client[16] 	avg_time[16] 	0.004870196071
scalar tree_4_3_u02_r3_network.client[17] 	hdistance[17] 	3.057415863352
scalar tree_4_3_u02_r3_network.client[17] 	downloads[17] 	11826
scalar tree_4_3_u02_r3_network.client[17] 	avg_time[17] 	0.004857429767
scalar tree_4_3_u02_r3_network.client[18] 	hdistance[18] 	3.0412448757634
scalar tree_4_3_u02_r3_network.client[18] 	downloads[18] 	11953
scalar tree_4_3_u02_r3_network.client[18] 	avg_time[18] 	0.004830575431
scalar tree_4_3_u02_r3_network.client[19] 	hdistance[19] 	3.0195704453106
scalar tree_4_3_u02_r3_network.client[19] 	downloads[19] 	12059
scalar tree_4_3_u02_r3_network.client[19] 	avg_time[19] 	0.004683976127
scalar tree_4_3_u02_r3_network.client[20] 	hdistance[20] 	3.1651884700665
scalar tree_4_3_u02_r3_network.client[20] 	downloads[20] 	11726
scalar tree_4_3_u02_r3_network.client[20] 	avg_time[20] 	0.004960256312
scalar tree_4_3_u02_r3_network.client[21] 	hdistance[21] 	3.1413260219342
scalar tree_4_3_u02_r3_network.client[21] 	downloads[21] 	12036
scalar tree_4_3_u02_r3_network.client[21] 	avg_time[21] 	0.004926052128
scalar tree_4_3_u02_r3_network.client[22] 	hdistance[22] 	3.106384756811
scalar tree_4_3_u02_r3_network.client[22] 	downloads[22] 	11966
scalar tree_4_3_u02_r3_network.client[22] 	avg_time[22] 	0.004898825818
scalar tree_4_3_u02_r3_network.client[23] 	hdistance[23] 	3.0528885946035
scalar tree_4_3_u02_r3_network.client[23] 	downloads[23] 	12082
scalar tree_4_3_u02_r3_network.client[23] 	avg_time[23] 	0.004776188037
scalar tree_4_3_u02_r3_network.client[24] 	hdistance[24] 	3.0817434071059
scalar tree_4_3_u02_r3_network.client[24] 	downloads[24] 	11793
scalar tree_4_3_u02_r3_network.client[24] 	avg_time[24] 	0.004862460741
scalar tree_4_3_u02_r3_network.client[25] 	hdistance[25] 	3.0301138760017
scalar tree_4_3_u02_r3_network.client[25] 	downloads[25] 	11855
scalar tree_4_3_u02_r3_network.client[25] 	avg_time[25] 	0.004737356772
scalar tree_4_3_u02_r3_network.client[26] 	hdistance[26] 	3.0861204013378
scalar tree_4_3_u02_r3_network.client[26] 	downloads[26] 	11960
scalar tree_4_3_u02_r3_network.client[26] 	avg_time[26] 	0.004873193709
scalar tree_4_3_u02_r3_network.client[27] 	hdistance[27] 	3.0848162314984
scalar tree_4_3_u02_r3_network.client[27] 	downloads[27] 	12026
scalar tree_4_3_u02_r3_network.client[27] 	avg_time[27] 	0.004865110245
scalar tree_4_3_u02_r3_network.client[28] 	hdistance[28] 	3.097571119614
scalar tree_4_3_u02_r3_network.client[28] 	downloads[28] 	12022
scalar tree_4_3_u02_r3_network.client[28] 	avg_time[28] 	0.004902509078
scalar tree_4_3_u02_r3_network.client[29] 	hdistance[29] 	3.1346600331675
scalar tree_4_3_u02_r3_network.client[29] 	downloads[29] 	12060
scalar tree_4_3_u02_r3_network.client[29] 	avg_time[29] 	0.004959804679
scalar tree_4_3_u02_r3_network.client[30] 	hdistance[30] 	3.1274226804124
scalar tree_4_3_u02_r3_network.client[30] 	downloads[30] 	12125
scalar tree_4_3_u02_r3_network.client[30] 	avg_time[30] 	0.00494762583
scalar tree_4_3_u02_r3_network.client[31] 	hdistance[31] 	3.1397796415063
scalar tree_4_3_u02_r3_network.client[31] 	downloads[31] 	12162
scalar tree_4_3_u02_r3_network.client[31] 	avg_time[31] 	0.004909386865
scalar tree_4_3_u02_r3_network.client[32] 	hdistance[32] 	3.1380115009584
scalar tree_4_3_u02_r3_network.client[32] 	downloads[32] 	11999
scalar tree_4_3_u02_r3_network.client[32] 	avg_time[32] 	0.004901283178
scalar tree_4_3_u02_r3_network.client[33] 	hdistance[33] 	3.1343621571752
scalar tree_4_3_u02_r3_network.client[33] 	downloads[33] 	11923
scalar tree_4_3_u02_r3_network.client[33] 	avg_time[33] 	0.004895832304
scalar tree_4_3_u02_r3_network.client[34] 	hdistance[34] 	3.1213220143411
scalar tree_4_3_u02_r3_network.client[34] 	downloads[34] 	12133
scalar tree_4_3_u02_r3_network.client[34] 	avg_time[34] 	0.004877470844
scalar tree_4_3_u02_r3_network.client[35] 	hdistance[35] 	3.1316619624772
scalar tree_4_3_u02_r3_network.client[35] 	downloads[35] 	12046
scalar tree_4_3_u02_r3_network.client[35] 	avg_time[35] 	0.004894506163
scalar tree_4_3_u02_r3_network.client[36] 	hdistance[36] 	3.1320896770955
scalar tree_4_3_u02_r3_network.client[36] 	downloads[36] 	11954
scalar tree_4_3_u02_r3_network.client[36] 	avg_time[36] 	0.004890078726
scalar tree_4_3_u02_r3_network.client[37] 	hdistance[37] 	3.1391875256463
scalar tree_4_3_u02_r3_network.client[37] 	downloads[37] 	12185
scalar tree_4_3_u02_r3_network.client[37] 	avg_time[37] 	0.004906393875
scalar tree_4_3_u02_r3_network.client[38] 	hdistance[38] 	3.1156239488732
scalar tree_4_3_u02_r3_network.client[38] 	downloads[38] 	11892
scalar tree_4_3_u02_r3_network.client[38] 	avg_time[38] 	0.004866125506
scalar tree_4_3_u02_r3_network.client[39] 	hdistance[39] 	3.1290268875385
scalar tree_4_3_u02_r3_network.client[39] 	downloads[39] 	12013
scalar tree_4_3_u02_r3_network.client[39] 	avg_time[39] 	0.00489216796
