version 2
run General-411-20160901-08:09:29-8710
attr a 0.9
attr cd ffc
attr configname General
attr cr lru
attr datetime 20160901-08:09:29
attr experiment General
attr fsize 1
attr inifile hw5115/scenario_Y/omnetp.ini
attr iterationvars "$name=tree_4_3, $un=06, $rep=18, $cd=ffc, $cr=lru, $fsize=1, $a=0.9, $sl=nrr, $ttl=1000, $variance=0.05"
attr iterationvars2 "$name=tree_4_3, $un=06, $rep=18, $cd=ffc, $cr=lru, $fsize=1, $a=0.9, $sl=nrr, $ttl=1000, $variance=0.05, $repetition=0"
attr measurement "$name=tree_4_3, $un=06, $rep=18, $cd=ffc, $cr=lru, $fsize=1, $a=0.9, $sl=nrr, $ttl=1000, $variance=0.05"
attr name tree_4_3
attr network networks.${name}_u${un}_r${rep}_network
attr processid 8710
attr rep 18
attr repetition 0
attr replication #0
attr resultdir results
attr runnumber 411
attr seedset 18
attr sl nrr
attr ttl 1000
attr un 06
attr variance 0.05

scalar . 	a 	0.9
scalar . 	fsize 	1
scalar . 	rep 	18
scalar . 	ttl 	1000
scalar . 	un 	06
scalar . 	variance 	0.05
scalar tree_4_3_u06_r18_network.content_distribution 	repo-0 	0
scalar tree_4_3_u06_r18_network.content_distribution 	client-0 	13
scalar tree_4_3_u06_r18_network.content_distribution 	client-1 	14
scalar tree_4_3_u06_r18_network.content_distribution 	client-2 	15
scalar tree_4_3_u06_r18_network.content_distribution 	client-3 	16
scalar tree_4_3_u06_r18_network.content_distribution 	client-4 	17
scalar tree_4_3_u06_r18_network.content_distribution 	client-5 	18
scalar tree_4_3_u06_r18_network.content_distribution 	client-6 	19
scalar tree_4_3_u06_r18_network.content_distribution 	client-7 	20
scalar tree_4_3_u06_r18_network.content_distribution 	client-8 	21
scalar tree_4_3_u06_r18_network.content_distribution 	client-9 	22
scalar tree_4_3_u06_r18_network.content_distribution 	client-10 	23
scalar tree_4_3_u06_r18_network.content_distribution 	client-11 	24
scalar tree_4_3_u06_r18_network.content_distribution 	client-12 	25
scalar tree_4_3_u06_r18_network.content_distribution 	client-13 	26
scalar tree_4_3_u06_r18_network.content_distribution 	client-14 	27
scalar tree_4_3_u06_r18_network.content_distribution 	client-15 	28
scalar tree_4_3_u06_r18_network.content_distribution 	client-16 	29
scalar tree_4_3_u06_r18_network.content_distribution 	client-17 	30
scalar tree_4_3_u06_r18_network.content_distribution 	client-18 	31
scalar tree_4_3_u06_r18_network.content_distribution 	client-19 	32
scalar tree_4_3_u06_r18_network.content_distribution 	client-20 	33
scalar tree_4_3_u06_r18_network.content_distribution 	client-21 	34
scalar tree_4_3_u06_r18_network.content_distribution 	client-22 	35
scalar tree_4_3_u06_r18_network.content_distribution 	client-23 	36
scalar tree_4_3_u06_r18_network.content_distribution 	client-24 	37
scalar tree_4_3_u06_r18_network.content_distribution 	client-25 	38
scalar tree_4_3_u06_r18_network.content_distribution 	client-26 	39
scalar tree_4_3_u06_r18_network.content_distribution 	repo-0_card 	100000
scalar tree_4_3_u06_r18_network.content_distribution 	repo-0_price 	0
scalar tree_4_3_u06_r18_network.statistics 	stabilization_time 	950
scalar tree_4_3_u06_r18_network.statistics 	p_hit 	0.23790014649272
scalar tree_4_3_u06_r18_network.statistics 	interests 	24849.55
scalar tree_4_3_u06_r18_network.statistics 	data 	16736.425
scalar tree_4_3_u06_r18_network.statistics 	hdistance 	2.6289267487557
scalar tree_4_3_u06_r18_network.statistics 	avg_time 	0.004125749689
scalar tree_4_3_u06_r18_network.statistics 	downloads 	324527
scalar tree_4_3_u06_r18_network.statistics 	total_cost 	0
scalar tree_4_3_u06_r18_network.statistics 	total_replicas 	100000
scalar tree_4_3_u06_r18_network.statistics 	inner_hit 	0.43402243881095
scalar tree_4_3_u06_r18_network.node[0].core_layer 	interests[0] 	186096
scalar tree_4_3_u06_r18_network.node[0].core_layer 	repo_load[0] 	183675
scalar tree_4_3_u06_r18_network.node[0].core_layer 	data[0] 	0
scalar tree_4_3_u06_r18_network.node[0].core_layer 	repo_int[0] 	183675
scalar tree_4_3_u06_r18_network.node[0].content_store 	p_hit[0] 	0.013009414495744
scalar tree_4_3_u06_r18_network.node[0].content_store 	hits[0] 	2421
scalar tree_4_3_u06_r18_network.node[0].content_store 	misses[0] 	183675
scalar tree_4_3_u06_r18_network.node[0].content_store 	decision_yes[0] 	817
scalar tree_4_3_u06_r18_network.node[0].content_store 	decision_no[0] 	182858
scalar tree_4_3_u06_r18_network.node[0].content_store 	decision_ratio[0] 	0.0044480740438274
scalar tree_4_3_u06_r18_network.node[1].core_layer 	interests[1] 	94900
scalar tree_4_3_u06_r18_network.node[1].core_layer 	data[1] 	93132
scalar tree_4_3_u06_r18_network.node[1].content_store 	p_hit[1] 	0.018619599578504
scalar tree_4_3_u06_r18_network.node[1].content_store 	hits[1] 	1767
scalar tree_4_3_u06_r18_network.node[1].content_store 	misses[1] 	93133
scalar tree_4_3_u06_r18_network.node[1].content_store 	decision_yes[1] 	436
scalar tree_4_3_u06_r18_network.node[1].content_store 	decision_no[1] 	92696
scalar tree_4_3_u06_r18_network.node[1].content_store 	decision_ratio[1] 	0.0046815272945926
scalar tree_4_3_u06_r18_network.node[2].core_layer 	interests[2] 	85150
scalar tree_4_3_u06_r18_network.node[2].core_layer 	data[2] 	82407
scalar tree_4_3_u06_r18_network.node[2].content_store 	p_hit[2] 	0.032213740458015
scalar tree_4_3_u06_r18_network.node[2].content_store 	hits[2] 	2743
scalar tree_4_3_u06_r18_network.node[2].content_store 	misses[2] 	82407
scalar tree_4_3_u06_r18_network.node[2].content_store 	decision_yes[2] 	483
scalar tree_4_3_u06_r18_network.node[2].content_store 	decision_no[2] 	81924
scalar tree_4_3_u06_r18_network.node[2].content_store 	decision_ratio[2] 	0.0058611525719902
scalar tree_4_3_u06_r18_network.node[3].core_layer 	interests[3] 	30643
scalar tree_4_3_u06_r18_network.node[3].core_layer 	data[3] 	26906
scalar tree_4_3_u06_r18_network.node[3].content_store 	p_hit[3] 	0.1219854452893
scalar tree_4_3_u06_r18_network.node[3].content_store 	hits[3] 	3738
scalar tree_4_3_u06_r18_network.node[3].content_store 	misses[3] 	26905
scalar tree_4_3_u06_r18_network.node[3].content_store 	decision_yes[3] 	386
scalar tree_4_3_u06_r18_network.node[3].content_store 	decision_no[3] 	26520
scalar tree_4_3_u06_r18_network.node[3].content_store 	decision_ratio[3] 	0.014346242473798
scalar tree_4_3_u06_r18_network.node[4].core_layer 	interests[4] 	41902
scalar tree_4_3_u06_r18_network.node[4].core_layer 	data[4] 	39320
scalar tree_4_3_u06_r18_network.node[4].content_store 	p_hit[4] 	0.061548374779247
scalar tree_4_3_u06_r18_network.node[4].content_store 	hits[4] 	2579
scalar tree_4_3_u06_r18_network.node[4].content_store 	misses[4] 	39323
scalar tree_4_3_u06_r18_network.node[4].content_store 	decision_yes[4] 	308
scalar tree_4_3_u06_r18_network.node[4].content_store 	decision_no[4] 	39012
scalar tree_4_3_u06_r18_network.node[4].content_store 	decision_ratio[4] 	0.0078331637843337
scalar tree_4_3_u06_r18_network.node[5].core_layer 	interests[5] 	29344
scalar tree_4_3_u06_r18_network.node[5].core_layer 	data[5] 	25979
scalar tree_4_3_u06_r18_network.node[5].content_store 	p_hit[5] 	0.1146060523446
scalar tree_4_3_u06_r18_network.node[5].content_store 	hits[5] 	3363
scalar tree_4_3_u06_r18_network.node[5].content_store 	misses[5] 	25981
scalar tree_4_3_u06_r18_network.node[5].content_store 	decision_yes[5] 	301
scalar tree_4_3_u06_r18_network.node[5].content_store 	decision_no[5] 	25678
scalar tree_4_3_u06_r18_network.node[5].content_store 	decision_ratio[5] 	0.011586281227145
scalar tree_4_3_u06_r18_network.node[6].core_layer 	interests[6] 	13604
scalar tree_4_3_u06_r18_network.node[6].core_layer 	data[6] 	10422
scalar tree_4_3_u06_r18_network.node[6].content_store 	p_hit[6] 	0.23390179359012
scalar tree_4_3_u06_r18_network.node[6].content_store 	hits[6] 	3182
scalar tree_4_3_u06_r18_network.node[6].content_store 	misses[6] 	10422
scalar tree_4_3_u06_r18_network.node[6].content_store 	decision_yes[6] 	276
scalar tree_4_3_u06_r18_network.node[6].content_store 	decision_no[6] 	10146
scalar tree_4_3_u06_r18_network.node[6].content_store 	decision_ratio[6] 	0.026482440990213
scalar tree_4_3_u06_r18_network.node[7].core_layer 	interests[7] 	42350
scalar tree_4_3_u06_r18_network.node[7].core_layer 	data[7] 	39922
scalar tree_4_3_u06_r18_network.node[7].content_store 	p_hit[7] 	0.057308146399055
scalar tree_4_3_u06_r18_network.node[7].content_store 	hits[7] 	2427
scalar tree_4_3_u06_r18_network.node[7].content_store 	misses[7] 	39923
scalar tree_4_3_u06_r18_network.node[7].content_store 	decision_yes[7] 	321
scalar tree_4_3_u06_r18_network.node[7].content_store 	decision_no[7] 	39601
scalar tree_4_3_u06_r18_network.node[7].content_store 	decision_ratio[7] 	0.0080406793246831
scalar tree_4_3_u06_r18_network.node[8].core_layer 	interests[8] 	27744
scalar tree_4_3_u06_r18_network.node[8].core_layer 	data[8] 	24991
scalar tree_4_3_u06_r18_network.node[8].content_store 	p_hit[8] 	0.099264705882353
scalar tree_4_3_u06_r18_network.node[8].content_store 	hits[8] 	2754
scalar tree_4_3_u06_r18_network.node[8].content_store 	misses[8] 	24990
scalar tree_4_3_u06_r18_network.node[8].content_store 	decision_yes[8] 	277
scalar tree_4_3_u06_r18_network.node[8].content_store 	decision_no[8] 	24714
scalar tree_4_3_u06_r18_network.node[8].content_store 	decision_ratio[8] 	0.011083990236485
scalar tree_4_3_u06_r18_network.node[9].core_layer 	interests[9] 	14391
scalar tree_4_3_u06_r18_network.node[9].core_layer 	data[9] 	10752
scalar tree_4_3_u06_r18_network.node[9].content_store 	p_hit[9] 	0.25286637481759
scalar tree_4_3_u06_r18_network.node[9].content_store 	hits[9] 	3639
scalar tree_4_3_u06_r18_network.node[9].content_store 	misses[9] 	10752
scalar tree_4_3_u06_r18_network.node[9].content_store 	decision_yes[9] 	301
scalar tree_4_3_u06_r18_network.node[9].content_store 	decision_no[9] 	10451
scalar tree_4_3_u06_r18_network.node[9].content_store 	decision_ratio[9] 	0.027994791666667
scalar tree_4_3_u06_r18_network.node[10].core_layer 	interests[10] 	36854
scalar tree_4_3_u06_r18_network.node[10].core_layer 	data[10] 	33923
scalar tree_4_3_u06_r18_network.node[10].content_store 	p_hit[10] 	0.079530037445053
scalar tree_4_3_u06_r18_network.node[10].content_store 	hits[10] 	2931
scalar tree_4_3_u06_r18_network.node[10].content_store 	misses[10] 	33923
scalar tree_4_3_u06_r18_network.node[10].content_store 	decision_yes[10] 	391
scalar tree_4_3_u06_r18_network.node[10].content_store 	decision_no[10] 	33532
scalar tree_4_3_u06_r18_network.node[10].content_store 	decision_ratio[10] 	0.011526103233794
scalar tree_4_3_u06_r18_network.node[11].core_layer 	interests[11] 	20983
scalar tree_4_3_u06_r18_network.node[11].core_layer 	data[11] 	17933
scalar tree_4_3_u06_r18_network.node[11].content_store 	p_hit[11] 	0.14540342181766
scalar tree_4_3_u06_r18_network.node[11].content_store 	hits[11] 	3051
scalar tree_4_3_u06_r18_network.node[11].content_store 	misses[11] 	17932
scalar tree_4_3_u06_r18_network.node[11].content_store 	decision_yes[11] 	276
scalar tree_4_3_u06_r18_network.node[11].content_store 	decision_no[11] 	17657
scalar tree_4_3_u06_r18_network.node[11].content_store 	decision_ratio[11] 	0.015390620643506
scalar tree_4_3_u06_r18_network.node[12].core_layer 	interests[12] 	27441
scalar tree_4_3_u06_r18_network.node[12].core_layer 	data[12] 	25504
scalar tree_4_3_u06_r18_network.node[12].content_store 	p_hit[12] 	0.070587806566816
scalar tree_4_3_u06_r18_network.node[12].content_store 	hits[12] 	1937
scalar tree_4_3_u06_r18_network.node[12].content_store 	misses[12] 	25504
scalar tree_4_3_u06_r18_network.node[12].content_store 	decision_yes[12] 	281
scalar tree_4_3_u06_r18_network.node[12].content_store 	decision_no[12] 	25223
scalar tree_4_3_u06_r18_network.node[12].content_store 	decision_ratio[12] 	0.011017879548306
scalar tree_4_3_u06_r18_network.node[13].core_layer 	interests[13] 	12407
scalar tree_4_3_u06_r18_network.node[13].core_layer 	data[13] 	8688
scalar tree_4_3_u06_r18_network.node[13].content_store 	p_hit[13] 	0.29975014104941
scalar tree_4_3_u06_r18_network.node[13].content_store 	hits[13] 	3719
scalar tree_4_3_u06_r18_network.node[13].content_store 	misses[13] 	8688
scalar tree_4_3_u06_r18_network.node[13].content_store 	decision_yes[13] 	119
scalar tree_4_3_u06_r18_network.node[13].content_store 	decision_no[13] 	8569
scalar tree_4_3_u06_r18_network.node[13].content_store 	decision_ratio[13] 	0.013697053406998
scalar tree_4_3_u06_r18_network.node[14].core_layer 	interests[14] 	12392
scalar tree_4_3_u06_r18_network.node[14].core_layer 	data[14] 	8752
scalar tree_4_3_u06_r18_network.node[14].content_store 	p_hit[14] 	0.2937378954164
scalar tree_4_3_u06_r18_network.node[14].content_store 	hits[14] 	3640
scalar tree_4_3_u06_r18_network.node[14].content_store 	misses[14] 	8752
scalar tree_4_3_u06_r18_network.node[14].content_store 	decision_yes[14] 	112
scalar tree_4_3_u06_r18_network.node[14].content_store 	decision_no[14] 	8640
scalar tree_4_3_u06_r18_network.node[14].content_store 	decision_ratio[14] 	0.012797074954296
scalar tree_4_3_u06_r18_network.node[15].core_layer 	interests[15] 	12910
scalar tree_4_3_u06_r18_network.node[15].core_layer 	data[15] 	8822
scalar tree_4_3_u06_r18_network.node[15].content_store 	p_hit[15] 	0.31665375677769
scalar tree_4_3_u06_r18_network.node[15].content_store 	hits[15] 	4088
scalar tree_4_3_u06_r18_network.node[15].content_store 	misses[15] 	8822
scalar tree_4_3_u06_r18_network.node[15].content_store 	decision_yes[15] 	110
scalar tree_4_3_u06_r18_network.node[15].content_store 	decision_no[15] 	8712
scalar tree_4_3_u06_r18_network.node[15].content_store 	decision_ratio[15] 	0.012468827930175
scalar tree_4_3_u06_r18_network.node[16].core_layer 	interests[16] 	13120
scalar tree_4_3_u06_r18_network.node[16].core_layer 	data[16] 	8876
scalar tree_4_3_u06_r18_network.node[16].content_store 	p_hit[16] 	0.3234756097561
scalar tree_4_3_u06_r18_network.node[16].content_store 	hits[16] 	4244
scalar tree_4_3_u06_r18_network.node[16].content_store 	misses[16] 	8876
scalar tree_4_3_u06_r18_network.node[16].content_store 	decision_yes[16] 	124
scalar tree_4_3_u06_r18_network.node[16].content_store 	decision_no[16] 	8752
scalar tree_4_3_u06_r18_network.node[16].content_store 	decision_ratio[16] 	0.013970256872465
scalar tree_4_3_u06_r18_network.node[17].core_layer 	interests[17] 	12607
scalar tree_4_3_u06_r18_network.node[17].core_layer 	data[17] 	8962
scalar tree_4_3_u06_r18_network.node[17].content_store 	p_hit[17] 	0.289045768224
scalar tree_4_3_u06_r18_network.node[17].content_store 	hits[17] 	3644
scalar tree_4_3_u06_r18_network.node[17].content_store 	misses[17] 	8963
scalar tree_4_3_u06_r18_network.node[17].content_store 	decision_yes[17] 	137
scalar tree_4_3_u06_r18_network.node[17].content_store 	decision_no[17] 	8825
scalar tree_4_3_u06_r18_network.node[17].content_store 	decision_ratio[17] 	0.015286766346798
scalar tree_4_3_u06_r18_network.node[18].core_layer 	interests[18] 	12482
scalar tree_4_3_u06_r18_network.node[18].core_layer 	data[18] 	8762
scalar tree_4_3_u06_r18_network.node[18].content_store 	p_hit[18] 	0.29802916199327
scalar tree_4_3_u06_r18_network.node[18].content_store 	hits[18] 	3720
scalar tree_4_3_u06_r18_network.node[18].content_store 	misses[18] 	8762
scalar tree_4_3_u06_r18_network.node[18].content_store 	decision_yes[18] 	103
scalar tree_4_3_u06_r18_network.node[18].content_store 	decision_no[18] 	8659
scalar tree_4_3_u06_r18_network.node[18].content_store 	decision_ratio[18] 	0.011755307007533
scalar tree_4_3_u06_r18_network.node[19].core_layer 	interests[19] 	12842
scalar tree_4_3_u06_r18_network.node[19].core_layer 	data[19] 	8841
scalar tree_4_3_u06_r18_network.node[19].content_store 	p_hit[19] 	0.31155583242486
scalar tree_4_3_u06_r18_network.node[19].content_store 	hits[19] 	4001
scalar tree_4_3_u06_r18_network.node[19].content_store 	misses[19] 	8841
scalar tree_4_3_u06_r18_network.node[19].content_store 	decision_yes[19] 	133
scalar tree_4_3_u06_r18_network.node[19].content_store 	decision_no[19] 	8708
scalar tree_4_3_u06_r18_network.node[19].content_store 	decision_ratio[19] 	0.015043547110055
scalar tree_4_3_u06_r18_network.node[20].core_layer 	interests[20] 	12854
scalar tree_4_3_u06_r18_network.node[20].core_layer 	data[20] 	8783
scalar tree_4_3_u06_r18_network.node[20].content_store 	p_hit[20] 	0.31663295472227
scalar tree_4_3_u06_r18_network.node[20].content_store 	hits[20] 	4070
scalar tree_4_3_u06_r18_network.node[20].content_store 	misses[20] 	8784
scalar tree_4_3_u06_r18_network.node[20].content_store 	decision_yes[20] 	106
scalar tree_4_3_u06_r18_network.node[20].content_store 	decision_no[20] 	8677
scalar tree_4_3_u06_r18_network.node[20].content_store 	decision_ratio[20] 	0.012068769213253
scalar tree_4_3_u06_r18_network.node[21].core_layer 	interests[21] 	12354
scalar tree_4_3_u06_r18_network.node[21].core_layer 	data[21] 	8784
scalar tree_4_3_u06_r18_network.node[21].content_store 	p_hit[21] 	0.28889428525174
scalar tree_4_3_u06_r18_network.node[21].content_store 	hits[21] 	3569
scalar tree_4_3_u06_r18_network.node[21].content_store 	misses[21] 	8785
scalar tree_4_3_u06_r18_network.node[21].content_store 	decision_yes[21] 	111
scalar tree_4_3_u06_r18_network.node[21].content_store 	decision_no[21] 	8673
scalar tree_4_3_u06_r18_network.node[21].content_store 	decision_ratio[21] 	0.012636612021858
scalar tree_4_3_u06_r18_network.node[22].core_layer 	interests[22] 	12474
scalar tree_4_3_u06_r18_network.node[22].core_layer 	data[22] 	8840
scalar tree_4_3_u06_r18_network.node[22].content_store 	p_hit[22] 	0.29124579124579
scalar tree_4_3_u06_r18_network.node[22].content_store 	hits[22] 	3633
scalar tree_4_3_u06_r18_network.node[22].content_store 	misses[22] 	8841
scalar tree_4_3_u06_r18_network.node[22].content_store 	decision_yes[22] 	104
scalar tree_4_3_u06_r18_network.node[22].content_store 	decision_no[22] 	8736
scalar tree_4_3_u06_r18_network.node[22].content_store 	decision_ratio[22] 	0.011764705882353
scalar tree_4_3_u06_r18_network.node[23].core_layer 	interests[23] 	12985
scalar tree_4_3_u06_r18_network.node[23].core_layer 	data[23] 	8831
scalar tree_4_3_u06_r18_network.node[23].content_store 	p_hit[23] 	0.31990758567578
scalar tree_4_3_u06_r18_network.node[23].content_store 	hits[23] 	4154
scalar tree_4_3_u06_r18_network.node[23].content_store 	misses[23] 	8831
scalar tree_4_3_u06_r18_network.node[23].content_store 	decision_yes[23] 	112
scalar tree_4_3_u06_r18_network.node[23].content_store 	decision_no[23] 	8719
scalar tree_4_3_u06_r18_network.node[23].content_store 	decision_ratio[23] 	0.012682595402559
scalar tree_4_3_u06_r18_network.node[24].core_layer 	interests[24] 	13002
scalar tree_4_3_u06_r18_network.node[24].core_layer 	data[24] 	8931
scalar tree_4_3_u06_r18_network.node[24].content_store 	p_hit[24] 	0.31310567604984
scalar tree_4_3_u06_r18_network.node[24].content_store 	hits[24] 	4071
scalar tree_4_3_u06_r18_network.node[24].content_store 	misses[24] 	8931
scalar tree_4_3_u06_r18_network.node[24].content_store 	decision_yes[24] 	135
scalar tree_4_3_u06_r18_network.node[24].content_store 	decision_no[24] 	8796
scalar tree_4_3_u06_r18_network.node[24].content_store 	decision_ratio[24] 	0.015115888478334
scalar tree_4_3_u06_r18_network.node[25].core_layer 	interests[25] 	12804
scalar tree_4_3_u06_r18_network.node[25].core_layer 	data[25] 	8671
scalar tree_4_3_u06_r18_network.node[25].content_store 	p_hit[25] 	0.32278975320212
scalar tree_4_3_u06_r18_network.node[25].content_store 	hits[25] 	4133
scalar tree_4_3_u06_r18_network.node[25].content_store 	misses[25] 	8671
scalar tree_4_3_u06_r18_network.node[25].content_store 	decision_yes[25] 	110
scalar tree_4_3_u06_r18_network.node[25].content_store 	decision_no[25] 	8561
scalar tree_4_3_u06_r18_network.node[25].content_store 	decision_ratio[25] 	0.012685964709953
scalar tree_4_3_u06_r18_network.node[26].core_layer 	interests[26] 	12455
scalar tree_4_3_u06_r18_network.node[26].core_layer 	data[26] 	8746
scalar tree_4_3_u06_r18_network.node[26].content_store 	p_hit[26] 	0.29787234042553
scalar tree_4_3_u06_r18_network.node[26].content_store 	hits[26] 	3710
scalar tree_4_3_u06_r18_network.node[26].content_store 	misses[26] 	8745
scalar tree_4_3_u06_r18_network.node[26].content_store 	decision_yes[26] 	90
scalar tree_4_3_u06_r18_network.node[26].content_store 	decision_no[26] 	8656
scalar tree_4_3_u06_r18_network.node[26].content_store 	decision_ratio[26] 	0.010290418477018
scalar tree_4_3_u06_r18_network.node[27].core_layer 	interests[27] 	12368
scalar tree_4_3_u06_r18_network.node[27].core_layer 	data[27] 	8720
scalar tree_4_3_u06_r18_network.node[27].content_store 	p_hit[27] 	0.29495472186287
scalar tree_4_3_u06_r18_network.node[27].content_store 	hits[27] 	3648
scalar tree_4_3_u06_r18_network.node[27].content_store 	misses[27] 	8720
scalar tree_4_3_u06_r18_network.node[27].content_store 	decision_yes[27] 	114
scalar tree_4_3_u06_r18_network.node[27].content_store 	decision_no[27] 	8606
scalar tree_4_3_u06_r18_network.node[27].content_store 	decision_ratio[27] 	0.013073394495413
scalar tree_4_3_u06_r18_network.node[28].core_layer 	interests[28] 	12966
scalar tree_4_3_u06_r18_network.node[28].core_layer 	data[28] 	8920
scalar tree_4_3_u06_r18_network.node[28].content_store 	p_hit[28] 	0.31204689187105
scalar tree_4_3_u06_r18_network.node[28].content_store 	hits[28] 	4046
scalar tree_4_3_u06_r18_network.node[28].content_store 	misses[28] 	8920
scalar tree_4_3_u06_r18_network.node[28].content_store 	decision_yes[28] 	119
scalar tree_4_3_u06_r18_network.node[28].content_store 	decision_no[28] 	8801
scalar tree_4_3_u06_r18_network.node[28].content_store 	decision_ratio[28] 	0.013340807174888
scalar tree_4_3_u06_r18_network.node[29].core_layer 	interests[29] 	13133
scalar tree_4_3_u06_r18_network.node[29].core_layer 	data[29] 	8923
scalar tree_4_3_u06_r18_network.node[29].content_store 	p_hit[29] 	0.3205665118404
scalar tree_4_3_u06_r18_network.node[29].content_store 	hits[29] 	4210
scalar tree_4_3_u06_r18_network.node[29].content_store 	misses[29] 	8923
scalar tree_4_3_u06_r18_network.node[29].content_store 	decision_yes[29] 	127
scalar tree_4_3_u06_r18_network.node[29].content_store 	decision_no[29] 	8796
scalar tree_4_3_u06_r18_network.node[29].content_store 	decision_ratio[29] 	0.014232881317942
scalar tree_4_3_u06_r18_network.node[30].core_layer 	interests[30] 	12467
scalar tree_4_3_u06_r18_network.node[30].core_layer 	data[30] 	8764
scalar tree_4_3_u06_r18_network.node[30].content_store 	p_hit[30] 	0.29702414373947
scalar tree_4_3_u06_r18_network.node[30].content_store 	hits[30] 	3703
scalar tree_4_3_u06_r18_network.node[30].content_store 	misses[30] 	8764
scalar tree_4_3_u06_r18_network.node[30].content_store 	decision_yes[30] 	108
scalar tree_4_3_u06_r18_network.node[30].content_store 	decision_no[30] 	8656
scalar tree_4_3_u06_r18_network.node[30].content_store 	decision_ratio[30] 	0.012323140118667
scalar tree_4_3_u06_r18_network.node[31].core_layer 	interests[31] 	12672
scalar tree_4_3_u06_r18_network.node[31].core_layer 	data[31] 	8848
scalar tree_4_3_u06_r18_network.node[31].content_store 	p_hit[31] 	0.30176767676768
scalar tree_4_3_u06_r18_network.node[31].content_store 	hits[31] 	3824
scalar tree_4_3_u06_r18_network.node[31].content_store 	misses[31] 	8848
scalar tree_4_3_u06_r18_network.node[31].content_store 	decision_yes[31] 	117
scalar tree_4_3_u06_r18_network.node[31].content_store 	decision_no[31] 	8731
scalar tree_4_3_u06_r18_network.node[31].content_store 	decision_ratio[31] 	0.013223327305606
scalar tree_4_3_u06_r18_network.node[32].core_layer 	interests[32] 	12751
scalar tree_4_3_u06_r18_network.node[32].core_layer 	data[32] 	8937
scalar tree_4_3_u06_r18_network.node[32].content_store 	p_hit[32] 	0.29911379499647
scalar tree_4_3_u06_r18_network.node[32].content_store 	hits[32] 	3814
scalar tree_4_3_u06_r18_network.node[32].content_store 	misses[32] 	8937
scalar tree_4_3_u06_r18_network.node[32].content_store 	decision_yes[32] 	116
scalar tree_4_3_u06_r18_network.node[32].content_store 	decision_no[32] 	8821
scalar tree_4_3_u06_r18_network.node[32].content_store 	decision_ratio[32] 	0.01297974711872
scalar tree_4_3_u06_r18_network.node[33].core_layer 	interests[33] 	12750
scalar tree_4_3_u06_r18_network.node[33].core_layer 	data[33] 	8829
scalar tree_4_3_u06_r18_network.node[33].content_store 	p_hit[33] 	0.30752941176471
scalar tree_4_3_u06_r18_network.node[33].content_store 	hits[33] 	3921
scalar tree_4_3_u06_r18_network.node[33].content_store 	misses[33] 	8829
scalar tree_4_3_u06_r18_network.node[33].content_store 	decision_yes[33] 	114
scalar tree_4_3_u06_r18_network.node[33].content_store 	decision_no[33] 	8715
scalar tree_4_3_u06_r18_network.node[33].content_store 	decision_ratio[33] 	0.012911994563371
scalar tree_4_3_u06_r18_network.node[34].core_layer 	interests[34] 	13306
scalar tree_4_3_u06_r18_network.node[34].core_layer 	data[34] 	8949
scalar tree_4_3_u06_r18_network.node[34].content_store 	p_hit[34] 	0.32744626484293
scalar tree_4_3_u06_r18_network.node[34].content_store 	hits[34] 	4357
scalar tree_4_3_u06_r18_network.node[34].content_store 	misses[34] 	8949
scalar tree_4_3_u06_r18_network.node[34].content_store 	decision_yes[34] 	131
scalar tree_4_3_u06_r18_network.node[34].content_store 	decision_no[34] 	8818
scalar tree_4_3_u06_r18_network.node[34].content_store 	decision_ratio[34] 	0.014638507095765
scalar tree_4_3_u06_r18_network.node[35].core_layer 	interests[35] 	12596
scalar tree_4_3_u06_r18_network.node[35].core_layer 	data[35] 	8874
scalar tree_4_3_u06_r18_network.node[35].content_store 	p_hit[35] 	0.29564941251191
scalar tree_4_3_u06_r18_network.node[35].content_store 	hits[35] 	3724
scalar tree_4_3_u06_r18_network.node[35].content_store 	misses[35] 	8872
scalar tree_4_3_u06_r18_network.node[35].content_store 	decision_yes[35] 	106
scalar tree_4_3_u06_r18_network.node[35].content_store 	decision_no[35] 	8768
scalar tree_4_3_u06_r18_network.node[35].content_store 	decision_ratio[35] 	0.011945007888213
scalar tree_4_3_u06_r18_network.node[36].core_layer 	interests[36] 	12431
scalar tree_4_3_u06_r18_network.node[36].core_layer 	data[36] 	8775
scalar tree_4_3_u06_r18_network.node[36].content_store 	p_hit[36] 	0.29402300699863
scalar tree_4_3_u06_r18_network.node[36].content_store 	hits[36] 	3655
scalar tree_4_3_u06_r18_network.node[36].content_store 	misses[36] 	8776
scalar tree_4_3_u06_r18_network.node[36].content_store 	decision_yes[36] 	111
scalar tree_4_3_u06_r18_network.node[36].content_store 	decision_no[36] 	8664
scalar tree_4_3_u06_r18_network.node[36].content_store 	decision_ratio[36] 	0.012649572649573
scalar tree_4_3_u06_r18_network.node[37].core_layer 	interests[37] 	12598
scalar tree_4_3_u06_r18_network.node[37].core_layer 	data[37] 	8820
scalar tree_4_3_u06_r18_network.node[37].content_store 	p_hit[37] 	0.2998888712494
scalar tree_4_3_u06_r18_network.node[37].content_store 	hits[37] 	3778
scalar tree_4_3_u06_r18_network.node[37].content_store 	misses[37] 	8820
scalar tree_4_3_u06_r18_network.node[37].content_store 	decision_yes[37] 	104
scalar tree_4_3_u06_r18_network.node[37].content_store 	decision_no[37] 	8716
scalar tree_4_3_u06_r18_network.node[37].content_store 	decision_ratio[37] 	0.011791383219955
scalar tree_4_3_u06_r18_network.node[38].core_layer 	interests[38] 	12394
scalar tree_4_3_u06_r18_network.node[38].core_layer 	data[38] 	8757
scalar tree_4_3_u06_r18_network.node[38].content_store 	p_hit[38] 	0.29352912699693
scalar tree_4_3_u06_r18_network.node[38].content_store 	hits[38] 	3638
scalar tree_4_3_u06_r18_network.node[38].content_store 	misses[38] 	8756
scalar tree_4_3_u06_r18_network.node[38].content_store 	decision_yes[38] 	96
scalar tree_4_3_u06_r18_network.node[38].content_store 	decision_no[38] 	8661
scalar tree_4_3_u06_r18_network.node[38].content_store 	decision_ratio[38] 	0.010962658444673
scalar tree_4_3_u06_r18_network.node[39].core_layer 	interests[39] 	12460
scalar tree_4_3_u06_r18_network.node[39].core_layer 	data[39] 	8861
scalar tree_4_3_u06_r18_network.node[39].content_store 	p_hit[39] 	0.28892455858748
scalar tree_4_3_u06_r18_network.node[39].content_store 	hits[39] 	3600
scalar tree_4_3_u06_r18_network.node[39].content_store 	misses[39] 	8860
scalar tree_4_3_u06_r18_network.node[39].content_store 	decision_yes[39] 	113
scalar tree_4_3_u06_r18_network.node[39].content_store 	decision_no[39] 	8748
scalar tree_4_3_u06_r18_network.node[39].content_store 	decision_ratio[39] 	0.012752511003273
scalar tree_4_3_u06_r18_network.client[13] 	hdistance[13] 	2.6545743967828
scalar tree_4_3_u06_r18_network.client[13] 	downloads[13] 	11936
scalar tree_4_3_u06_r18_network.client[13] 	avg_time[13] 	0.004132656582
scalar tree_4_3_u06_r18_network.client[14] 	hdistance[14] 	2.6694929482874
scalar tree_4_3_u06_r18_network.client[14] 	downloads[14] 	11912
scalar tree_4_3_u06_r18_network.client[14] 	avg_time[14] 	0.004163193793
scalar tree_4_3_u06_r18_network.client[15] 	hdistance[15] 	2.5939272605939
scalar tree_4_3_u06_r18_network.client[15] 	downloads[15] 	11988
scalar tree_4_3_u06_r18_network.client[15] 	avg_time[15] 	0.00405624333
scalar tree_4_3_u06_r18_network.client[16] 	hdistance[16] 	2.6119929453263
scalar tree_4_3_u06_r18_network.client[16] 	downloads[16] 	11907
scalar tree_4_3_u06_r18_network.client[16] 	avg_time[16] 	0.00410749685
scalar tree_4_3_u06_r18_network.client[17] 	hdistance[17] 	2.6684045018206
scalar tree_4_3_u06_r18_network.client[17] 	downloads[17] 	12084
scalar tree_4_3_u06_r18_network.client[17] 	avg_time[17] 	0.004214426388
scalar tree_4_3_u06_r18_network.client[18] 	hdistance[18] 	2.6266366441498
scalar tree_4_3_u06_r18_network.client[18] 	downloads[18] 	11991
scalar tree_4_3_u06_r18_network.client[18] 	avg_time[18] 	0.004146273385
scalar tree_4_3_u06_r18_network.client[19] 	hdistance[19] 	2.5825258937521
scalar tree_4_3_u06_r18_network.client[19] 	downloads[19] 	11972
scalar tree_4_3_u06_r18_network.client[19] 	avg_time[19] 	0.004048585992
scalar tree_4_3_u06_r18_network.client[20] 	hdistance[20] 	2.5994926004228
scalar tree_4_3_u06_r18_network.client[20] 	downloads[20] 	11825
scalar tree_4_3_u06_r18_network.client[20] 	avg_time[20] 	0.004084834858
scalar tree_4_3_u06_r18_network.client[21] 	hdistance[21] 	2.6180808750414
scalar tree_4_3_u06_r18_network.client[21] 	downloads[21] 	12068
scalar tree_4_3_u06_r18_network.client[21] 	avg_time[21] 	0.004121811322
scalar tree_4_3_u06_r18_network.client[22] 	hdistance[22] 	2.6709801302388
scalar tree_4_3_u06_r18_network.client[22] 	downloads[22] 	11978
scalar tree_4_3_u06_r18_network.client[22] 	avg_time[22] 	0.004186505625
scalar tree_4_3_u06_r18_network.client[23] 	hdistance[23] 	2.6045141482035
scalar tree_4_3_u06_r18_network.client[23] 	downloads[23] 	12051
scalar tree_4_3_u06_r18_network.client[23] 	avg_time[23] 	0.00405775153
scalar tree_4_3_u06_r18_network.client[24] 	hdistance[24] 	2.5949597944127
scalar tree_4_3_u06_r18_network.client[24] 	downloads[24] 	12063
scalar tree_4_3_u06_r18_network.client[24] 	avg_time[24] 	0.004073776327
scalar tree_4_3_u06_r18_network.client[25] 	hdistance[25] 	2.6040681971641
scalar tree_4_3_u06_r18_network.client[25] 	downloads[25] 	11848
scalar tree_4_3_u06_r18_network.client[25] 	avg_time[25] 	0.004056040265
scalar tree_4_3_u06_r18_network.client[26] 	hdistance[26] 	2.6423576423577
scalar tree_4_3_u06_r18_network.client[26] 	downloads[26] 	12012
scalar tree_4_3_u06_r18_network.client[26] 	avg_time[26] 	0.004131199106
scalar tree_4_3_u06_r18_network.client[27] 	hdistance[27] 	2.6376192867906
scalar tree_4_3_u06_r18_network.client[27] 	downloads[27] 	11946
scalar tree_4_3_u06_r18_network.client[27] 	avg_time[27] 	0.004133933068
scalar tree_4_3_u06_r18_network.client[28] 	hdistance[28] 	2.6153846153846
scalar tree_4_3_u06_r18_network.client[28] 	downloads[28] 	12025
scalar tree_4_3_u06_r18_network.client[28] 	avg_time[28] 	0.00410344813
scalar tree_4_3_u06_r18_network.client[29] 	hdistance[29] 	2.5586665571886
scalar tree_4_3_u06_r18_network.client[29] 	downloads[29] 	12179
scalar tree_4_3_u06_r18_network.client[29] 	avg_time[29] 	0.004016254443
scalar tree_4_3_u06_r18_network.client[30] 	hdistance[30] 	2.6111478117259
scalar tree_4_3_u06_r18_network.client[30] 	downloads[30] 	12110
scalar tree_4_3_u06_r18_network.client[30] 	avg_time[30] 	0.004114778142
scalar tree_4_3_u06_r18_network.client[31] 	hdistance[31] 	2.6467851802625
scalar tree_4_3_u06_r18_network.client[31] 	downloads[31] 	12038
scalar tree_4_3_u06_r18_network.client[31] 	avg_time[31] 	0.004164310002
scalar tree_4_3_u06_r18_network.client[32] 	hdistance[32] 	2.6449971271444
scalar tree_4_3_u06_r18_network.client[32] 	downloads[32] 	12183
scalar tree_4_3_u06_r18_network.client[32] 	avg_time[32] 	0.004164816802
scalar tree_4_3_u06_r18_network.client[33] 	hdistance[33] 	2.6140437428055
scalar tree_4_3_u06_r18_network.client[33] 	downloads[33] 	12162
scalar tree_4_3_u06_r18_network.client[33] 	avg_time[33] 	0.004116754044
scalar tree_4_3_u06_r18_network.client[34] 	hdistance[34] 	2.5915027277236
scalar tree_4_3_u06_r18_network.client[34] 	downloads[34] 	12098
scalar tree_4_3_u06_r18_network.client[34] 	avg_time[34] 	0.004076373231
scalar tree_4_3_u06_r18_network.client[35] 	hdistance[35] 	2.6323021227579
scalar tree_4_3_u06_r18_network.client[35] 	downloads[35] 	12154
scalar tree_4_3_u06_r18_network.client[35] 	avg_time[35] 	0.004153855765
scalar tree_4_3_u06_r18_network.client[36] 	hdistance[36] 	2.6447786131997
scalar tree_4_3_u06_r18_network.client[36] 	downloads[36] 	11970
scalar tree_4_3_u06_r18_network.client[36] 	avg_time[36] 	0.004174519494
scalar tree_4_3_u06_r18_network.client[37] 	hdistance[37] 	2.6721705940923
scalar tree_4_3_u06_r18_network.client[37] 	downloads[37] 	12052
scalar tree_4_3_u06_r18_network.client[37] 	avg_time[37] 	0.004187531923
scalar tree_4_3_u06_r18_network.client[38] 	hdistance[38] 	2.6724368623516
scalar tree_4_3_u06_r18_network.client[38] 	downloads[38] 	11958
scalar tree_4_3_u06_r18_network.client[38] 	avg_time[38] 	0.004183192516
scalar tree_4_3_u06_r18_network.client[39] 	hdistance[39] 	2.6971789964218
scalar tree_4_3_u06_r18_network.client[39] 	downloads[39] 	12017
scalar tree_4_3_u06_r18_network.client[39] 	avg_time[39] 	0.004224678697
