version 2
run General-414-20160901-08:15:15-8710
attr a 0.9
attr cd ffc
attr configname General
attr cr lru
attr datetime 20160901-08:15:15
attr experiment General
attr fsize 1
attr inifile hw5115/scenario_Y/omnetp.ini
attr iterationvars "$name=tree_4_3, $un=06, $rep=19, $cd=ffc, $cr=lru, $fsize=1, $a=0.9, $sl=nrr, $ttl=1000, $variance=0.05"
attr iterationvars2 "$name=tree_4_3, $un=06, $rep=19, $cd=ffc, $cr=lru, $fsize=1, $a=0.9, $sl=nrr, $ttl=1000, $variance=0.05, $repetition=0"
attr measurement "$name=tree_4_3, $un=06, $rep=19, $cd=ffc, $cr=lru, $fsize=1, $a=0.9, $sl=nrr, $ttl=1000, $variance=0.05"
attr name tree_4_3
attr network networks.${name}_u${un}_r${rep}_network
attr processid 8710
attr rep 19
attr repetition 0
attr replication #0
attr resultdir results
attr runnumber 414
attr seedset 19
attr sl nrr
attr ttl 1000
attr un 06
attr variance 0.05

scalar . 	a 	0.9
scalar . 	fsize 	1
scalar . 	rep 	19
scalar . 	ttl 	1000
scalar . 	un 	06
scalar . 	variance 	0.05
scalar tree_4_3_u06_r19_network.content_distribution 	repo-0 	0
scalar tree_4_3_u06_r19_network.content_distribution 	client-0 	13
scalar tree_4_3_u06_r19_network.content_distribution 	client-1 	14
scalar tree_4_3_u06_r19_network.content_distribution 	client-2 	15
scalar tree_4_3_u06_r19_network.content_distribution 	client-3 	16
scalar tree_4_3_u06_r19_network.content_distribution 	client-4 	17
scalar tree_4_3_u06_r19_network.content_distribution 	client-5 	18
scalar tree_4_3_u06_r19_network.content_distribution 	client-6 	19
scalar tree_4_3_u06_r19_network.content_distribution 	client-7 	20
scalar tree_4_3_u06_r19_network.content_distribution 	client-8 	21
scalar tree_4_3_u06_r19_network.content_distribution 	client-9 	22
scalar tree_4_3_u06_r19_network.content_distribution 	client-10 	23
scalar tree_4_3_u06_r19_network.content_distribution 	client-11 	24
scalar tree_4_3_u06_r19_network.content_distribution 	client-12 	25
scalar tree_4_3_u06_r19_network.content_distribution 	client-13 	26
scalar tree_4_3_u06_r19_network.content_distribution 	client-14 	27
scalar tree_4_3_u06_r19_network.content_distribution 	client-15 	28
scalar tree_4_3_u06_r19_network.content_distribution 	client-16 	29
scalar tree_4_3_u06_r19_network.content_distribution 	client-17 	30
scalar tree_4_3_u06_r19_network.content_distribution 	client-18 	31
scalar tree_4_3_u06_r19_network.content_distribution 	client-19 	32
scalar tree_4_3_u06_r19_network.content_distribution 	client-20 	33
scalar tree_4_3_u06_r19_network.content_distribution 	client-21 	34
scalar tree_4_3_u06_r19_network.content_distribution 	client-22 	35
scalar tree_4_3_u06_r19_network.content_distribution 	client-23 	36
scalar tree_4_3_u06_r19_network.content_distribution 	client-24 	37
scalar tree_4_3_u06_r19_network.content_distribution 	client-25 	38
scalar tree_4_3_u06_r19_network.content_distribution 	client-26 	39
scalar tree_4_3_u06_r19_network.content_distribution 	repo-0_card 	100000
scalar tree_4_3_u06_r19_network.content_distribution 	repo-0_price 	0
scalar tree_4_3_u06_r19_network.statistics 	stabilization_time 	1188
scalar tree_4_3_u06_r19_network.statistics 	p_hit 	0.23587330800151
scalar tree_4_3_u06_r19_network.statistics 	interests 	24765.9
scalar tree_4_3_u06_r19_network.statistics 	data 	16661.85
scalar tree_4_3_u06_r19_network.statistics 	hdistance 	2.6273981656855
scalar tree_4_3_u06_r19_network.statistics 	avg_time 	0.004111795584
scalar tree_4_3_u06_r19_network.statistics 	downloads 	324160
scalar tree_4_3_u06_r19_network.statistics 	total_cost 	0
scalar tree_4_3_u06_r19_network.statistics 	total_replicas 	100000
scalar tree_4_3_u06_r19_network.statistics 	inner_hit 	0.42848284797631
scalar tree_4_3_u06_r19_network.node[0].core_layer 	interests[0] 	187945
scalar tree_4_3_u06_r19_network.node[0].core_layer 	repo_load[0] 	185263
scalar tree_4_3_u06_r19_network.node[0].core_layer 	data[0] 	0
scalar tree_4_3_u06_r19_network.node[0].core_layer 	repo_int[0] 	185263
scalar tree_4_3_u06_r19_network.node[0].content_store 	p_hit[0] 	0.014270132219532
scalar tree_4_3_u06_r19_network.node[0].content_store 	hits[0] 	2682
scalar tree_4_3_u06_r19_network.node[0].content_store 	misses[0] 	185263
scalar tree_4_3_u06_r19_network.node[0].content_store 	decision_yes[0] 	797
scalar tree_4_3_u06_r19_network.node[0].content_store 	decision_no[0] 	184466
scalar tree_4_3_u06_r19_network.node[0].content_store 	decision_ratio[0] 	0.0043019923028343
scalar tree_4_3_u06_r19_network.node[1].core_layer 	interests[1] 	103471
scalar tree_4_3_u06_r19_network.node[1].core_layer 	data[1] 	101501
scalar tree_4_3_u06_r19_network.node[1].content_store 	p_hit[1] 	0.019029486522794
scalar tree_4_3_u06_r19_network.node[1].content_store 	hits[1] 	1969
scalar tree_4_3_u06_r19_network.node[1].content_store 	misses[1] 	101502
scalar tree_4_3_u06_r19_network.node[1].content_store 	decision_yes[1] 	520
scalar tree_4_3_u06_r19_network.node[1].content_store 	decision_no[1] 	100981
scalar tree_4_3_u06_r19_network.node[1].content_store 	decision_ratio[1] 	0.005123102235446
scalar tree_4_3_u06_r19_network.node[2].core_layer 	interests[2] 	64947
scalar tree_4_3_u06_r19_network.node[2].core_layer 	data[2] 	61661
scalar tree_4_3_u06_r19_network.node[2].content_store 	p_hit[2] 	0.050579703450506
scalar tree_4_3_u06_r19_network.node[2].content_store 	hits[2] 	3285
scalar tree_4_3_u06_r19_network.node[2].content_store 	misses[2] 	61662
scalar tree_4_3_u06_r19_network.node[2].content_store 	decision_yes[2] 	463
scalar tree_4_3_u06_r19_network.node[2].content_store 	decision_no[2] 	61198
scalar tree_4_3_u06_r19_network.node[2].content_store 	decision_ratio[2] 	0.0075087981057719
scalar tree_4_3_u06_r19_network.node[3].core_layer 	interests[3] 	40246
scalar tree_4_3_u06_r19_network.node[3].core_layer 	data[3] 	38602
scalar tree_4_3_u06_r19_network.node[3].content_store 	p_hit[3] 	0.040873627192765
scalar tree_4_3_u06_r19_network.node[3].content_store 	hits[3] 	1645
scalar tree_4_3_u06_r19_network.node[3].content_store 	misses[3] 	38601
scalar tree_4_3_u06_r19_network.node[3].content_store 	decision_yes[3] 	281
scalar tree_4_3_u06_r19_network.node[3].content_store 	decision_no[3] 	38321
scalar tree_4_3_u06_r19_network.node[3].content_store 	decision_ratio[3] 	0.0072794155743226
scalar tree_4_3_u06_r19_network.node[4].core_layer 	interests[4] 	34457
scalar tree_4_3_u06_r19_network.node[4].core_layer 	data[4] 	32406
scalar tree_4_3_u06_r19_network.node[4].content_store 	p_hit[4] 	0.059494442348434
scalar tree_4_3_u06_r19_network.node[4].content_store 	hits[4] 	2050
scalar tree_4_3_u06_r19_network.node[4].content_store 	misses[4] 	32407
scalar tree_4_3_u06_r19_network.node[4].content_store 	decision_yes[4] 	325
scalar tree_4_3_u06_r19_network.node[4].content_store 	decision_no[4] 	32081
scalar tree_4_3_u06_r19_network.node[4].content_store 	decision_ratio[4] 	0.010029006974017
scalar tree_4_3_u06_r19_network.node[5].core_layer 	interests[5] 	38100
scalar tree_4_3_u06_r19_network.node[5].core_layer 	data[5] 	34475
scalar tree_4_3_u06_r19_network.node[5].content_store 	p_hit[5] 	0.09511811023622
scalar tree_4_3_u06_r19_network.node[5].content_store 	hits[5] 	3624
scalar tree_4_3_u06_r19_network.node[5].content_store 	misses[5] 	34476
scalar tree_4_3_u06_r19_network.node[5].content_store 	decision_yes[5] 	419
scalar tree_4_3_u06_r19_network.node[5].content_store 	decision_no[5] 	34056
scalar tree_4_3_u06_r19_network.node[5].content_store 	decision_ratio[5] 	0.012153734590283
scalar tree_4_3_u06_r19_network.node[6].core_layer 	interests[6] 	11383
scalar tree_4_3_u06_r19_network.node[6].core_layer 	data[6] 	8912
scalar tree_4_3_u06_r19_network.node[6].content_store 	p_hit[6] 	0.21707809891944
scalar tree_4_3_u06_r19_network.node[6].content_store 	hits[6] 	2471
scalar tree_4_3_u06_r19_network.node[6].content_store 	misses[6] 	8912
scalar tree_4_3_u06_r19_network.node[6].content_store 	decision_yes[6] 	138
scalar tree_4_3_u06_r19_network.node[6].content_store 	decision_no[6] 	8774
scalar tree_4_3_u06_r19_network.node[6].content_store 	decision_ratio[6] 	0.01548473967684
scalar tree_4_3_u06_r19_network.node[7].core_layer 	interests[7] 	44902
scalar tree_4_3_u06_r19_network.node[7].core_layer 	data[7] 	41465
scalar tree_4_3_u06_r19_network.node[7].content_store 	p_hit[7] 	0.076522203910739
scalar tree_4_3_u06_r19_network.node[7].content_store 	hits[7] 	3436
scalar tree_4_3_u06_r19_network.node[7].content_store 	misses[7] 	41466
scalar tree_4_3_u06_r19_network.node[7].content_store 	decision_yes[7] 	431
scalar tree_4_3_u06_r19_network.node[7].content_store 	decision_no[7] 	41034
scalar tree_4_3_u06_r19_network.node[7].content_store 	decision_ratio[7] 	0.010394308452912
scalar tree_4_3_u06_r19_network.node[8].core_layer 	interests[8] 	19315
scalar tree_4_3_u06_r19_network.node[8].core_layer 	data[8] 	16789
scalar tree_4_3_u06_r19_network.node[8].content_store 	p_hit[8] 	0.13067564069376
scalar tree_4_3_u06_r19_network.node[8].content_store 	hits[8] 	2524
scalar tree_4_3_u06_r19_network.node[8].content_store 	misses[8] 	16791
scalar tree_4_3_u06_r19_network.node[8].content_store 	decision_yes[8] 	180
scalar tree_4_3_u06_r19_network.node[8].content_store 	decision_no[8] 	16609
scalar tree_4_3_u06_r19_network.node[8].content_store 	decision_ratio[8] 	0.010721305616773
scalar tree_4_3_u06_r19_network.node[9].core_layer 	interests[9] 	20639
scalar tree_4_3_u06_r19_network.node[9].core_layer 	data[9] 	17713
scalar tree_4_3_u06_r19_network.node[9].content_store 	p_hit[9] 	0.14177043461408
scalar tree_4_3_u06_r19_network.node[9].content_store 	hits[9] 	2926
scalar tree_4_3_u06_r19_network.node[9].content_store 	misses[9] 	17713
scalar tree_4_3_u06_r19_network.node[9].content_store 	decision_yes[9] 	282
scalar tree_4_3_u06_r19_network.node[9].content_store 	decision_no[9] 	17431
scalar tree_4_3_u06_r19_network.node[9].content_store 	decision_ratio[9] 	0.015920510359623
scalar tree_4_3_u06_r19_network.node[10].core_layer 	interests[10] 	36192
scalar tree_4_3_u06_r19_network.node[10].core_layer 	data[10] 	33807
scalar tree_4_3_u06_r19_network.node[10].content_store 	p_hit[10] 	0.065870910698497
scalar tree_4_3_u06_r19_network.node[10].content_store 	hits[10] 	2384
scalar tree_4_3_u06_r19_network.node[10].content_store 	misses[10] 	33808
scalar tree_4_3_u06_r19_network.node[10].content_store 	decision_yes[10] 	350
scalar tree_4_3_u06_r19_network.node[10].content_store 	decision_no[10] 	33457
scalar tree_4_3_u06_r19_network.node[10].content_store 	decision_ratio[10] 	0.010352885497086
scalar tree_4_3_u06_r19_network.node[11].core_layer 	interests[11] 	36027
scalar tree_4_3_u06_r19_network.node[11].core_layer 	data[11] 	32865
scalar tree_4_3_u06_r19_network.node[11].content_store 	p_hit[11] 	0.087767507702556
scalar tree_4_3_u06_r19_network.node[11].content_store 	hits[11] 	3162
scalar tree_4_3_u06_r19_network.node[11].content_store 	misses[11] 	32865
scalar tree_4_3_u06_r19_network.node[11].content_store 	decision_yes[11] 	349
scalar tree_4_3_u06_r19_network.node[11].content_store 	decision_no[11] 	32516
scalar tree_4_3_u06_r19_network.node[11].content_store 	decision_ratio[11] 	0.01061919975658
scalar tree_4_3_u06_r19_network.node[12].core_layer 	interests[12] 	10453
scalar tree_4_3_u06_r19_network.node[12].core_layer 	data[12] 	8630
scalar tree_4_3_u06_r19_network.node[12].content_store 	p_hit[12] 	0.17439969386779
scalar tree_4_3_u06_r19_network.node[12].content_store 	hits[12] 	1823
scalar tree_4_3_u06_r19_network.node[12].content_store 	misses[12] 	8630
scalar tree_4_3_u06_r19_network.node[12].content_store 	decision_yes[12] 	120
scalar tree_4_3_u06_r19_network.node[12].content_store 	decision_no[12] 	8510
scalar tree_4_3_u06_r19_network.node[12].content_store 	decision_ratio[12] 	0.013904982618772
scalar tree_4_3_u06_r19_network.node[13].core_layer 	interests[13] 	12477
scalar tree_4_3_u06_r19_network.node[13].core_layer 	data[13] 	8847
scalar tree_4_3_u06_r19_network.node[13].content_store 	p_hit[13] 	0.29093532099062
scalar tree_4_3_u06_r19_network.node[13].content_store 	hits[13] 	3630
scalar tree_4_3_u06_r19_network.node[13].content_store 	misses[13] 	8847
scalar tree_4_3_u06_r19_network.node[13].content_store 	decision_yes[13] 	108
scalar tree_4_3_u06_r19_network.node[13].content_store 	decision_no[13] 	8739
scalar tree_4_3_u06_r19_network.node[13].content_store 	decision_ratio[13] 	0.012207527975585
scalar tree_4_3_u06_r19_network.node[14].core_layer 	interests[14] 	13042
scalar tree_4_3_u06_r19_network.node[14].core_layer 	data[14] 	8756
scalar tree_4_3_u06_r19_network.node[14].content_store 	p_hit[14] 	0.32863057813219
scalar tree_4_3_u06_r19_network.node[14].content_store 	hits[14] 	4286
scalar tree_4_3_u06_r19_network.node[14].content_store 	misses[14] 	8756
scalar tree_4_3_u06_r19_network.node[14].content_store 	decision_yes[14] 	124
scalar tree_4_3_u06_r19_network.node[14].content_store 	decision_no[14] 	8632
scalar tree_4_3_u06_r19_network.node[14].content_store 	decision_ratio[14] 	0.014161717679306
scalar tree_4_3_u06_r19_network.node[15].core_layer 	interests[15] 	12400
scalar tree_4_3_u06_r19_network.node[15].core_layer 	data[15] 	8720
scalar tree_4_3_u06_r19_network.node[15].content_store 	p_hit[15] 	0.2966935483871
scalar tree_4_3_u06_r19_network.node[15].content_store 	hits[15] 	3679
scalar tree_4_3_u06_r19_network.node[15].content_store 	misses[15] 	8721
scalar tree_4_3_u06_r19_network.node[15].content_store 	decision_yes[15] 	120
scalar tree_4_3_u06_r19_network.node[15].content_store 	decision_no[15] 	8600
scalar tree_4_3_u06_r19_network.node[15].content_store 	decision_ratio[15] 	0.013761467889908
scalar tree_4_3_u06_r19_network.node[16].core_layer 	interests[16] 	12721
scalar tree_4_3_u06_r19_network.node[16].core_layer 	data[16] 	8864
scalar tree_4_3_u06_r19_network.node[16].content_store 	p_hit[16] 	0.30327804417892
scalar tree_4_3_u06_r19_network.node[16].content_store 	hits[16] 	3858
scalar tree_4_3_u06_r19_network.node[16].content_store 	misses[16] 	8863
scalar tree_4_3_u06_r19_network.node[16].content_store 	decision_yes[16] 	118
scalar tree_4_3_u06_r19_network.node[16].content_store 	decision_no[16] 	8746
scalar tree_4_3_u06_r19_network.node[16].content_store 	decision_ratio[16] 	0.013312274368231
scalar tree_4_3_u06_r19_network.node[17].core_layer 	interests[17] 	12605
scalar tree_4_3_u06_r19_network.node[17].core_layer 	data[17] 	8755
scalar tree_4_3_u06_r19_network.node[17].content_store 	p_hit[17] 	0.30543435144784
scalar tree_4_3_u06_r19_network.node[17].content_store 	hits[17] 	3850
scalar tree_4_3_u06_r19_network.node[17].content_store 	misses[17] 	8755
scalar tree_4_3_u06_r19_network.node[17].content_store 	decision_yes[17] 	115
scalar tree_4_3_u06_r19_network.node[17].content_store 	decision_no[17] 	8640
scalar tree_4_3_u06_r19_network.node[17].content_store 	decision_ratio[17] 	0.01313535122787
scalar tree_4_3_u06_r19_network.node[18].core_layer 	interests[18] 	12985
scalar tree_4_3_u06_r19_network.node[18].core_layer 	data[18] 	8764
scalar tree_4_3_u06_r19_network.node[18].content_store 	p_hit[18] 	0.32506738544474
scalar tree_4_3_u06_r19_network.node[18].content_store 	hits[18] 	4221
scalar tree_4_3_u06_r19_network.node[18].content_store 	misses[18] 	8764
scalar tree_4_3_u06_r19_network.node[18].content_store 	decision_yes[18] 	109
scalar tree_4_3_u06_r19_network.node[18].content_store 	decision_no[18] 	8655
scalar tree_4_3_u06_r19_network.node[18].content_store 	decision_ratio[18] 	0.012437243267914
scalar tree_4_3_u06_r19_network.node[19].core_layer 	interests[19] 	12918
scalar tree_4_3_u06_r19_network.node[19].core_layer 	data[19] 	8841
scalar tree_4_3_u06_r19_network.node[19].content_store 	p_hit[19] 	0.31560613098003
scalar tree_4_3_u06_r19_network.node[19].content_store 	hits[19] 	4077
scalar tree_4_3_u06_r19_network.node[19].content_store 	misses[19] 	8841
scalar tree_4_3_u06_r19_network.node[19].content_store 	decision_yes[19] 	116
scalar tree_4_3_u06_r19_network.node[19].content_store 	decision_no[19] 	8725
scalar tree_4_3_u06_r19_network.node[19].content_store 	decision_ratio[19] 	0.013120687705011
scalar tree_4_3_u06_r19_network.node[20].core_layer 	interests[20] 	12963
scalar tree_4_3_u06_r19_network.node[20].core_layer 	data[20] 	8901
scalar tree_4_3_u06_r19_network.node[20].content_store 	p_hit[20] 	0.31335339041888
scalar tree_4_3_u06_r19_network.node[20].content_store 	hits[20] 	4062
scalar tree_4_3_u06_r19_network.node[20].content_store 	misses[20] 	8901
scalar tree_4_3_u06_r19_network.node[20].content_store 	decision_yes[20] 	120
scalar tree_4_3_u06_r19_network.node[20].content_store 	decision_no[20] 	8781
scalar tree_4_3_u06_r19_network.node[20].content_store 	decision_ratio[20] 	0.013481631277385
scalar tree_4_3_u06_r19_network.node[21].core_layer 	interests[21] 	12290
scalar tree_4_3_u06_r19_network.node[21].core_layer 	data[21] 	8762
scalar tree_4_3_u06_r19_network.node[21].content_store 	p_hit[21] 	0.28706265256306
scalar tree_4_3_u06_r19_network.node[21].content_store 	hits[21] 	3528
scalar tree_4_3_u06_r19_network.node[21].content_store 	misses[21] 	8762
scalar tree_4_3_u06_r19_network.node[21].content_store 	decision_yes[21] 	95
scalar tree_4_3_u06_r19_network.node[21].content_store 	decision_no[21] 	8667
scalar tree_4_3_u06_r19_network.node[21].content_store 	decision_ratio[21] 	0.010842273453549
scalar tree_4_3_u06_r19_network.node[22].core_layer 	interests[22] 	12623
scalar tree_4_3_u06_r19_network.node[22].core_layer 	data[22] 	8949
scalar tree_4_3_u06_r19_network.node[22].content_store 	p_hit[22] 	0.29105600887269
scalar tree_4_3_u06_r19_network.node[22].content_store 	hits[22] 	3674
scalar tree_4_3_u06_r19_network.node[22].content_store 	misses[22] 	8949
scalar tree_4_3_u06_r19_network.node[22].content_store 	decision_yes[22] 	143
scalar tree_4_3_u06_r19_network.node[22].content_store 	decision_no[22] 	8806
scalar tree_4_3_u06_r19_network.node[22].content_store 	decision_ratio[22] 	0.015979439043469
scalar tree_4_3_u06_r19_network.node[23].core_layer 	interests[23] 	12762
scalar tree_4_3_u06_r19_network.node[23].core_layer 	data[23] 	8656
scalar tree_4_3_u06_r19_network.node[23].content_store 	p_hit[23] 	0.3217364049522
scalar tree_4_3_u06_r19_network.node[23].content_store 	hits[23] 	4106
scalar tree_4_3_u06_r19_network.node[23].content_store 	misses[23] 	8656
scalar tree_4_3_u06_r19_network.node[23].content_store 	decision_yes[23] 	108
scalar tree_4_3_u06_r19_network.node[23].content_store 	decision_no[23] 	8548
scalar tree_4_3_u06_r19_network.node[23].content_store 	decision_ratio[23] 	0.012476894639556
scalar tree_4_3_u06_r19_network.node[24].core_layer 	interests[24] 	13175
scalar tree_4_3_u06_r19_network.node[24].core_layer 	data[24] 	8975
scalar tree_4_3_u06_r19_network.node[24].content_store 	p_hit[24] 	0.31878557874763
scalar tree_4_3_u06_r19_network.node[24].content_store 	hits[24] 	4200
scalar tree_4_3_u06_r19_network.node[24].content_store 	misses[24] 	8975
scalar tree_4_3_u06_r19_network.node[24].content_store 	decision_yes[24] 	143
scalar tree_4_3_u06_r19_network.node[24].content_store 	decision_no[24] 	8832
scalar tree_4_3_u06_r19_network.node[24].content_store 	decision_ratio[24] 	0.015933147632312
scalar tree_4_3_u06_r19_network.node[25].core_layer 	interests[25] 	13106
scalar tree_4_3_u06_r19_network.node[25].core_layer 	data[25] 	8996
scalar tree_4_3_u06_r19_network.node[25].content_store 	p_hit[25] 	0.31359682588128
scalar tree_4_3_u06_r19_network.node[25].content_store 	hits[25] 	4110
scalar tree_4_3_u06_r19_network.node[25].content_store 	misses[25] 	8996
scalar tree_4_3_u06_r19_network.node[25].content_store 	decision_yes[25] 	118
scalar tree_4_3_u06_r19_network.node[25].content_store 	decision_no[25] 	8878
scalar tree_4_3_u06_r19_network.node[25].content_store 	decision_ratio[25] 	0.013116940862606
scalar tree_4_3_u06_r19_network.node[26].core_layer 	interests[26] 	12389
scalar tree_4_3_u06_r19_network.node[26].core_layer 	data[26] 	8832
scalar tree_4_3_u06_r19_network.node[26].content_store 	p_hit[26] 	0.28702881588506
scalar tree_4_3_u06_r19_network.node[26].content_store 	hits[26] 	3556
scalar tree_4_3_u06_r19_network.node[26].content_store 	misses[26] 	8833
scalar tree_4_3_u06_r19_network.node[26].content_store 	decision_yes[26] 	102
scalar tree_4_3_u06_r19_network.node[26].content_store 	decision_no[26] 	8730
scalar tree_4_3_u06_r19_network.node[26].content_store 	decision_ratio[26] 	0.011548913043478
scalar tree_4_3_u06_r19_network.node[27].core_layer 	interests[27] 	12841
scalar tree_4_3_u06_r19_network.node[27].core_layer 	data[27] 	8881
scalar tree_4_3_u06_r19_network.node[27].content_store 	p_hit[27] 	0.30838719725878
scalar tree_4_3_u06_r19_network.node[27].content_store 	hits[27] 	3960
scalar tree_4_3_u06_r19_network.node[27].content_store 	misses[27] 	8881
scalar tree_4_3_u06_r19_network.node[27].content_store 	decision_yes[27] 	130
scalar tree_4_3_u06_r19_network.node[27].content_store 	decision_no[27] 	8751
scalar tree_4_3_u06_r19_network.node[27].content_store 	decision_ratio[27] 	0.014637991217205
scalar tree_4_3_u06_r19_network.node[28].core_layer 	interests[28] 	13069
scalar tree_4_3_u06_r19_network.node[28].core_layer 	data[28] 	8741
scalar tree_4_3_u06_r19_network.node[28].content_store 	p_hit[28] 	0.33124187007422
scalar tree_4_3_u06_r19_network.node[28].content_store 	hits[28] 	4329
scalar tree_4_3_u06_r19_network.node[28].content_store 	misses[28] 	8740
scalar tree_4_3_u06_r19_network.node[28].content_store 	decision_yes[28] 	105
scalar tree_4_3_u06_r19_network.node[28].content_store 	decision_no[28] 	8636
scalar tree_4_3_u06_r19_network.node[28].content_store 	decision_ratio[28] 	0.012012355565725
scalar tree_4_3_u06_r19_network.node[29].core_layer 	interests[29] 	12419
scalar tree_4_3_u06_r19_network.node[29].core_layer 	data[29] 	8789
scalar tree_4_3_u06_r19_network.node[29].content_store 	p_hit[29] 	0.29229406554473
scalar tree_4_3_u06_r19_network.node[29].content_store 	hits[29] 	3630
scalar tree_4_3_u06_r19_network.node[29].content_store 	misses[29] 	8789
scalar tree_4_3_u06_r19_network.node[29].content_store 	decision_yes[29] 	115
scalar tree_4_3_u06_r19_network.node[29].content_store 	decision_no[29] 	8674
scalar tree_4_3_u06_r19_network.node[29].content_store 	decision_ratio[29] 	0.013084537490044
scalar tree_4_3_u06_r19_network.node[30].core_layer 	interests[30] 	12380
scalar tree_4_3_u06_r19_network.node[30].core_layer 	data[30] 	8717
scalar tree_4_3_u06_r19_network.node[30].content_store 	p_hit[30] 	0.29588045234249
scalar tree_4_3_u06_r19_network.node[30].content_store 	hits[30] 	3663
scalar tree_4_3_u06_r19_network.node[30].content_store 	misses[30] 	8717
scalar tree_4_3_u06_r19_network.node[30].content_store 	decision_yes[30] 	93
scalar tree_4_3_u06_r19_network.node[30].content_store 	decision_no[30] 	8624
scalar tree_4_3_u06_r19_network.node[30].content_store 	decision_ratio[30] 	0.010668808076173
scalar tree_4_3_u06_r19_network.node[31].core_layer 	interests[31] 	12571
scalar tree_4_3_u06_r19_network.node[31].core_layer 	data[31] 	8851
scalar tree_4_3_u06_r19_network.node[31].content_store 	p_hit[31] 	0.29583963089651
scalar tree_4_3_u06_r19_network.node[31].content_store 	hits[31] 	3719
scalar tree_4_3_u06_r19_network.node[31].content_store 	misses[31] 	8852
scalar tree_4_3_u06_r19_network.node[31].content_store 	decision_yes[31] 	110
scalar tree_4_3_u06_r19_network.node[31].content_store 	decision_no[31] 	8741
scalar tree_4_3_u06_r19_network.node[31].content_store 	decision_ratio[31] 	0.012427974240199
scalar tree_4_3_u06_r19_network.node[32].core_layer 	interests[32] 	12514
scalar tree_4_3_u06_r19_network.node[32].core_layer 	data[32] 	8717
scalar tree_4_3_u06_r19_network.node[32].content_store 	p_hit[32] 	0.30342016941026
scalar tree_4_3_u06_r19_network.node[32].content_store 	hits[32] 	3797
scalar tree_4_3_u06_r19_network.node[32].content_store 	misses[32] 	8717
scalar tree_4_3_u06_r19_network.node[32].content_store 	decision_yes[32] 	133
scalar tree_4_3_u06_r19_network.node[32].content_store 	decision_no[32] 	8584
scalar tree_4_3_u06_r19_network.node[32].content_store 	decision_ratio[32] 	0.015257542732591
scalar tree_4_3_u06_r19_network.node[33].core_layer 	interests[33] 	12529
scalar tree_4_3_u06_r19_network.node[33].core_layer 	data[33] 	8826
scalar tree_4_3_u06_r19_network.node[33].content_store 	p_hit[33] 	0.29555431399154
scalar tree_4_3_u06_r19_network.node[33].content_store 	hits[33] 	3703
scalar tree_4_3_u06_r19_network.node[33].content_store 	misses[33] 	8826
scalar tree_4_3_u06_r19_network.node[33].content_store 	decision_yes[33] 	116
scalar tree_4_3_u06_r19_network.node[33].content_store 	decision_no[33] 	8710
scalar tree_4_3_u06_r19_network.node[33].content_store 	decision_ratio[33] 	0.01314298663041
scalar tree_4_3_u06_r19_network.node[34].core_layer 	interests[34] 	12847
scalar tree_4_3_u06_r19_network.node[34].core_layer 	data[34] 	8566
scalar tree_4_3_u06_r19_network.node[34].content_store 	p_hit[34] 	0.33322954775434
scalar tree_4_3_u06_r19_network.node[34].content_store 	hits[34] 	4281
scalar tree_4_3_u06_r19_network.node[34].content_store 	misses[34] 	8566
scalar tree_4_3_u06_r19_network.node[34].content_store 	decision_yes[34] 	111
scalar tree_4_3_u06_r19_network.node[34].content_store 	decision_no[34] 	8455
scalar tree_4_3_u06_r19_network.node[34].content_store 	decision_ratio[34] 	0.012958206864347
scalar tree_4_3_u06_r19_network.node[35].core_layer 	interests[35] 	12571
scalar tree_4_3_u06_r19_network.node[35].core_layer 	data[35] 	8835
scalar tree_4_3_u06_r19_network.node[35].content_store 	p_hit[35] 	0.29719194972556
scalar tree_4_3_u06_r19_network.node[35].content_store 	hits[35] 	3736
scalar tree_4_3_u06_r19_network.node[35].content_store 	misses[35] 	8835
scalar tree_4_3_u06_r19_network.node[35].content_store 	decision_yes[35] 	104
scalar tree_4_3_u06_r19_network.node[35].content_store 	decision_no[35] 	8731
scalar tree_4_3_u06_r19_network.node[35].content_store 	decision_ratio[35] 	0.011771363893605
scalar tree_4_3_u06_r19_network.node[36].core_layer 	interests[36] 	12624
scalar tree_4_3_u06_r19_network.node[36].core_layer 	data[36] 	8890
scalar tree_4_3_u06_r19_network.node[36].content_store 	p_hit[36] 	0.29578580481622
scalar tree_4_3_u06_r19_network.node[36].content_store 	hits[36] 	3734
scalar tree_4_3_u06_r19_network.node[36].content_store 	misses[36] 	8890
scalar tree_4_3_u06_r19_network.node[36].content_store 	decision_yes[36] 	131
scalar tree_4_3_u06_r19_network.node[36].content_store 	decision_no[36] 	8759
scalar tree_4_3_u06_r19_network.node[36].content_store 	decision_ratio[36] 	0.014735658042745
scalar tree_4_3_u06_r19_network.node[37].core_layer 	interests[37] 	12865
scalar tree_4_3_u06_r19_network.node[37].core_layer 	data[37] 	8841
scalar tree_4_3_u06_r19_network.node[37].content_store 	p_hit[37] 	0.31278663039254
scalar tree_4_3_u06_r19_network.node[37].content_store 	hits[37] 	4024
scalar tree_4_3_u06_r19_network.node[37].content_store 	misses[37] 	8841
scalar tree_4_3_u06_r19_network.node[37].content_store 	decision_yes[37] 	117
scalar tree_4_3_u06_r19_network.node[37].content_store 	decision_no[37] 	8724
scalar tree_4_3_u06_r19_network.node[37].content_store 	decision_ratio[37] 	0.013233797081778
scalar tree_4_3_u06_r19_network.node[38].core_layer 	interests[38] 	12790
scalar tree_4_3_u06_r19_network.node[38].core_layer 	data[38] 	8669
scalar tree_4_3_u06_r19_network.node[38].content_store 	p_hit[38] 	0.32220484753714
scalar tree_4_3_u06_r19_network.node[38].content_store 	hits[38] 	4121
scalar tree_4_3_u06_r19_network.node[38].content_store 	misses[38] 	8669
scalar tree_4_3_u06_r19_network.node[38].content_store 	decision_yes[38] 	102
scalar tree_4_3_u06_r19_network.node[38].content_store 	decision_no[38] 	8567
scalar tree_4_3_u06_r19_network.node[38].content_store 	decision_ratio[38] 	0.011766062983043
scalar tree_4_3_u06_r19_network.node[39].core_layer 	interests[39] 	12083
scalar tree_4_3_u06_r19_network.node[39].core_layer 	data[39] 	8707
scalar tree_4_3_u06_r19_network.node[39].content_store 	p_hit[39] 	0.27940081105686
scalar tree_4_3_u06_r19_network.node[39].content_store 	hits[39] 	3376
scalar tree_4_3_u06_r19_network.node[39].content_store 	misses[39] 	8707
scalar tree_4_3_u06_r19_network.node[39].content_store 	decision_yes[39] 	96
scalar tree_4_3_u06_r19_network.node[39].content_store 	decision_no[39] 	8611
scalar tree_4_3_u06_r19_network.node[39].content_store 	decision_ratio[39] 	0.011025611576892
scalar tree_4_3_u06_r19_network.client[13] 	hdistance[13] 	2.6982937994174
scalar tree_4_3_u06_r19_network.client[13] 	downloads[13] 	12015
scalar tree_4_3_u06_r19_network.client[13] 	avg_time[13] 	0.004220554642
scalar tree_4_3_u06_r19_network.client[14] 	hdistance[14] 	2.5722567635692
scalar tree_4_3_u06_r19_network.client[14] 	downloads[14] 	11902
scalar tree_4_3_u06_r19_network.client[14] 	avg_time[14] 	0.004038646009
scalar tree_4_3_u06_r19_network.client[15] 	hdistance[15] 	2.6626002673797
scalar tree_4_3_u06_r19_network.client[15] 	downloads[15] 	11968
scalar tree_4_3_u06_r19_network.client[15] 	avg_time[15] 	0.004167610635
scalar tree_4_3_u06_r19_network.client[16] 	hdistance[16] 	2.6145006613757
scalar tree_4_3_u06_r19_network.client[16] 	downloads[16] 	12096
scalar tree_4_3_u06_r19_network.client[16] 	avg_time[16] 	0.004118548559
scalar tree_4_3_u06_r19_network.client[17] 	hdistance[17] 	2.6124179203724
scalar tree_4_3_u06_r19_network.client[17] 	downloads[17] 	12031
scalar tree_4_3_u06_r19_network.client[17] 	avg_time[17] 	0.004114366627
scalar tree_4_3_u06_r19_network.client[18] 	hdistance[18] 	2.5749562025528
scalar tree_4_3_u06_r19_network.client[18] 	downloads[18] 	11987
scalar tree_4_3_u06_r19_network.client[18] 	avg_time[18] 	0.004030530076
scalar tree_4_3_u06_r19_network.client[19] 	hdistance[19] 	2.6208695652174
scalar tree_4_3_u06_r19_network.client[19] 	downloads[19] 	12075
scalar tree_4_3_u06_r19_network.client[19] 	avg_time[19] 	0.004077015604
scalar tree_4_3_u06_r19_network.client[20] 	hdistance[20] 	2.6051620447711
scalar tree_4_3_u06_r19_network.client[20] 	downloads[20] 	11972
scalar tree_4_3_u06_r19_network.client[20] 	avg_time[20] 	0.004087701671
scalar tree_4_3_u06_r19_network.client[21] 	hdistance[21] 	2.6565464895636
scalar tree_4_3_u06_r19_network.client[21] 	downloads[21] 	12121
scalar tree_4_3_u06_r19_network.client[21] 	avg_time[21] 	0.004156584745
scalar tree_4_3_u06_r19_network.client[22] 	hdistance[22] 	2.6596433015346
scalar tree_4_3_u06_r19_network.client[22] 	downloads[22] 	12055
scalar tree_4_3_u06_r19_network.client[22] 	avg_time[22] 	0.004201904922
scalar tree_4_3_u06_r19_network.client[23] 	hdistance[23] 	2.5721028234303
scalar tree_4_3_u06_r19_network.client[23] 	downloads[23] 	11865
scalar tree_4_3_u06_r19_network.client[23] 	avg_time[23] 	0.004030001283
scalar tree_4_3_u06_r19_network.client[24] 	hdistance[24] 	2.5978954345845
scalar tree_4_3_u06_r19_network.client[24] 	downloads[24] 	12069
scalar tree_4_3_u06_r19_network.client[24] 	avg_time[24] 	0.004073972759
scalar tree_4_3_u06_r19_network.client[25] 	hdistance[25] 	2.6132992748846
scalar tree_4_3_u06_r19_network.client[25] 	downloads[25] 	12136
scalar tree_4_3_u06_r19_network.client[25] 	avg_time[25] 	0.004095580334
scalar tree_4_3_u06_r19_network.client[26] 	hdistance[26] 	2.6708347134813
scalar tree_4_3_u06_r19_network.client[26] 	downloads[26] 	12076
scalar tree_4_3_u06_r19_network.client[26] 	avg_time[26] 	0.004195025929
scalar tree_4_3_u06_r19_network.client[27] 	hdistance[27] 	2.6088977423639
scalar tree_4_3_u06_r19_network.client[27] 	downloads[27] 	12048
scalar tree_4_3_u06_r19_network.client[27] 	avg_time[27] 	0.004079809997
scalar tree_4_3_u06_r19_network.client[28] 	hdistance[28] 	2.5580055124029
scalar tree_4_3_u06_r19_network.client[28] 	downloads[28] 	11973
scalar tree_4_3_u06_r19_network.client[28] 	avg_time[28] 	0.004009523949
scalar tree_4_3_u06_r19_network.client[29] 	hdistance[29] 	2.6556749104838
scalar tree_4_3_u06_r19_network.client[29] 	downloads[29] 	12009
scalar tree_4_3_u06_r19_network.client[29] 	avg_time[29] 	0.00416603913
scalar tree_4_3_u06_r19_network.client[30] 	hdistance[30] 	2.6504691689008
scalar tree_4_3_u06_r19_network.client[30] 	downloads[30] 	11936
scalar tree_4_3_u06_r19_network.client[30] 	avg_time[30] 	0.004150968841
scalar tree_4_3_u06_r19_network.client[31] 	hdistance[31] 	2.6655626397284
scalar tree_4_3_u06_r19_network.client[31] 	downloads[31] 	12077
scalar tree_4_3_u06_r19_network.client[31] 	avg_time[31] 	0.004134566358
scalar tree_4_3_u06_r19_network.client[32] 	hdistance[32] 	2.6253528142122
scalar tree_4_3_u06_r19_network.client[32] 	downloads[32] 	12046
scalar tree_4_3_u06_r19_network.client[32] 	avg_time[32] 	0.004075009496
scalar tree_4_3_u06_r19_network.client[33] 	hdistance[33] 	2.6641760066418
scalar tree_4_3_u06_r19_network.client[33] 	downloads[33] 	12045
scalar tree_4_3_u06_r19_network.client[33] 	avg_time[33] 	0.004134160523
scalar tree_4_3_u06_r19_network.client[34] 	hdistance[34] 	2.5727896995708
scalar tree_4_3_u06_r19_network.client[34] 	downloads[34] 	11650
scalar tree_4_3_u06_r19_network.client[34] 	avg_time[34] 	0.00403295848
scalar tree_4_3_u06_r19_network.client[35] 	hdistance[35] 	2.6500249210832
scalar tree_4_3_u06_r19_network.client[35] 	downloads[35] 	12038
scalar tree_4_3_u06_r19_network.client[35] 	avg_time[35] 	0.004168795788
scalar tree_4_3_u06_r19_network.client[36] 	hdistance[36] 	2.6538810525448
scalar tree_4_3_u06_r19_network.client[36] 	downloads[36] 	12123
scalar tree_4_3_u06_r19_network.client[36] 	avg_time[36] 	0.004177180798
scalar tree_4_3_u06_r19_network.client[37] 	hdistance[37] 	2.6390877309805
scalar tree_4_3_u06_r19_network.client[37] 	downloads[37] 	12014
scalar tree_4_3_u06_r19_network.client[37] 	avg_time[37] 	0.004070914291
scalar tree_4_3_u06_r19_network.client[38] 	hdistance[38] 	2.5696372969789
scalar tree_4_3_u06_r19_network.client[38] 	downloads[38] 	11883
scalar tree_4_3_u06_r19_network.client[38] 	avg_time[38] 	0.004024738251
scalar tree_4_3_u06_r19_network.client[39] 	hdistance[39] 	2.6948117154812
scalar tree_4_3_u06_r19_network.client[39] 	downloads[39] 	11950
scalar tree_4_3_u06_r19_network.client[39] 	avg_time[39] 	0.004185771086
