version 2
run General-384-20160901-07:14:10-8710
attr a 0.9
attr cd ffc
attr configname General
attr cr lru
attr datetime 20160901-07:14:10
attr experiment General
attr fsize 1
attr inifile hw5115/scenario_Y/omnetp.ini
attr iterationvars "$name=tree_4_3, $un=06, $rep=9, $cd=ffc, $cr=lru, $fsize=1, $a=0.9, $sl=nrr, $ttl=1000, $variance=0.05"
attr iterationvars2 "$name=tree_4_3, $un=06, $rep=9, $cd=ffc, $cr=lru, $fsize=1, $a=0.9, $sl=nrr, $ttl=1000, $variance=0.05, $repetition=0"
attr measurement "$name=tree_4_3, $un=06, $rep=9, $cd=ffc, $cr=lru, $fsize=1, $a=0.9, $sl=nrr, $ttl=1000, $variance=0.05"
attr name tree_4_3
attr network networks.${name}_u${un}_r${rep}_network
attr processid 8710
attr rep 9
attr repetition 0
attr replication #0
attr resultdir results
attr runnumber 384
attr seedset 9
attr sl nrr
attr ttl 1000
attr un 06
attr variance 0.05

scalar . 	a 	0.9
scalar . 	fsize 	1
scalar . 	rep 	9
scalar . 	ttl 	1000
scalar . 	un 	06
scalar . 	variance 	0.05
scalar tree_4_3_u06_r9_network.content_distribution 	repo-0 	0
scalar tree_4_3_u06_r9_network.content_distribution 	client-0 	13
scalar tree_4_3_u06_r9_network.content_distribution 	client-1 	14
scalar tree_4_3_u06_r9_network.content_distribution 	client-2 	15
scalar tree_4_3_u06_r9_network.content_distribution 	client-3 	16
scalar tree_4_3_u06_r9_network.content_distribution 	client-4 	17
scalar tree_4_3_u06_r9_network.content_distribution 	client-5 	18
scalar tree_4_3_u06_r9_network.content_distribution 	client-6 	19
scalar tree_4_3_u06_r9_network.content_distribution 	client-7 	20
scalar tree_4_3_u06_r9_network.content_distribution 	client-8 	21
scalar tree_4_3_u06_r9_network.content_distribution 	client-9 	22
scalar tree_4_3_u06_r9_network.content_distribution 	client-10 	23
scalar tree_4_3_u06_r9_network.content_distribution 	client-11 	24
scalar tree_4_3_u06_r9_network.content_distribution 	client-12 	25
scalar tree_4_3_u06_r9_network.content_distribution 	client-13 	26
scalar tree_4_3_u06_r9_network.content_distribution 	client-14 	27
scalar tree_4_3_u06_r9_network.content_distribution 	client-15 	28
scalar tree_4_3_u06_r9_network.content_distribution 	client-16 	29
scalar tree_4_3_u06_r9_network.content_distribution 	client-17 	30
scalar tree_4_3_u06_r9_network.content_distribution 	client-18 	31
scalar tree_4_3_u06_r9_network.content_distribution 	client-19 	32
scalar tree_4_3_u06_r9_network.content_distribution 	client-20 	33
scalar tree_4_3_u06_r9_network.content_distribution 	client-21 	34
scalar tree_4_3_u06_r9_network.content_distribution 	client-22 	35
scalar tree_4_3_u06_r9_network.content_distribution 	client-23 	36
scalar tree_4_3_u06_r9_network.content_distribution 	client-24 	37
scalar tree_4_3_u06_r9_network.content_distribution 	client-25 	38
scalar tree_4_3_u06_r9_network.content_distribution 	client-26 	39
scalar tree_4_3_u06_r9_network.content_distribution 	repo-0_card 	100000
scalar tree_4_3_u06_r9_network.content_distribution 	repo-0_price 	0
scalar tree_4_3_u06_r9_network.statistics 	stabilization_time 	1033.2
scalar tree_4_3_u06_r9_network.statistics 	p_hit 	0.23437734669032
scalar tree_4_3_u06_r9_network.statistics 	interests 	24746.85
scalar tree_4_3_u06_r9_network.statistics 	data 	16654.925
scalar tree_4_3_u06_r9_network.statistics 	hdistance 	2.6263917875249
scalar tree_4_3_u06_r9_network.statistics 	avg_time 	0.004116888378
scalar tree_4_3_u06_r9_network.statistics 	downloads 	323669
scalar tree_4_3_u06_r9_network.statistics 	total_cost 	0
scalar tree_4_3_u06_r9_network.statistics 	total_replicas 	100000
scalar tree_4_3_u06_r9_network.statistics 	inner_hit 	0.43205558765282
scalar tree_4_3_u06_r9_network.node[0].core_layer 	interests[0] 	186274
scalar tree_4_3_u06_r9_network.node[0].core_layer 	repo_load[0] 	183826
scalar tree_4_3_u06_r9_network.node[0].core_layer 	data[0] 	0
scalar tree_4_3_u06_r9_network.node[0].core_layer 	repo_int[0] 	183826
scalar tree_4_3_u06_r9_network.node[0].content_store 	p_hit[0] 	0.013141930704231
scalar tree_4_3_u06_r9_network.node[0].content_store 	hits[0] 	2448
scalar tree_4_3_u06_r9_network.node[0].content_store 	misses[0] 	183826
scalar tree_4_3_u06_r9_network.node[0].content_store 	decision_yes[0] 	792
scalar tree_4_3_u06_r9_network.node[0].content_store 	decision_no[0] 	183034
scalar tree_4_3_u06_r9_network.node[0].content_store 	decision_ratio[0] 	0.004308422094807
scalar tree_4_3_u06_r9_network.node[1].core_layer 	interests[1] 	89304
scalar tree_4_3_u06_r9_network.node[1].core_layer 	data[1] 	87282
scalar tree_4_3_u06_r9_network.node[1].content_store 	p_hit[1] 	0.022619367553525
scalar tree_4_3_u06_r9_network.node[1].content_store 	hits[1] 	2020
scalar tree_4_3_u06_r9_network.node[1].content_store 	misses[1] 	87284
scalar tree_4_3_u06_r9_network.node[1].content_store 	decision_yes[1] 	452
scalar tree_4_3_u06_r9_network.node[1].content_store 	decision_no[1] 	86830
scalar tree_4_3_u06_r9_network.node[1].content_store 	decision_ratio[1] 	0.0051786164386701
scalar tree_4_3_u06_r9_network.node[2].core_layer 	interests[2] 	85864
scalar tree_4_3_u06_r9_network.node[2].core_layer 	data[2] 	82860
scalar tree_4_3_u06_r9_network.node[2].content_store 	p_hit[2] 	0.034973912233299
scalar tree_4_3_u06_r9_network.node[2].content_store 	hits[2] 	3003
scalar tree_4_3_u06_r9_network.node[2].content_store 	misses[2] 	82861
scalar tree_4_3_u06_r9_network.node[2].content_store 	decision_yes[2] 	525
scalar tree_4_3_u06_r9_network.node[2].content_store 	decision_no[2] 	82335
scalar tree_4_3_u06_r9_network.node[2].content_store 	decision_ratio[2] 	0.0063359884141926
scalar tree_4_3_u06_r9_network.node[3].core_layer 	interests[3] 	33808
scalar tree_4_3_u06_r9_network.node[3].core_layer 	data[3] 	31297
scalar tree_4_3_u06_r9_network.node[3].content_store 	p_hit[3] 	0.074272361571226
scalar tree_4_3_u06_r9_network.node[3].content_store 	hits[3] 	2511
scalar tree_4_3_u06_r9_network.node[3].content_store 	misses[3] 	31297
scalar tree_4_3_u06_r9_network.node[3].content_store 	decision_yes[3] 	231
scalar tree_4_3_u06_r9_network.node[3].content_store 	decision_no[3] 	31066
scalar tree_4_3_u06_r9_network.node[3].content_store 	decision_ratio[3] 	0.0073808991277119
scalar tree_4_3_u06_r9_network.node[4].core_layer 	interests[4] 	34464
scalar tree_4_3_u06_r9_network.node[4].core_layer 	data[4] 	32275
scalar tree_4_3_u06_r9_network.node[4].content_store 	p_hit[4] 	0.063515552460539
scalar tree_4_3_u06_r9_network.node[4].content_store 	hits[4] 	2189
scalar tree_4_3_u06_r9_network.node[4].content_store 	misses[4] 	32275
scalar tree_4_3_u06_r9_network.node[4].content_store 	decision_yes[4] 	248
scalar tree_4_3_u06_r9_network.node[4].content_store 	decision_no[4] 	32027
scalar tree_4_3_u06_r9_network.node[4].content_store 	decision_ratio[4] 	0.0076839659178931
scalar tree_4_3_u06_r9_network.node[5].core_layer 	interests[5] 	29012
scalar tree_4_3_u06_r9_network.node[5].core_layer 	data[5] 	25608
scalar tree_4_3_u06_r9_network.node[5].content_store 	p_hit[5] 	0.11733075968565
scalar tree_4_3_u06_r9_network.node[5].content_store 	hits[5] 	3404
scalar tree_4_3_u06_r9_network.node[5].content_store 	misses[5] 	25608
scalar tree_4_3_u06_r9_network.node[5].content_store 	decision_yes[5] 	305
scalar tree_4_3_u06_r9_network.node[5].content_store 	decision_no[5] 	25303
scalar tree_4_3_u06_r9_network.node[5].content_store 	decision_ratio[5] 	0.011910340518588
scalar tree_4_3_u06_r9_network.node[6].core_layer 	interests[6] 	20647
scalar tree_4_3_u06_r9_network.node[6].core_layer 	data[6] 	17522
scalar tree_4_3_u06_r9_network.node[6].content_store 	p_hit[6] 	0.151305274374
scalar tree_4_3_u06_r9_network.node[6].content_store 	hits[6] 	3124
scalar tree_4_3_u06_r9_network.node[6].content_store 	misses[6] 	17523
scalar tree_4_3_u06_r9_network.node[6].content_store 	decision_yes[6] 	244
scalar tree_4_3_u06_r9_network.node[6].content_store 	decision_no[6] 	17278
scalar tree_4_3_u06_r9_network.node[6].content_store 	decision_ratio[6] 	0.01392535098733
scalar tree_4_3_u06_r9_network.node[7].core_layer 	interests[7] 	28562
scalar tree_4_3_u06_r9_network.node[7].core_layer 	data[7] 	25352
scalar tree_4_3_u06_r9_network.node[7].content_store 	p_hit[7] 	0.11238708773895
scalar tree_4_3_u06_r9_network.node[7].content_store 	hits[7] 	3210
scalar tree_4_3_u06_r9_network.node[7].content_store 	misses[7] 	25352
scalar tree_4_3_u06_r9_network.node[7].content_store 	decision_yes[7] 	276
scalar tree_4_3_u06_r9_network.node[7].content_store 	decision_no[7] 	25076
scalar tree_4_3_u06_r9_network.node[7].content_store 	decision_ratio[7] 	0.010886715052067
scalar tree_4_3_u06_r9_network.node[8].core_layer 	interests[8] 	27758
scalar tree_4_3_u06_r9_network.node[8].core_layer 	data[8] 	25163
scalar tree_4_3_u06_r9_network.node[8].content_store 	p_hit[8] 	0.093486562432452
scalar tree_4_3_u06_r9_network.node[8].content_store 	hits[8] 	2595
scalar tree_4_3_u06_r9_network.node[8].content_store 	misses[8] 	25163
scalar tree_4_3_u06_r9_network.node[8].content_store 	decision_yes[8] 	289
scalar tree_4_3_u06_r9_network.node[8].content_store 	decision_no[8] 	24874
scalar tree_4_3_u06_r9_network.node[8].content_store 	decision_ratio[8] 	0.011485117036919
scalar tree_4_3_u06_r9_network.node[9].core_layer 	interests[9] 	29559
scalar tree_4_3_u06_r9_network.node[9].core_layer 	data[9] 	26463
scalar tree_4_3_u06_r9_network.node[9].content_store 	p_hit[9] 	0.10473967319598
scalar tree_4_3_u06_r9_network.node[9].content_store 	hits[9] 	3096
scalar tree_4_3_u06_r9_network.node[9].content_store 	misses[9] 	26463
scalar tree_4_3_u06_r9_network.node[9].content_store 	decision_yes[9] 	342
scalar tree_4_3_u06_r9_network.node[9].content_store 	decision_no[9] 	26121
scalar tree_4_3_u06_r9_network.node[9].content_store 	decision_ratio[9] 	0.012923704795375
scalar tree_4_3_u06_r9_network.node[10].core_layer 	interests[10] 	28260
scalar tree_4_3_u06_r9_network.node[10].core_layer 	data[10] 	25743
scalar tree_4_3_u06_r9_network.node[10].content_store 	p_hit[10] 	0.089065817409766
scalar tree_4_3_u06_r9_network.node[10].content_store 	hits[10] 	2517
scalar tree_4_3_u06_r9_network.node[10].content_store 	misses[10] 	25743
scalar tree_4_3_u06_r9_network.node[10].content_store 	decision_yes[10] 	283
scalar tree_4_3_u06_r9_network.node[10].content_store 	decision_no[10] 	25460
scalar tree_4_3_u06_r9_network.node[10].content_store 	decision_ratio[10] 	0.010993279726528
scalar tree_4_3_u06_r9_network.node[11].core_layer 	interests[11] 	43622
scalar tree_4_3_u06_r9_network.node[11].core_layer 	data[11] 	40252
scalar tree_4_3_u06_r9_network.node[11].content_store 	p_hit[11] 	0.077231672092064
scalar tree_4_3_u06_r9_network.node[11].content_store 	hits[11] 	3369
scalar tree_4_3_u06_r9_network.node[11].content_store 	misses[11] 	40253
scalar tree_4_3_u06_r9_network.node[11].content_store 	decision_yes[11] 	348
scalar tree_4_3_u06_r9_network.node[11].content_store 	decision_no[11] 	39904
scalar tree_4_3_u06_r9_network.node[11].content_store 	decision_ratio[11] 	0.0086455331412104
scalar tree_4_3_u06_r9_network.node[12].core_layer 	interests[12] 	10977
scalar tree_4_3_u06_r9_network.node[12].core_layer 	data[12] 	8686
scalar tree_4_3_u06_r9_network.node[12].content_store 	p_hit[12] 	0.20870911906714
scalar tree_4_3_u06_r9_network.node[12].content_store 	hits[12] 	2291
scalar tree_4_3_u06_r9_network.node[12].content_store 	misses[12] 	8686
scalar tree_4_3_u06_r9_network.node[12].content_store 	decision_yes[12] 	132
scalar tree_4_3_u06_r9_network.node[12].content_store 	decision_no[12] 	8554
scalar tree_4_3_u06_r9_network.node[12].content_store 	decision_ratio[12] 	0.015196868524062
scalar tree_4_3_u06_r9_network.node[13].core_layer 	interests[13] 	12556
scalar tree_4_3_u06_r9_network.node[13].core_layer 	data[13] 	8788
scalar tree_4_3_u06_r9_network.node[13].content_store 	p_hit[13] 	0.30009557183817
scalar tree_4_3_u06_r9_network.node[13].content_store 	hits[13] 	3768
scalar tree_4_3_u06_r9_network.node[13].content_store 	misses[13] 	8788
scalar tree_4_3_u06_r9_network.node[13].content_store 	decision_yes[13] 	104
scalar tree_4_3_u06_r9_network.node[13].content_store 	decision_no[13] 	8684
scalar tree_4_3_u06_r9_network.node[13].content_store 	decision_ratio[13] 	0.011834319526627
scalar tree_4_3_u06_r9_network.node[14].core_layer 	interests[14] 	12251
scalar tree_4_3_u06_r9_network.node[14].core_layer 	data[14] 	8740
scalar tree_4_3_u06_r9_network.node[14].content_store 	p_hit[14] 	0.2865888498898
scalar tree_4_3_u06_r9_network.node[14].content_store 	hits[14] 	3511
scalar tree_4_3_u06_r9_network.node[14].content_store 	misses[14] 	8740
scalar tree_4_3_u06_r9_network.node[14].content_store 	decision_yes[14] 	107
scalar tree_4_3_u06_r9_network.node[14].content_store 	decision_no[14] 	8633
scalar tree_4_3_u06_r9_network.node[14].content_store 	decision_ratio[14] 	0.012242562929062
scalar tree_4_3_u06_r9_network.node[15].core_layer 	interests[15] 	13123
scalar tree_4_3_u06_r9_network.node[15].core_layer 	data[15] 	8990
scalar tree_4_3_u06_r9_network.node[15].content_store 	p_hit[15] 	0.31486702735655
scalar tree_4_3_u06_r9_network.node[15].content_store 	hits[15] 	4132
scalar tree_4_3_u06_r9_network.node[15].content_store 	misses[15] 	8991
scalar tree_4_3_u06_r9_network.node[15].content_store 	decision_yes[15] 	125
scalar tree_4_3_u06_r9_network.node[15].content_store 	decision_no[15] 	8865
scalar tree_4_3_u06_r9_network.node[15].content_store 	decision_ratio[15] 	0.013904338153504
scalar tree_4_3_u06_r9_network.node[16].core_layer 	interests[16] 	13029
scalar tree_4_3_u06_r9_network.node[16].core_layer 	data[16] 	8760
scalar tree_4_3_u06_r9_network.node[16].content_store 	p_hit[16] 	0.32765369560212
scalar tree_4_3_u06_r9_network.node[16].content_store 	hits[16] 	4269
scalar tree_4_3_u06_r9_network.node[16].content_store 	misses[16] 	8760
scalar tree_4_3_u06_r9_network.node[16].content_store 	decision_yes[16] 	100
scalar tree_4_3_u06_r9_network.node[16].content_store 	decision_no[16] 	8660
scalar tree_4_3_u06_r9_network.node[16].content_store 	decision_ratio[16] 	0.011415525114155
scalar tree_4_3_u06_r9_network.node[17].core_layer 	interests[17] 	12228
scalar tree_4_3_u06_r9_network.node[17].core_layer 	data[17] 	8744
scalar tree_4_3_u06_r9_network.node[17].content_store 	p_hit[17] 	0.28491985606804
scalar tree_4_3_u06_r9_network.node[17].content_store 	hits[17] 	3484
scalar tree_4_3_u06_r9_network.node[17].content_store 	misses[17] 	8744
scalar tree_4_3_u06_r9_network.node[17].content_store 	decision_yes[17] 	123
scalar tree_4_3_u06_r9_network.node[17].content_store 	decision_no[17] 	8621
scalar tree_4_3_u06_r9_network.node[17].content_store 	decision_ratio[17] 	0.014066788655078
scalar tree_4_3_u06_r9_network.node[18].core_layer 	interests[18] 	12942
scalar tree_4_3_u06_r9_network.node[18].core_layer 	data[18] 	8859
scalar tree_4_3_u06_r9_network.node[18].content_store 	p_hit[18] 	0.31548446917014
scalar tree_4_3_u06_r9_network.node[18].content_store 	hits[18] 	4083
scalar tree_4_3_u06_r9_network.node[18].content_store 	misses[18] 	8859
scalar tree_4_3_u06_r9_network.node[18].content_store 	decision_yes[18] 	123
scalar tree_4_3_u06_r9_network.node[18].content_store 	decision_no[18] 	8736
scalar tree_4_3_u06_r9_network.node[18].content_store 	decision_ratio[18] 	0.013884185573993
scalar tree_4_3_u06_r9_network.node[19].core_layer 	interests[19] 	12563
scalar tree_4_3_u06_r9_network.node[19].core_layer 	data[19] 	8862
scalar tree_4_3_u06_r9_network.node[19].content_store 	p_hit[19] 	0.29451564116851
scalar tree_4_3_u06_r9_network.node[19].content_store 	hits[19] 	3700
scalar tree_4_3_u06_r9_network.node[19].content_store 	misses[19] 	8863
scalar tree_4_3_u06_r9_network.node[19].content_store 	decision_yes[19] 	123
scalar tree_4_3_u06_r9_network.node[19].content_store 	decision_no[19] 	8739
scalar tree_4_3_u06_r9_network.node[19].content_store 	decision_ratio[19] 	0.013879485443466
scalar tree_4_3_u06_r9_network.node[20].core_layer 	interests[20] 	12909
scalar tree_4_3_u06_r9_network.node[20].core_layer 	data[20] 	8855
scalar tree_4_3_u06_r9_network.node[20].content_store 	p_hit[20] 	0.31404446510187
scalar tree_4_3_u06_r9_network.node[20].content_store 	hits[20] 	4054
scalar tree_4_3_u06_r9_network.node[20].content_store 	misses[20] 	8855
scalar tree_4_3_u06_r9_network.node[20].content_store 	decision_yes[20] 	106
scalar tree_4_3_u06_r9_network.node[20].content_store 	decision_no[20] 	8749
scalar tree_4_3_u06_r9_network.node[20].content_store 	decision_ratio[20] 	0.011970638057595
scalar tree_4_3_u06_r9_network.node[21].core_layer 	interests[21] 	12236
scalar tree_4_3_u06_r9_network.node[21].core_layer 	data[21] 	8665
scalar tree_4_3_u06_r9_network.node[21].content_store 	p_hit[21] 	0.29184373978424
scalar tree_4_3_u06_r9_network.node[21].content_store 	hits[21] 	3571
scalar tree_4_3_u06_r9_network.node[21].content_store 	misses[21] 	8665
scalar tree_4_3_u06_r9_network.node[21].content_store 	decision_yes[21] 	122
scalar tree_4_3_u06_r9_network.node[21].content_store 	decision_no[21] 	8543
scalar tree_4_3_u06_r9_network.node[21].content_store 	decision_ratio[21] 	0.014079630698211
scalar tree_4_3_u06_r9_network.node[22].core_layer 	interests[22] 	12386
scalar tree_4_3_u06_r9_network.node[22].core_layer 	data[22] 	8805
scalar tree_4_3_u06_r9_network.node[22].content_store 	p_hit[22] 	0.28911674471177
scalar tree_4_3_u06_r9_network.node[22].content_store 	hits[22] 	3581
scalar tree_4_3_u06_r9_network.node[22].content_store 	misses[22] 	8805
scalar tree_4_3_u06_r9_network.node[22].content_store 	decision_yes[22] 	113
scalar tree_4_3_u06_r9_network.node[22].content_store 	decision_no[22] 	8692
scalar tree_4_3_u06_r9_network.node[22].content_store 	decision_ratio[22] 	0.012833617262919
scalar tree_4_3_u06_r9_network.node[23].core_layer 	interests[23] 	13190
scalar tree_4_3_u06_r9_network.node[23].core_layer 	data[23] 	8895
scalar tree_4_3_u06_r9_network.node[23].content_store 	p_hit[23] 	0.32554965883245
scalar tree_4_3_u06_r9_network.node[23].content_store 	hits[23] 	4294
scalar tree_4_3_u06_r9_network.node[23].content_store 	misses[23] 	8896
scalar tree_4_3_u06_r9_network.node[23].content_store 	decision_yes[23] 	132
scalar tree_4_3_u06_r9_network.node[23].content_store 	decision_no[23] 	8763
scalar tree_4_3_u06_r9_network.node[23].content_store 	decision_ratio[23] 	0.014839797639123
scalar tree_4_3_u06_r9_network.node[24].core_layer 	interests[24] 	12639
scalar tree_4_3_u06_r9_network.node[24].core_layer 	data[24] 	8766
scalar tree_4_3_u06_r9_network.node[24].content_store 	p_hit[24] 	0.30643247092333
scalar tree_4_3_u06_r9_network.node[24].content_store 	hits[24] 	3873
scalar tree_4_3_u06_r9_network.node[24].content_store 	misses[24] 	8766
scalar tree_4_3_u06_r9_network.node[24].content_store 	decision_yes[24] 	99
scalar tree_4_3_u06_r9_network.node[24].content_store 	decision_no[24] 	8667
scalar tree_4_3_u06_r9_network.node[24].content_store 	decision_ratio[24] 	0.01129363449692
scalar tree_4_3_u06_r9_network.node[25].core_layer 	interests[25] 	12693
scalar tree_4_3_u06_r9_network.node[25].core_layer 	data[25] 	8890
scalar tree_4_3_u06_r9_network.node[25].content_store 	p_hit[25] 	0.29961396045064
scalar tree_4_3_u06_r9_network.node[25].content_store 	hits[25] 	3803
scalar tree_4_3_u06_r9_network.node[25].content_store 	misses[25] 	8890
scalar tree_4_3_u06_r9_network.node[25].content_store 	decision_yes[25] 	119
scalar tree_4_3_u06_r9_network.node[25].content_store 	decision_no[25] 	8771
scalar tree_4_3_u06_r9_network.node[25].content_store 	decision_ratio[25] 	0.013385826771654
scalar tree_4_3_u06_r9_network.node[26].core_layer 	interests[26] 	12402
scalar tree_4_3_u06_r9_network.node[26].core_layer 	data[26] 	8818
scalar tree_4_3_u06_r9_network.node[26].content_store 	p_hit[26] 	0.28898564747621
scalar tree_4_3_u06_r9_network.node[26].content_store 	hits[26] 	3584
scalar tree_4_3_u06_r9_network.node[26].content_store 	misses[26] 	8818
scalar tree_4_3_u06_r9_network.node[26].content_store 	decision_yes[26] 	138
scalar tree_4_3_u06_r9_network.node[26].content_store 	decision_no[26] 	8680
scalar tree_4_3_u06_r9_network.node[26].content_store 	decision_ratio[26] 	0.01564980721252
scalar tree_4_3_u06_r9_network.node[27].core_layer 	interests[27] 	13260
scalar tree_4_3_u06_r9_network.node[27].core_layer 	data[27] 	8870
scalar tree_4_3_u06_r9_network.node[27].content_store 	p_hit[27] 	0.33107088989442
scalar tree_4_3_u06_r9_network.node[27].content_store 	hits[27] 	4390
scalar tree_4_3_u06_r9_network.node[27].content_store 	misses[27] 	8870
scalar tree_4_3_u06_r9_network.node[27].content_store 	decision_yes[27] 	117
scalar tree_4_3_u06_r9_network.node[27].content_store 	decision_no[27] 	8753
scalar tree_4_3_u06_r9_network.node[27].content_store 	decision_ratio[27] 	0.013190529875986
scalar tree_4_3_u06_r9_network.node[28].core_layer 	interests[28] 	12449
scalar tree_4_3_u06_r9_network.node[28].core_layer 	data[28] 	8808
scalar tree_4_3_u06_r9_network.node[28].content_store 	p_hit[28] 	0.29247329102739
scalar tree_4_3_u06_r9_network.node[28].content_store 	hits[28] 	3641
scalar tree_4_3_u06_r9_network.node[28].content_store 	misses[28] 	8808
scalar tree_4_3_u06_r9_network.node[28].content_store 	decision_yes[28] 	101
scalar tree_4_3_u06_r9_network.node[28].content_store 	decision_no[28] 	8707
scalar tree_4_3_u06_r9_network.node[28].content_store 	decision_ratio[28] 	0.011466848319709
scalar tree_4_3_u06_r9_network.node[29].core_layer 	interests[29] 	12604
scalar tree_4_3_u06_r9_network.node[29].core_layer 	data[29] 	8833
scalar tree_4_3_u06_r9_network.node[29].content_store 	p_hit[29] 	0.29911139320851
scalar tree_4_3_u06_r9_network.node[29].content_store 	hits[29] 	3770
scalar tree_4_3_u06_r9_network.node[29].content_store 	misses[29] 	8834
scalar tree_4_3_u06_r9_network.node[29].content_store 	decision_yes[29] 	101
scalar tree_4_3_u06_r9_network.node[29].content_store 	decision_no[29] 	8732
scalar tree_4_3_u06_r9_network.node[29].content_store 	decision_ratio[29] 	0.011434393750708
scalar tree_4_3_u06_r9_network.node[30].core_layer 	interests[30] 	12537
scalar tree_4_3_u06_r9_network.node[30].core_layer 	data[30] 	8820
scalar tree_4_3_u06_r9_network.node[30].content_store 	p_hit[30] 	0.29640264816144
scalar tree_4_3_u06_r9_network.node[30].content_store 	hits[30] 	3716
scalar tree_4_3_u06_r9_network.node[30].content_store 	misses[30] 	8821
scalar tree_4_3_u06_r9_network.node[30].content_store 	decision_yes[30] 	109
scalar tree_4_3_u06_r9_network.node[30].content_store 	decision_no[30] 	8711
scalar tree_4_3_u06_r9_network.node[30].content_store 	decision_ratio[30] 	0.012358276643991
scalar tree_4_3_u06_r9_network.node[31].core_layer 	interests[31] 	12453
scalar tree_4_3_u06_r9_network.node[31].core_layer 	data[31] 	8829
scalar tree_4_3_u06_r9_network.node[31].content_store 	p_hit[31] 	0.29101421344254
scalar tree_4_3_u06_r9_network.node[31].content_store 	hits[31] 	3624
scalar tree_4_3_u06_r9_network.node[31].content_store 	misses[31] 	8829
scalar tree_4_3_u06_r9_network.node[31].content_store 	decision_yes[31] 	121
scalar tree_4_3_u06_r9_network.node[31].content_store 	decision_no[31] 	8708
scalar tree_4_3_u06_r9_network.node[31].content_store 	decision_ratio[31] 	0.013704836334806
scalar tree_4_3_u06_r9_network.node[32].core_layer 	interests[32] 	13115
scalar tree_4_3_u06_r9_network.node[32].core_layer 	data[32] 	8965
scalar tree_4_3_u06_r9_network.node[32].content_store 	p_hit[32] 	0.31643156690812
scalar tree_4_3_u06_r9_network.node[32].content_store 	hits[32] 	4150
scalar tree_4_3_u06_r9_network.node[32].content_store 	misses[32] 	8965
scalar tree_4_3_u06_r9_network.node[32].content_store 	decision_yes[32] 	130
scalar tree_4_3_u06_r9_network.node[32].content_store 	decision_no[32] 	8835
scalar tree_4_3_u06_r9_network.node[32].content_store 	decision_ratio[32] 	0.014500836586726
scalar tree_4_3_u06_r9_network.node[33].core_layer 	interests[33] 	12832
scalar tree_4_3_u06_r9_network.node[33].core_layer 	data[33] 	8904
scalar tree_4_3_u06_r9_network.node[33].content_store 	p_hit[33] 	0.30610972568579
scalar tree_4_3_u06_r9_network.node[33].content_store 	hits[33] 	3928
scalar tree_4_3_u06_r9_network.node[33].content_store 	misses[33] 	8904
scalar tree_4_3_u06_r9_network.node[33].content_store 	decision_yes[33] 	99
scalar tree_4_3_u06_r9_network.node[33].content_store 	decision_no[33] 	8805
scalar tree_4_3_u06_r9_network.node[33].content_store 	decision_ratio[33] 	0.011118598382749
scalar tree_4_3_u06_r9_network.node[34].core_layer 	interests[34] 	12981
scalar tree_4_3_u06_r9_network.node[34].core_layer 	data[34] 	8738
scalar tree_4_3_u06_r9_network.node[34].content_store 	p_hit[34] 	0.32686233726215
scalar tree_4_3_u06_r9_network.node[34].content_store 	hits[34] 	4243
scalar tree_4_3_u06_r9_network.node[34].content_store 	misses[34] 	8738
scalar tree_4_3_u06_r9_network.node[34].content_store 	decision_yes[34] 	118
scalar tree_4_3_u06_r9_network.node[34].content_store 	decision_no[34] 	8620
scalar tree_4_3_u06_r9_network.node[34].content_store 	decision_ratio[34] 	0.013504234378576
scalar tree_4_3_u06_r9_network.node[35].core_layer 	interests[35] 	12290
scalar tree_4_3_u06_r9_network.node[35].core_layer 	data[35] 	8612
scalar tree_4_3_u06_r9_network.node[35].content_store 	p_hit[35] 	0.29926769731489
scalar tree_4_3_u06_r9_network.node[35].content_store 	hits[35] 	3678
scalar tree_4_3_u06_r9_network.node[35].content_store 	misses[35] 	8612
scalar tree_4_3_u06_r9_network.node[35].content_store 	decision_yes[35] 	110
scalar tree_4_3_u06_r9_network.node[35].content_store 	decision_no[35] 	8502
scalar tree_4_3_u06_r9_network.node[35].content_store 	decision_ratio[35] 	0.012772875058059
scalar tree_4_3_u06_r9_network.node[36].core_layer 	interests[36] 	12340
scalar tree_4_3_u06_r9_network.node[36].core_layer 	data[36] 	8664
scalar tree_4_3_u06_r9_network.node[36].content_store 	p_hit[36] 	0.29789303079417
scalar tree_4_3_u06_r9_network.node[36].content_store 	hits[36] 	3676
scalar tree_4_3_u06_r9_network.node[36].content_store 	misses[36] 	8664
scalar tree_4_3_u06_r9_network.node[36].content_store 	decision_yes[36] 	115
scalar tree_4_3_u06_r9_network.node[36].content_store 	decision_no[36] 	8549
scalar tree_4_3_u06_r9_network.node[36].content_store 	decision_ratio[36] 	0.013273314866113
scalar tree_4_3_u06_r9_network.node[37].core_layer 	interests[37] 	12819
scalar tree_4_3_u06_r9_network.node[37].core_layer 	data[37] 	8793
scalar tree_4_3_u06_r9_network.node[37].content_store 	p_hit[37] 	0.31406505967704
scalar tree_4_3_u06_r9_network.node[37].content_store 	hits[37] 	4026
scalar tree_4_3_u06_r9_network.node[37].content_store 	misses[37] 	8793
scalar tree_4_3_u06_r9_network.node[37].content_store 	decision_yes[37] 	100
scalar tree_4_3_u06_r9_network.node[37].content_store 	decision_no[37] 	8693
scalar tree_4_3_u06_r9_network.node[37].content_store 	decision_ratio[37] 	0.011372682815876
scalar tree_4_3_u06_r9_network.node[38].core_layer 	interests[38] 	12813
scalar tree_4_3_u06_r9_network.node[38].core_layer 	data[38] 	8762
scalar tree_4_3_u06_r9_network.node[38].content_store 	p_hit[38] 	0.3161632716772
scalar tree_4_3_u06_r9_network.node[38].content_store 	hits[38] 	4051
scalar tree_4_3_u06_r9_network.node[38].content_store 	misses[38] 	8762
scalar tree_4_3_u06_r9_network.node[38].content_store 	decision_yes[38] 	98
scalar tree_4_3_u06_r9_network.node[38].content_store 	decision_no[38] 	8664
scalar tree_4_3_u06_r9_network.node[38].content_store 	decision_ratio[38] 	0.011184661036293
scalar tree_4_3_u06_r9_network.node[39].core_layer 	interests[39] 	12123
scalar tree_4_3_u06_r9_network.node[39].core_layer 	data[39] 	8659
scalar tree_4_3_u06_r9_network.node[39].content_store 	p_hit[39] 	0.28573785366658
scalar tree_4_3_u06_r9_network.node[39].content_store 	hits[39] 	3464
scalar tree_4_3_u06_r9_network.node[39].content_store 	misses[39] 	8659
scalar tree_4_3_u06_r9_network.node[39].content_store 	decision_yes[39] 	110
scalar tree_4_3_u06_r9_network.node[39].content_store 	decision_no[39] 	8549
scalar tree_4_3_u06_r9_network.node[39].content_store 	decision_ratio[39] 	0.012703545444047
scalar tree_4_3_u06_r9_network.client[13] 	hdistance[13] 	2.6539672022528
scalar tree_4_3_u06_r9_network.client[13] 	downloads[13] 	12074
scalar tree_4_3_u06_r9_network.client[13] 	avg_time[13] 	0.004144439582
scalar tree_4_3_u06_r9_network.client[14] 	hdistance[14] 	2.6931136459653
scalar tree_4_3_u06_r9_network.client[14] 	downloads[14] 	11835
scalar tree_4_3_u06_r9_network.client[14] 	avg_time[14] 	0.004202954356
scalar tree_4_3_u06_r9_network.client[15] 	hdistance[15] 	2.6035828745172
scalar tree_4_3_u06_r9_network.client[15] 	downloads[15] 	12169
scalar tree_4_3_u06_r9_network.client[15] 	avg_time[15] 	0.004047743325
scalar tree_4_3_u06_r9_network.client[16] 	hdistance[16] 	2.5863372825813
scalar tree_4_3_u06_r9_network.client[16] 	downloads[16] 	11901
scalar tree_4_3_u06_r9_network.client[16] 	avg_time[16] 	0.004059823961
scalar tree_4_3_u06_r9_network.client[17] 	hdistance[17] 	2.658077640278
scalar tree_4_3_u06_r9_network.client[17] 	downloads[17] 	11798
scalar tree_4_3_u06_r9_network.client[17] 	avg_time[17] 	0.004202234696
scalar tree_4_3_u06_r9_network.client[18] 	hdistance[18] 	2.5971126405909
scalar tree_4_3_u06_r9_network.client[18] 	downloads[18] 	11914
scalar tree_4_3_u06_r9_network.client[18] 	avg_time[18] 	0.004080070881
scalar tree_4_3_u06_r9_network.client[19] 	hdistance[19] 	2.635414096554
scalar tree_4_3_u06_r9_network.client[19] 	downloads[19] 	12159
scalar tree_4_3_u06_r9_network.client[19] 	avg_time[19] 	0.004111848268
scalar tree_4_3_u06_r9_network.client[20] 	hdistance[20] 	2.5899874843554
scalar tree_4_3_u06_r9_network.client[20] 	downloads[20] 	11985
scalar tree_4_3_u06_r9_network.client[20] 	avg_time[20] 	0.0040567346
scalar tree_4_3_u06_r9_network.client[21] 	hdistance[21] 	2.6603885636718
scalar tree_4_3_u06_r9_network.client[21] 	downloads[21] 	11787
scalar tree_4_3_u06_r9_network.client[21] 	avg_time[21] 	0.004148966293
scalar tree_4_3_u06_r9_network.client[22] 	hdistance[22] 	2.6761416197124
scalar tree_4_3_u06_r9_network.client[22] 	downloads[22] 	11891
scalar tree_4_3_u06_r9_network.client[22] 	avg_time[22] 	0.004228874471
scalar tree_4_3_u06_r9_network.client[23] 	hdistance[23] 	2.5780346820809
scalar tree_4_3_u06_r9_network.client[23] 	downloads[23] 	12110
scalar tree_4_3_u06_r9_network.client[23] 	avg_time[23] 	0.004053041066
scalar tree_4_3_u06_r9_network.client[24] 	hdistance[24] 	2.6226181638208
scalar tree_4_3_u06_r9_network.client[24] 	downloads[24] 	12123
scalar tree_4_3_u06_r9_network.client[24] 	avg_time[24] 	0.004136431821
scalar tree_4_3_u06_r9_network.client[25] 	hdistance[25] 	2.6515859355791
scalar tree_4_3_u06_r9_network.client[25] 	downloads[25] 	12201
scalar tree_4_3_u06_r9_network.client[25] 	avg_time[25] 	0.004159492066
scalar tree_4_3_u06_r9_network.client[26] 	hdistance[26] 	2.6818638954073
scalar tree_4_3_u06_r9_network.client[26] 	downloads[26] 	11932
scalar tree_4_3_u06_r9_network.client[26] 	avg_time[26] 	0.004217395621
scalar tree_4_3_u06_r9_network.client[27] 	hdistance[27] 	2.5814879323215
scalar tree_4_3_u06_r9_network.client[27] 	downloads[27] 	12057
scalar tree_4_3_u06_r9_network.client[27] 	avg_time[27] 	0.004046277133
scalar tree_4_3_u06_r9_network.client[28] 	hdistance[28] 	2.6624391063329
scalar tree_4_3_u06_r9_network.client[28] 	downloads[28] 	11906
scalar tree_4_3_u06_r9_network.client[28] 	avg_time[28] 	0.004189985231
scalar tree_4_3_u06_r9_network.client[29] 	hdistance[29] 	2.6388288138413
scalar tree_4_3_u06_r9_network.client[29] 	downloads[29] 	12022
scalar tree_4_3_u06_r9_network.client[29] 	avg_time[29] 	0.004148284873
scalar tree_4_3_u06_r9_network.client[30] 	hdistance[30] 	2.6657157241148
scalar tree_4_3_u06_r9_network.client[30] 	downloads[30] 	11918
scalar tree_4_3_u06_r9_network.client[30] 	avg_time[30] 	0.004197345569
scalar tree_4_3_u06_r9_network.client[31] 	hdistance[31] 	2.6561284449226
scalar tree_4_3_u06_r9_network.client[31] 	downloads[31] 	12083
scalar tree_4_3_u06_r9_network.client[31] 	avg_time[31] 	0.004142014648
scalar tree_4_3_u06_r9_network.client[32] 	hdistance[32] 	2.5708774521875
scalar tree_4_3_u06_r9_network.client[32] 	downloads[32] 	12183
scalar tree_4_3_u06_r9_network.client[32] 	avg_time[32] 	0.00403479951
scalar tree_4_3_u06_r9_network.client[33] 	hdistance[33] 	2.6031080414405
scalar tree_4_3_u06_r9_network.client[33] 	downloads[33] 	12162
scalar tree_4_3_u06_r9_network.client[33] 	avg_time[33] 	0.004042588631
scalar tree_4_3_u06_r9_network.client[34] 	hdistance[34] 	2.5496240601504
scalar tree_4_3_u06_r9_network.client[34] 	downloads[34] 	11970
scalar tree_4_3_u06_r9_network.client[34] 	avg_time[34] 	0.004002001994
scalar tree_4_3_u06_r9_network.client[35] 	hdistance[35] 	2.6529633436108
scalar tree_4_3_u06_r9_network.client[35] 	downloads[35] 	11676
scalar tree_4_3_u06_r9_network.client[35] 	avg_time[35] 	0.0041757422
scalar tree_4_3_u06_r9_network.client[36] 	hdistance[36] 	2.6277693218332
scalar tree_4_3_u06_r9_network.client[36] 	downloads[36] 	11826
scalar tree_4_3_u06_r9_network.client[36] 	avg_time[36] 	0.004140475689
scalar tree_4_3_u06_r9_network.client[37] 	hdistance[37] 	2.5786554065243
scalar tree_4_3_u06_r9_network.client[37] 	downloads[37] 	12078
scalar tree_4_3_u06_r9_network.client[37] 	avg_time[37] 	0.00400446793
scalar tree_4_3_u06_r9_network.client[38] 	hdistance[38] 	2.591706539075
scalar tree_4_3_u06_r9_network.client[38] 	downloads[38] 	11913
scalar tree_4_3_u06_r9_network.client[38] 	avg_time[38] 	0.00405741328
scalar tree_4_3_u06_r9_network.client[39] 	hdistance[39] 	2.6450483494498
scalar tree_4_3_u06_r9_network.client[39] 	downloads[39] 	11996
scalar tree_4_3_u06_r9_network.client[39] 	avg_time[39] 	0.004124538522
