version 2
run General-408-20160901-08:03:23-8710
attr a 0.9
attr cd ffc
attr configname General
attr cr lru
attr datetime 20160901-08:03:23
attr experiment General
attr fsize 1
attr inifile hw5115/scenario_Y/omnetp.ini
attr iterationvars "$name=tree_4_3, $un=06, $rep=17, $cd=ffc, $cr=lru, $fsize=1, $a=0.9, $sl=nrr, $ttl=1000, $variance=0.05"
attr iterationvars2 "$name=tree_4_3, $un=06, $rep=17, $cd=ffc, $cr=lru, $fsize=1, $a=0.9, $sl=nrr, $ttl=1000, $variance=0.05, $repetition=0"
attr measurement "$name=tree_4_3, $un=06, $rep=17, $cd=ffc, $cr=lru, $fsize=1, $a=0.9, $sl=nrr, $ttl=1000, $variance=0.05"
attr name tree_4_3
attr network networks.${name}_u${un}_r${rep}_network
attr processid 8710
attr rep 17
attr repetition 0
attr replication #0
attr resultdir results
attr runnumber 408
attr seedset 17
attr sl nrr
attr ttl 1000
attr un 06
attr variance 0.05

scalar . 	a 	0.9
scalar . 	fsize 	1
scalar . 	rep 	17
scalar . 	ttl 	1000
scalar . 	un 	06
scalar . 	variance 	0.05
scalar tree_4_3_u06_r17_network.content_distribution 	repo-0 	0
scalar tree_4_3_u06_r17_network.content_distribution 	client-0 	13
scalar tree_4_3_u06_r17_network.content_distribution 	client-1 	14
scalar tree_4_3_u06_r17_network.content_distribution 	client-2 	15
scalar tree_4_3_u06_r17_network.content_distribution 	client-3 	16
scalar tree_4_3_u06_r17_network.content_distribution 	client-4 	17
scalar tree_4_3_u06_r17_network.content_distribution 	client-5 	18
scalar tree_4_3_u06_r17_network.content_distribution 	client-6 	19
scalar tree_4_3_u06_r17_network.content_distribution 	client-7 	20
scalar tree_4_3_u06_r17_network.content_distribution 	client-8 	21
scalar tree_4_3_u06_r17_network.content_distribution 	client-9 	22
scalar tree_4_3_u06_r17_network.content_distribution 	client-10 	23
scalar tree_4_3_u06_r17_network.content_distribution 	client-11 	24
scalar tree_4_3_u06_r17_network.content_distribution 	client-12 	25
scalar tree_4_3_u06_r17_network.content_distribution 	client-13 	26
scalar tree_4_3_u06_r17_network.content_distribution 	client-14 	27
scalar tree_4_3_u06_r17_network.content_distribution 	client-15 	28
scalar tree_4_3_u06_r17_network.content_distribution 	client-16 	29
scalar tree_4_3_u06_r17_network.content_distribution 	client-17 	30
scalar tree_4_3_u06_r17_network.content_distribution 	client-18 	31
scalar tree_4_3_u06_r17_network.content_distribution 	client-19 	32
scalar tree_4_3_u06_r17_network.content_distribution 	client-20 	33
scalar tree_4_3_u06_r17_network.content_distribution 	client-21 	34
scalar tree_4_3_u06_r17_network.content_distribution 	client-22 	35
scalar tree_4_3_u06_r17_network.content_distribution 	client-23 	36
scalar tree_4_3_u06_r17_network.content_distribution 	client-24 	37
scalar tree_4_3_u06_r17_network.content_distribution 	client-25 	38
scalar tree_4_3_u06_r17_network.content_distribution 	client-26 	39
scalar tree_4_3_u06_r17_network.content_distribution 	repo-0_card 	100000
scalar tree_4_3_u06_r17_network.content_distribution 	repo-0_price 	0
scalar tree_4_3_u06_r17_network.statistics 	stabilization_time 	1089.6
scalar tree_4_3_u06_r17_network.statistics 	p_hit 	0.23775948303368
scalar tree_4_3_u06_r17_network.statistics 	interests 	24814.7
scalar tree_4_3_u06_r17_network.statistics 	data 	16694.675
scalar tree_4_3_u06_r17_network.statistics 	hdistance 	2.6272781402613
scalar tree_4_3_u06_r17_network.statistics 	avg_time 	0.004111900383
scalar tree_4_3_u06_r17_network.statistics 	downloads 	324795
scalar tree_4_3_u06_r17_network.statistics 	total_cost 	0
scalar tree_4_3_u06_r17_network.statistics 	total_replicas 	100000
scalar tree_4_3_u06_r17_network.statistics 	inner_hit 	0.42869194414939
scalar tree_4_3_u06_r17_network.node[0].core_layer 	interests[0] 	187940
scalar tree_4_3_u06_r17_network.node[0].core_layer 	repo_load[0] 	185558
scalar tree_4_3_u06_r17_network.node[0].core_layer 	data[0] 	0
scalar tree_4_3_u06_r17_network.node[0].core_layer 	repo_int[0] 	185558
scalar tree_4_3_u06_r17_network.node[0].content_store 	p_hit[0] 	0.012674257741832
scalar tree_4_3_u06_r17_network.node[0].content_store 	hits[0] 	2382
scalar tree_4_3_u06_r17_network.node[0].content_store 	misses[0] 	185558
scalar tree_4_3_u06_r17_network.node[0].content_store 	decision_yes[0] 	804
scalar tree_4_3_u06_r17_network.node[0].content_store 	decision_no[0] 	184754
scalar tree_4_3_u06_r17_network.node[0].content_store 	decision_ratio[0] 	0.0043328770519191
scalar tree_4_3_u06_r17_network.node[1].core_layer 	interests[1] 	90145
scalar tree_4_3_u06_r17_network.node[1].core_layer 	data[1] 	88143
scalar tree_4_3_u06_r17_network.node[1].content_store 	p_hit[1] 	0.022197570580731
scalar tree_4_3_u06_r17_network.node[1].content_store 	hits[1] 	2001
scalar tree_4_3_u06_r17_network.node[1].content_store 	misses[1] 	88144
scalar tree_4_3_u06_r17_network.node[1].content_store 	decision_yes[1] 	450
scalar tree_4_3_u06_r17_network.node[1].content_store 	decision_no[1] 	87693
scalar tree_4_3_u06_r17_network.node[1].content_store 	decision_ratio[1] 	0.0051053401858344
scalar tree_4_3_u06_r17_network.node[2].core_layer 	interests[2] 	97267
scalar tree_4_3_u06_r17_network.node[2].core_layer 	data[2] 	95164
scalar tree_4_3_u06_r17_network.node[2].content_store 	p_hit[2] 	0.021610618195277
scalar tree_4_3_u06_r17_network.node[2].content_store 	hits[2] 	2102
scalar tree_4_3_u06_r17_network.node[2].content_store 	misses[2] 	95165
scalar tree_4_3_u06_r17_network.node[2].content_store 	decision_yes[2] 	531
scalar tree_4_3_u06_r17_network.node[2].content_store 	decision_no[2] 	94633
scalar tree_4_3_u06_r17_network.node[2].content_store 	decision_ratio[2] 	0.0055798411163886
scalar tree_4_3_u06_r17_network.node[3].core_layer 	interests[3] 	22267
scalar tree_4_3_u06_r17_network.node[3].core_layer 	data[3] 	18928
scalar tree_4_3_u06_r17_network.node[3].content_store 	p_hit[3] 	0.14995284501729
scalar tree_4_3_u06_r17_network.node[3].content_store 	hits[3] 	3339
scalar tree_4_3_u06_r17_network.node[3].content_store 	misses[3] 	18928
scalar tree_4_3_u06_r17_network.node[3].content_store 	decision_yes[3] 	366
scalar tree_4_3_u06_r17_network.node[3].content_store 	decision_no[3] 	18562
scalar tree_4_3_u06_r17_network.node[3].content_store 	decision_ratio[3] 	0.019336432797971
scalar tree_4_3_u06_r17_network.node[4].core_layer 	interests[4] 	43073
scalar tree_4_3_u06_r17_network.node[4].core_layer 	data[4] 	40522
scalar tree_4_3_u06_r17_network.node[4].content_store 	p_hit[4] 	0.059201820165765
scalar tree_4_3_u06_r17_network.node[4].content_store 	hits[4] 	2550
scalar tree_4_3_u06_r17_network.node[4].content_store 	misses[4] 	40523
scalar tree_4_3_u06_r17_network.node[4].content_store 	decision_yes[4] 	341
scalar tree_4_3_u06_r17_network.node[4].content_store 	decision_no[4] 	40181
scalar tree_4_3_u06_r17_network.node[4].content_store 	decision_ratio[4] 	0.0084151818765115
scalar tree_4_3_u06_r17_network.node[5].core_layer 	interests[5] 	27691
scalar tree_4_3_u06_r17_network.node[5].core_layer 	data[5] 	24897
scalar tree_4_3_u06_r17_network.node[5].content_store 	p_hit[5] 	0.10086309631288
scalar tree_4_3_u06_r17_network.node[5].content_store 	hits[5] 	2793
scalar tree_4_3_u06_r17_network.node[5].content_store 	misses[5] 	24898
scalar tree_4_3_u06_r17_network.node[5].content_store 	decision_yes[5] 	228
scalar tree_4_3_u06_r17_network.node[5].content_store 	decision_no[5] 	24669
scalar tree_4_3_u06_r17_network.node[5].content_store 	decision_ratio[5] 	0.0091577298469695
scalar tree_4_3_u06_r17_network.node[6].core_layer 	interests[6] 	12919
scalar tree_4_3_u06_r17_network.node[6].core_layer 	data[6] 	9970
scalar tree_4_3_u06_r17_network.node[6].content_store 	p_hit[6] 	0.22826844182986
scalar tree_4_3_u06_r17_network.node[6].content_store 	hits[6] 	2949
scalar tree_4_3_u06_r17_network.node[6].content_store 	misses[6] 	9970
scalar tree_4_3_u06_r17_network.node[6].content_store 	decision_yes[6] 	194
scalar tree_4_3_u06_r17_network.node[6].content_store 	decision_no[6] 	9776
scalar tree_4_3_u06_r17_network.node[6].content_store 	decision_ratio[6] 	0.019458375125376
scalar tree_4_3_u06_r17_network.node[7].core_layer 	interests[7] 	43272
scalar tree_4_3_u06_r17_network.node[7].core_layer 	data[7] 	40668
scalar tree_4_3_u06_r17_network.node[7].content_store 	p_hit[7] 	0.060177481974487
scalar tree_4_3_u06_r17_network.node[7].content_store 	hits[7] 	2604
scalar tree_4_3_u06_r17_network.node[7].content_store 	misses[7] 	40668
scalar tree_4_3_u06_r17_network.node[7].content_store 	decision_yes[7] 	351
scalar tree_4_3_u06_r17_network.node[7].content_store 	decision_no[7] 	40317
scalar tree_4_3_u06_r17_network.node[7].content_store 	decision_ratio[7] 	0.0086308645618176
scalar tree_4_3_u06_r17_network.node[8].core_layer 	interests[8] 	27044
scalar tree_4_3_u06_r17_network.node[8].core_layer 	data[8] 	24786
scalar tree_4_3_u06_r17_network.node[8].content_store 	p_hit[8] 	0.083456589261944
scalar tree_4_3_u06_r17_network.node[8].content_store 	hits[8] 	2257
scalar tree_4_3_u06_r17_network.node[8].content_store 	misses[8] 	24787
scalar tree_4_3_u06_r17_network.node[8].content_store 	decision_yes[8] 	255
scalar tree_4_3_u06_r17_network.node[8].content_store 	decision_no[8] 	24531
scalar tree_4_3_u06_r17_network.node[8].content_store 	decision_ratio[8] 	0.010288065843621
scalar tree_4_3_u06_r17_network.node[9].core_layer 	interests[9] 	13774
scalar tree_4_3_u06_r17_network.node[9].core_layer 	data[9] 	10541
scalar tree_4_3_u06_r17_network.node[9].content_store 	p_hit[9] 	0.2347901844054
scalar tree_4_3_u06_r17_network.node[9].content_store 	hits[9] 	3234
scalar tree_4_3_u06_r17_network.node[9].content_store 	misses[9] 	10540
scalar tree_4_3_u06_r17_network.node[9].content_store 	decision_yes[9] 	252
scalar tree_4_3_u06_r17_network.node[9].content_store 	decision_no[9] 	10289
scalar tree_4_3_u06_r17_network.node[9].content_store 	decision_ratio[9] 	0.023906650222939
scalar tree_4_3_u06_r17_network.node[10].core_layer 	interests[10] 	27883
scalar tree_4_3_u06_r17_network.node[10].core_layer 	data[10] 	25062
scalar tree_4_3_u06_r17_network.node[10].content_store 	p_hit[10] 	0.10117275759423
scalar tree_4_3_u06_r17_network.node[10].content_store 	hits[10] 	2821
scalar tree_4_3_u06_r17_network.node[10].content_store 	misses[10] 	25062
scalar tree_4_3_u06_r17_network.node[10].content_store 	decision_yes[10] 	241
scalar tree_4_3_u06_r17_network.node[10].content_store 	decision_no[10] 	24821
scalar tree_4_3_u06_r17_network.node[10].content_store 	decision_ratio[10] 	0.0096161519431809
scalar tree_4_3_u06_r17_network.node[11].core_layer 	interests[11] 	37293
scalar tree_4_3_u06_r17_network.node[11].core_layer 	data[11] 	33847
scalar tree_4_3_u06_r17_network.node[11].content_store 	p_hit[11] 	0.092376585418175
scalar tree_4_3_u06_r17_network.node[11].content_store 	hits[11] 	3445
scalar tree_4_3_u06_r17_network.node[11].content_store 	misses[11] 	33848
scalar tree_4_3_u06_r17_network.node[11].content_store 	decision_yes[11] 	383
scalar tree_4_3_u06_r17_network.node[11].content_store 	decision_no[11] 	33464
scalar tree_4_3_u06_r17_network.node[11].content_store 	decision_ratio[11] 	0.011315626200254
scalar tree_4_3_u06_r17_network.node[12].core_layer 	interests[12] 	19482
scalar tree_4_3_u06_r17_network.node[12].core_layer 	data[12] 	17124
scalar tree_4_3_u06_r17_network.node[12].content_store 	p_hit[12] 	0.1209834719228
scalar tree_4_3_u06_r17_network.node[12].content_store 	hits[12] 	2357
scalar tree_4_3_u06_r17_network.node[12].content_store 	misses[12] 	17125
scalar tree_4_3_u06_r17_network.node[12].content_store 	decision_yes[12] 	198
scalar tree_4_3_u06_r17_network.node[12].content_store 	decision_no[12] 	16925
scalar tree_4_3_u06_r17_network.node[12].content_store 	decision_ratio[12] 	0.011563394265024
scalar tree_4_3_u06_r17_network.node[13].core_layer 	interests[13] 	12660
scalar tree_4_3_u06_r17_network.node[13].core_layer 	data[13] 	8846
scalar tree_4_3_u06_r17_network.node[13].content_store 	p_hit[13] 	0.30126382306477
scalar tree_4_3_u06_r17_network.node[13].content_store 	hits[13] 	3814
scalar tree_4_3_u06_r17_network.node[13].content_store 	misses[13] 	8846
scalar tree_4_3_u06_r17_network.node[13].content_store 	decision_yes[13] 	98
scalar tree_4_3_u06_r17_network.node[13].content_store 	decision_no[13] 	8748
scalar tree_4_3_u06_r17_network.node[13].content_store 	decision_ratio[13] 	0.011078453538322
scalar tree_4_3_u06_r17_network.node[14].core_layer 	interests[14] 	13131
scalar tree_4_3_u06_r17_network.node[14].core_layer 	data[14] 	8942
scalar tree_4_3_u06_r17_network.node[14].content_store 	p_hit[14] 	0.31901606884472
scalar tree_4_3_u06_r17_network.node[14].content_store 	hits[14] 	4189
scalar tree_4_3_u06_r17_network.node[14].content_store 	misses[14] 	8942
scalar tree_4_3_u06_r17_network.node[14].content_store 	decision_yes[14] 	125
scalar tree_4_3_u06_r17_network.node[14].content_store 	decision_no[14] 	8817
scalar tree_4_3_u06_r17_network.node[14].content_store 	decision_ratio[14] 	0.013978975620667
scalar tree_4_3_u06_r17_network.node[15].core_layer 	interests[15] 	12575
scalar tree_4_3_u06_r17_network.node[15].core_layer 	data[15] 	8885
scalar tree_4_3_u06_r17_network.node[15].content_store 	p_hit[15] 	0.2934393638171
scalar tree_4_3_u06_r17_network.node[15].content_store 	hits[15] 	3690
scalar tree_4_3_u06_r17_network.node[15].content_store 	misses[15] 	8885
scalar tree_4_3_u06_r17_network.node[15].content_store 	decision_yes[15] 	122
scalar tree_4_3_u06_r17_network.node[15].content_store 	decision_no[15] 	8763
scalar tree_4_3_u06_r17_network.node[15].content_store 	decision_ratio[15] 	0.013731007315701
scalar tree_4_3_u06_r17_network.node[16].core_layer 	interests[16] 	12873
scalar tree_4_3_u06_r17_network.node[16].core_layer 	data[16] 	8746
scalar tree_4_3_u06_r17_network.node[16].content_store 	p_hit[16] 	0.32059349025091
scalar tree_4_3_u06_r17_network.node[16].content_store 	hits[16] 	4127
scalar tree_4_3_u06_r17_network.node[16].content_store 	misses[16] 	8746
scalar tree_4_3_u06_r17_network.node[16].content_store 	decision_yes[16] 	103
scalar tree_4_3_u06_r17_network.node[16].content_store 	decision_no[16] 	8643
scalar tree_4_3_u06_r17_network.node[16].content_store 	decision_ratio[16] 	0.011776812257032
scalar tree_4_3_u06_r17_network.node[17].core_layer 	interests[17] 	12400
scalar tree_4_3_u06_r17_network.node[17].core_layer 	data[17] 	8723
scalar tree_4_3_u06_r17_network.node[17].content_store 	p_hit[17] 	0.29645161290323
scalar tree_4_3_u06_r17_network.node[17].content_store 	hits[17] 	3676
scalar tree_4_3_u06_r17_network.node[17].content_store 	misses[17] 	8724
scalar tree_4_3_u06_r17_network.node[17].content_store 	decision_yes[17] 	82
scalar tree_4_3_u06_r17_network.node[17].content_store 	decision_no[17] 	8641
scalar tree_4_3_u06_r17_network.node[17].content_store 	decision_ratio[17] 	0.0094004356299438
scalar tree_4_3_u06_r17_network.node[18].core_layer 	interests[18] 	12456
scalar tree_4_3_u06_r17_network.node[18].core_layer 	data[18] 	8680
scalar tree_4_3_u06_r17_network.node[18].content_store 	p_hit[18] 	0.30314707771355
scalar tree_4_3_u06_r17_network.node[18].content_store 	hits[18] 	3776
scalar tree_4_3_u06_r17_network.node[18].content_store 	misses[18] 	8680
scalar tree_4_3_u06_r17_network.node[18].content_store 	decision_yes[18] 	106
scalar tree_4_3_u06_r17_network.node[18].content_store 	decision_no[18] 	8574
scalar tree_4_3_u06_r17_network.node[18].content_store 	decision_ratio[18] 	0.01221198156682
scalar tree_4_3_u06_r17_network.node[19].core_layer 	interests[19] 	12834
scalar tree_4_3_u06_r17_network.node[19].core_layer 	data[19] 	8831
scalar tree_4_3_u06_r17_network.node[19].content_store 	p_hit[19] 	0.31190587501948
scalar tree_4_3_u06_r17_network.node[19].content_store 	hits[19] 	4003
scalar tree_4_3_u06_r17_network.node[19].content_store 	misses[19] 	8831
scalar tree_4_3_u06_r17_network.node[19].content_store 	decision_yes[19] 	131
scalar tree_4_3_u06_r17_network.node[19].content_store 	decision_no[19] 	8700
scalar tree_4_3_u06_r17_network.node[19].content_store 	decision_ratio[19] 	0.014834107122636
scalar tree_4_3_u06_r17_network.node[20].core_layer 	interests[20] 	13024
scalar tree_4_3_u06_r17_network.node[20].core_layer 	data[20] 	8989
scalar tree_4_3_u06_r17_network.node[20].content_store 	p_hit[20] 	0.30973587223587
scalar tree_4_3_u06_r17_network.node[20].content_store 	hits[20] 	4034
scalar tree_4_3_u06_r17_network.node[20].content_store 	misses[20] 	8990
scalar tree_4_3_u06_r17_network.node[20].content_store 	decision_yes[20] 	110
scalar tree_4_3_u06_r17_network.node[20].content_store 	decision_no[20] 	8879
scalar tree_4_3_u06_r17_network.node[20].content_store 	decision_ratio[20] 	0.012237178774057
scalar tree_4_3_u06_r17_network.node[21].core_layer 	interests[21] 	12347
scalar tree_4_3_u06_r17_network.node[21].core_layer 	data[21] 	8836
scalar tree_4_3_u06_r17_network.node[21].content_store 	p_hit[21] 	0.28436057341864
scalar tree_4_3_u06_r17_network.node[21].content_store 	hits[21] 	3511
scalar tree_4_3_u06_r17_network.node[21].content_store 	misses[21] 	8836
scalar tree_4_3_u06_r17_network.node[21].content_store 	decision_yes[21] 	110
scalar tree_4_3_u06_r17_network.node[21].content_store 	decision_no[21] 	8726
scalar tree_4_3_u06_r17_network.node[21].content_store 	decision_ratio[21] 	0.012449071978271
scalar tree_4_3_u06_r17_network.node[22].core_layer 	interests[22] 	12788
scalar tree_4_3_u06_r17_network.node[22].core_layer 	data[22] 	9023
scalar tree_4_3_u06_r17_network.node[22].content_store 	p_hit[22] 	0.29441664060056
scalar tree_4_3_u06_r17_network.node[22].content_store 	hits[22] 	3765
scalar tree_4_3_u06_r17_network.node[22].content_store 	misses[22] 	9023
scalar tree_4_3_u06_r17_network.node[22].content_store 	decision_yes[22] 	121
scalar tree_4_3_u06_r17_network.node[22].content_store 	decision_no[22] 	8902
scalar tree_4_3_u06_r17_network.node[22].content_store 	decision_ratio[22] 	0.013410173999778
scalar tree_4_3_u06_r17_network.node[23].core_layer 	interests[23] 	12631
scalar tree_4_3_u06_r17_network.node[23].core_layer 	data[23] 	8883
scalar tree_4_3_u06_r17_network.node[23].content_store 	p_hit[23] 	0.2967302668039
scalar tree_4_3_u06_r17_network.node[23].content_store 	hits[23] 	3748
scalar tree_4_3_u06_r17_network.node[23].content_store 	misses[23] 	8883
scalar tree_4_3_u06_r17_network.node[23].content_store 	decision_yes[23] 	126
scalar tree_4_3_u06_r17_network.node[23].content_store 	decision_no[23] 	8757
scalar tree_4_3_u06_r17_network.node[23].content_store 	decision_ratio[23] 	0.014184397163121
scalar tree_4_3_u06_r17_network.node[24].core_layer 	interests[24] 	12934
scalar tree_4_3_u06_r17_network.node[24].core_layer 	data[24] 	8918
scalar tree_4_3_u06_r17_network.node[24].content_store 	p_hit[24] 	0.31049945879078
scalar tree_4_3_u06_r17_network.node[24].content_store 	hits[24] 	4016
scalar tree_4_3_u06_r17_network.node[24].content_store 	misses[24] 	8918
scalar tree_4_3_u06_r17_network.node[24].content_store 	decision_yes[24] 	121
scalar tree_4_3_u06_r17_network.node[24].content_store 	decision_no[24] 	8797
scalar tree_4_3_u06_r17_network.node[24].content_store 	decision_ratio[24] 	0.013568064588473
scalar tree_4_3_u06_r17_network.node[25].core_layer 	interests[25] 	13023
scalar tree_4_3_u06_r17_network.node[25].core_layer 	data[25] 	8806
scalar tree_4_3_u06_r17_network.node[25].content_store 	p_hit[25] 	0.32381171773017
scalar tree_4_3_u06_r17_network.node[25].content_store 	hits[25] 	4217
scalar tree_4_3_u06_r17_network.node[25].content_store 	misses[25] 	8806
scalar tree_4_3_u06_r17_network.node[25].content_store 	decision_yes[25] 	121
scalar tree_4_3_u06_r17_network.node[25].content_store 	decision_no[25] 	8685
scalar tree_4_3_u06_r17_network.node[25].content_store 	decision_ratio[25] 	0.01374063138769
scalar tree_4_3_u06_r17_network.node[26].core_layer 	interests[26] 	12537
scalar tree_4_3_u06_r17_network.node[26].core_layer 	data[26] 	8968
scalar tree_4_3_u06_r17_network.node[26].content_store 	p_hit[26] 	0.28467735502911
scalar tree_4_3_u06_r17_network.node[26].content_store 	hits[26] 	3569
scalar tree_4_3_u06_r17_network.node[26].content_store 	misses[26] 	8968
scalar tree_4_3_u06_r17_network.node[26].content_store 	decision_yes[26] 	118
scalar tree_4_3_u06_r17_network.node[26].content_store 	decision_no[26] 	8850
scalar tree_4_3_u06_r17_network.node[26].content_store 	decision_ratio[26] 	0.013157894736842
scalar tree_4_3_u06_r17_network.node[27].core_layer 	interests[27] 	12422
scalar tree_4_3_u06_r17_network.node[27].core_layer 	data[27] 	8721
scalar tree_4_3_u06_r17_network.node[27].content_store 	p_hit[27] 	0.29793914023507
scalar tree_4_3_u06_r17_network.node[27].content_store 	hits[27] 	3701
scalar tree_4_3_u06_r17_network.node[27].content_store 	misses[27] 	8721
scalar tree_4_3_u06_r17_network.node[27].content_store 	decision_yes[27] 	101
scalar tree_4_3_u06_r17_network.node[27].content_store 	decision_no[27] 	8620
scalar tree_4_3_u06_r17_network.node[27].content_store 	decision_ratio[27] 	0.011581240683408
scalar tree_4_3_u06_r17_network.node[28].core_layer 	interests[28] 	13021
scalar tree_4_3_u06_r17_network.node[28].core_layer 	data[28] 	8879
scalar tree_4_3_u06_r17_network.node[28].content_store 	p_hit[28] 	0.31802472928347
scalar tree_4_3_u06_r17_network.node[28].content_store 	hits[28] 	4141
scalar tree_4_3_u06_r17_network.node[28].content_store 	misses[28] 	8880
scalar tree_4_3_u06_r17_network.node[28].content_store 	decision_yes[28] 	118
scalar tree_4_3_u06_r17_network.node[28].content_store 	decision_no[28] 	8761
scalar tree_4_3_u06_r17_network.node[28].content_store 	decision_ratio[28] 	0.013289784885685
scalar tree_4_3_u06_r17_network.node[29].core_layer 	interests[29] 	12823
scalar tree_4_3_u06_r17_network.node[29].core_layer 	data[29] 	8633
scalar tree_4_3_u06_r17_network.node[29].content_store 	p_hit[29] 	0.32667862434688
scalar tree_4_3_u06_r17_network.node[29].content_store 	hits[29] 	4189
scalar tree_4_3_u06_r17_network.node[29].content_store 	misses[29] 	8634
scalar tree_4_3_u06_r17_network.node[29].content_store 	decision_yes[29] 	101
scalar tree_4_3_u06_r17_network.node[29].content_store 	decision_no[29] 	8532
scalar tree_4_3_u06_r17_network.node[29].content_store 	decision_ratio[29] 	0.011699293409012
scalar tree_4_3_u06_r17_network.node[30].core_layer 	interests[30] 	12339
scalar tree_4_3_u06_r17_network.node[30].core_layer 	data[30] 	8749
scalar tree_4_3_u06_r17_network.node[30].content_store 	p_hit[30] 	0.2910284463895
scalar tree_4_3_u06_r17_network.node[30].content_store 	hits[30] 	3591
scalar tree_4_3_u06_r17_network.node[30].content_store 	misses[30] 	8748
scalar tree_4_3_u06_r17_network.node[30].content_store 	decision_yes[30] 	86
scalar tree_4_3_u06_r17_network.node[30].content_store 	decision_no[30] 	8663
scalar tree_4_3_u06_r17_network.node[30].content_store 	decision_ratio[30] 	0.0098296948222654
scalar tree_4_3_u06_r17_network.node[31].core_layer 	interests[31] 	12505
scalar tree_4_3_u06_r17_network.node[31].core_layer 	data[31] 	8873
scalar tree_4_3_u06_r17_network.node[31].content_store 	p_hit[31] 	0.29044382247101
scalar tree_4_3_u06_r17_network.node[31].content_store 	hits[31] 	3632
scalar tree_4_3_u06_r17_network.node[31].content_store 	misses[31] 	8873
scalar tree_4_3_u06_r17_network.node[31].content_store 	decision_yes[31] 	90
scalar tree_4_3_u06_r17_network.node[31].content_store 	decision_no[31] 	8783
scalar tree_4_3_u06_r17_network.node[31].content_store 	decision_ratio[31] 	0.010143130846388
scalar tree_4_3_u06_r17_network.node[32].core_layer 	interests[32] 	13302
scalar tree_4_3_u06_r17_network.node[32].core_layer 	data[32] 	8909
scalar tree_4_3_u06_r17_network.node[32].content_store 	p_hit[32] 	0.33025109006164
scalar tree_4_3_u06_r17_network.node[32].content_store 	hits[32] 	4393
scalar tree_4_3_u06_r17_network.node[32].content_store 	misses[32] 	8909
scalar tree_4_3_u06_r17_network.node[32].content_store 	decision_yes[32] 	121
scalar tree_4_3_u06_r17_network.node[32].content_store 	decision_no[32] 	8788
scalar tree_4_3_u06_r17_network.node[32].content_store 	decision_ratio[32] 	0.013581771242564
scalar tree_4_3_u06_r17_network.node[33].core_layer 	interests[33] 	12665
scalar tree_4_3_u06_r17_network.node[33].core_layer 	data[33] 	8891
scalar tree_4_3_u06_r17_network.node[33].content_store 	p_hit[33] 	0.29798657718121
scalar tree_4_3_u06_r17_network.node[33].content_store 	hits[33] 	3774
scalar tree_4_3_u06_r17_network.node[33].content_store 	misses[33] 	8891
scalar tree_4_3_u06_r17_network.node[33].content_store 	decision_yes[33] 	119
scalar tree_4_3_u06_r17_network.node[33].content_store 	decision_no[33] 	8772
scalar tree_4_3_u06_r17_network.node[33].content_store 	decision_ratio[33] 	0.013384321223709
scalar tree_4_3_u06_r17_network.node[34].core_layer 	interests[34] 	12584
scalar tree_4_3_u06_r17_network.node[34].core_layer 	data[34] 	8775
scalar tree_4_3_u06_r17_network.node[34].content_store 	p_hit[34] 	0.30268595041322
scalar tree_4_3_u06_r17_network.node[34].content_store 	hits[34] 	3809
scalar tree_4_3_u06_r17_network.node[34].content_store 	misses[34] 	8775
scalar tree_4_3_u06_r17_network.node[34].content_store 	decision_yes[34] 	113
scalar tree_4_3_u06_r17_network.node[34].content_store 	decision_no[34] 	8662
scalar tree_4_3_u06_r17_network.node[34].content_store 	decision_ratio[34] 	0.012877492877493
scalar tree_4_3_u06_r17_network.node[35].core_layer 	interests[35] 	12305
scalar tree_4_3_u06_r17_network.node[35].core_layer 	data[35] 	8602
scalar tree_4_3_u06_r17_network.node[35].content_store 	p_hit[35] 	0.30093457943925
scalar tree_4_3_u06_r17_network.node[35].content_store 	hits[35] 	3703
scalar tree_4_3_u06_r17_network.node[35].content_store 	misses[35] 	8602
scalar tree_4_3_u06_r17_network.node[35].content_store 	decision_yes[35] 	112
scalar tree_4_3_u06_r17_network.node[35].content_store 	decision_no[35] 	8490
scalar tree_4_3_u06_r17_network.node[35].content_store 	decision_ratio[35] 	0.013020227853987
scalar tree_4_3_u06_r17_network.node[36].core_layer 	interests[36] 	12868
scalar tree_4_3_u06_r17_network.node[36].core_layer 	data[36] 	8826
scalar tree_4_3_u06_r17_network.node[36].content_store 	p_hit[36] 	0.31403481504507
scalar tree_4_3_u06_r17_network.node[36].content_store 	hits[36] 	4041
scalar tree_4_3_u06_r17_network.node[36].content_store 	misses[36] 	8827
scalar tree_4_3_u06_r17_network.node[36].content_store 	decision_yes[36] 	108
scalar tree_4_3_u06_r17_network.node[36].content_store 	decision_no[36] 	8718
scalar tree_4_3_u06_r17_network.node[36].content_store 	decision_ratio[36] 	0.012236573759347
scalar tree_4_3_u06_r17_network.node[37].core_layer 	interests[37] 	12429
scalar tree_4_3_u06_r17_network.node[37].core_layer 	data[37] 	8810
scalar tree_4_3_u06_r17_network.node[37].content_store 	p_hit[37] 	0.29117386756779
scalar tree_4_3_u06_r17_network.node[37].content_store 	hits[37] 	3619
scalar tree_4_3_u06_r17_network.node[37].content_store 	misses[37] 	8810
scalar tree_4_3_u06_r17_network.node[37].content_store 	decision_yes[37] 	106
scalar tree_4_3_u06_r17_network.node[37].content_store 	decision_no[37] 	8704
scalar tree_4_3_u06_r17_network.node[37].content_store 	decision_ratio[37] 	0.012031782065834
scalar tree_4_3_u06_r17_network.node[38].core_layer 	interests[38] 	12780
scalar tree_4_3_u06_r17_network.node[38].core_layer 	data[38] 	8661
scalar tree_4_3_u06_r17_network.node[38].content_store 	p_hit[38] 	0.32230046948357
scalar tree_4_3_u06_r17_network.node[38].content_store 	hits[38] 	4119
scalar tree_4_3_u06_r17_network.node[38].content_store 	misses[38] 	8661
scalar tree_4_3_u06_r17_network.node[38].content_store 	decision_yes[38] 	106
scalar tree_4_3_u06_r17_network.node[38].content_store 	decision_no[38] 	8555
scalar tree_4_3_u06_r17_network.node[38].content_store 	decision_ratio[38] 	0.012238771504445
scalar tree_4_3_u06_r17_network.node[39].core_layer 	interests[39] 	12282
scalar tree_4_3_u06_r17_network.node[39].core_layer 	data[39] 	8730
scalar tree_4_3_u06_r17_network.node[39].content_store 	p_hit[39] 	0.28912229278619
scalar tree_4_3_u06_r17_network.node[39].content_store 	hits[39] 	3551
scalar tree_4_3_u06_r17_network.node[39].content_store 	misses[39] 	8731
scalar tree_4_3_u06_r17_network.node[39].content_store 	decision_yes[39] 	106
scalar tree_4_3_u06_r17_network.node[39].content_store 	decision_no[39] 	8624
scalar tree_4_3_u06_r17_network.node[39].content_store 	decision_ratio[39] 	0.012142038946163
scalar tree_4_3_u06_r17_network.client[13] 	hdistance[13] 	2.6529971062422
scalar tree_4_3_u06_r17_network.client[13] 	downloads[13] 	12095
scalar tree_4_3_u06_r17_network.client[13] 	avg_time[13] 	0.004140716298
scalar tree_4_3_u06_r17_network.client[14] 	hdistance[14] 	2.6167342547381
scalar tree_4_3_u06_r17_network.client[14] 	downloads[14] 	12083
scalar tree_4_3_u06_r17_network.client[14] 	avg_time[14] 	0.004063938112
scalar tree_4_3_u06_r17_network.client[15] 	hdistance[15] 	2.656143839589
scalar tree_4_3_u06_r17_network.client[15] 	downloads[15] 	12069
scalar tree_4_3_u06_r17_network.client[15] 	avg_time[15] 	0.004148476579
scalar tree_4_3_u06_r17_network.client[16] 	hdistance[16] 	2.580915967085
scalar tree_4_3_u06_r17_network.client[16] 	downloads[16] 	12031
scalar tree_4_3_u06_r17_network.client[16] 	avg_time[16] 	0.004001160655
scalar tree_4_3_u06_r17_network.client[17] 	hdistance[17] 	2.6556269291733
scalar tree_4_3_u06_r17_network.client[17] 	downloads[17] 	11987
scalar tree_4_3_u06_r17_network.client[17] 	avg_time[17] 	0.004133975497
scalar tree_4_3_u06_r17_network.client[18] 	hdistance[18] 	2.6218508356198
scalar tree_4_3_u06_r17_network.client[18] 	downloads[18] 	12027
scalar tree_4_3_u06_r17_network.client[18] 	avg_time[18] 	0.004085803931
scalar tree_4_3_u06_r17_network.client[19] 	hdistance[19] 	2.5973938629677
scalar tree_4_3_u06_r17_network.client[19] 	downloads[19] 	11895
scalar tree_4_3_u06_r17_network.client[19] 	avg_time[19] 	0.004077340421
scalar tree_4_3_u06_r17_network.client[20] 	hdistance[20] 	2.5949491636602
scalar tree_4_3_u06_r17_network.client[20] 	downloads[20] 	12196
scalar tree_4_3_u06_r17_network.client[20] 	avg_time[20] 	0.004063296418
scalar tree_4_3_u06_r17_network.client[21] 	hdistance[21] 	2.6489869873168
scalar tree_4_3_u06_r17_network.client[21] 	downloads[21] 	12142
scalar tree_4_3_u06_r17_network.client[21] 	avg_time[21] 	0.004171303154
scalar tree_4_3_u06_r17_network.client[22] 	hdistance[22] 	2.6744338157142
scalar tree_4_3_u06_r17_network.client[22] 	downloads[22] 	12231
scalar tree_4_3_u06_r17_network.client[22] 	avg_time[22] 	0.004184119284
scalar tree_4_3_u06_r17_network.client[23] 	hdistance[23] 	2.6644889182931
scalar tree_4_3_u06_r17_network.client[23] 	downloads[23] 	12092
scalar tree_4_3_u06_r17_network.client[23] 	avg_time[23] 	0.004163741619
scalar tree_4_3_u06_r17_network.client[24] 	hdistance[24] 	2.6152562176598
scalar tree_4_3_u06_r17_network.client[24] 	downloads[24] 	11982
scalar tree_4_3_u06_r17_network.client[24] 	avg_time[24] 	0.004091300648
scalar tree_4_3_u06_r17_network.client[25] 	hdistance[25] 	2.6104787412119
scalar tree_4_3_u06_r17_network.client[25] 	downloads[25] 	11948
scalar tree_4_3_u06_r17_network.client[25] 	avg_time[25] 	0.004060760328
scalar tree_4_3_u06_r17_network.client[26] 	hdistance[26] 	2.7120773745557
scalar tree_4_3_u06_r17_network.client[26] 	downloads[26] 	12097
scalar tree_4_3_u06_r17_network.client[26] 	avg_time[26] 	0.004234600622
scalar tree_4_3_u06_r17_network.client[27] 	hdistance[27] 	2.6577316133356
scalar tree_4_3_u06_r17_network.client[27] 	downloads[27] 	11938
scalar tree_4_3_u06_r17_network.client[27] 	avg_time[27] 	0.004155795466
scalar tree_4_3_u06_r17_network.client[28] 	hdistance[28] 	2.6010126162019
scalar tree_4_3_u06_r17_network.client[28] 	downloads[28] 	12048
scalar tree_4_3_u06_r17_network.client[28] 	avg_time[28] 	0.004065341513
scalar tree_4_3_u06_r17_network.client[29] 	hdistance[29] 	2.5472470548918
scalar tree_4_3_u06_r17_network.client[29] 	downloads[29] 	11969
scalar tree_4_3_u06_r17_network.client[29] 	avg_time[29] 	0.00398841239
scalar tree_4_3_u06_r17_network.client[30] 	hdistance[30] 	2.6322575278656
scalar tree_4_3_u06_r17_network.client[30] 	downloads[30] 	12022
scalar tree_4_3_u06_r17_network.client[30] 	avg_time[30] 	0.004135581758
scalar tree_4_3_u06_r17_network.client[31] 	hdistance[31] 	2.6790287709962
scalar tree_4_3_u06_r17_network.client[31] 	downloads[31] 	12026
scalar tree_4_3_u06_r17_network.client[31] 	avg_time[31] 	0.004217026745
scalar tree_4_3_u06_r17_network.client[32] 	hdistance[32] 	2.5603023332238
scalar tree_4_3_u06_r17_network.client[32] 	downloads[32] 	12172
scalar tree_4_3_u06_r17_network.client[32] 	avg_time[32] 	0.004029159601
scalar tree_4_3_u06_r17_network.client[33] 	hdistance[33] 	2.6252565892109
scalar tree_4_3_u06_r17_network.client[33] 	downloads[33] 	12179
scalar tree_4_3_u06_r17_network.client[33] 	avg_time[33] 	0.004145821723
scalar tree_4_3_u06_r17_network.client[34] 	hdistance[34] 	2.6436820083682
scalar tree_4_3_u06_r17_network.client[34] 	downloads[34] 	11950
scalar tree_4_3_u06_r17_network.client[34] 	avg_time[34] 	0.004155478164
scalar tree_4_3_u06_r17_network.client[35] 	hdistance[35] 	2.6205432937182
scalar tree_4_3_u06_r17_network.client[35] 	downloads[35] 	11780
scalar tree_4_3_u06_r17_network.client[35] 	avg_time[35] 	0.004118092858
scalar tree_4_3_u06_r17_network.client[36] 	hdistance[36] 	2.6017580577648
scalar tree_4_3_u06_r17_network.client[36] 	downloads[36] 	11945
scalar tree_4_3_u06_r17_network.client[36] 	avg_time[36] 	0.004074505196
scalar tree_4_3_u06_r17_network.client[37] 	hdistance[37] 	2.6474534161491
scalar tree_4_3_u06_r17_network.client[37] 	downloads[37] 	12075
scalar tree_4_3_u06_r17_network.client[37] 	avg_time[37] 	0.004144884347
scalar tree_4_3_u06_r17_network.client[38] 	hdistance[38] 	2.5642688679245
scalar tree_4_3_u06_r17_network.client[38] 	downloads[38] 	11872
scalar tree_4_3_u06_r17_network.client[38] 	avg_time[38] 	0.004016338005
scalar tree_4_3_u06_r17_network.client[39] 	hdistance[39] 	2.6536336235767
scalar tree_4_3_u06_r17_network.client[39] 	downloads[39] 	11944
scalar tree_4_3_u06_r17_network.client[39] 	avg_time[39] 	0.004154339009
