version 2
run General-37-20160820-07:11:37-856
attr a 0.9
attr cd lcd
attr configname General
attr cr lru
attr datetime 20160820-07:11:37
attr experiment General
attr fsize 1
attr inifile hw5115/scenario_A/SPR-LCD.ini
attr iterationvars "$name=tree_4_3, $un=01, $rep=18, $cd=lcd, $cr=lru, $fsize=1, $a=0.9, $sl=spr, $ttl=1000, $variance=0.05"
attr iterationvars2 "$name=tree_4_3, $un=01, $rep=18, $cd=lcd, $cr=lru, $fsize=1, $a=0.9, $sl=spr, $ttl=1000, $variance=0.05, $repetition=0"
attr measurement "$name=tree_4_3, $un=01, $rep=18, $cd=lcd, $cr=lru, $fsize=1, $a=0.9, $sl=spr, $ttl=1000, $variance=0.05"
attr name tree_4_3
attr network networks.${name}_u${un}_r${rep}_network
attr processid 856
attr rep 18
attr repetition 0
attr replication #0
attr resultdir results
attr runnumber 37
attr seedset 18
attr sl spr
attr ttl 1000
attr un 01
attr variance 0.05

scalar . 	a 	0.9
scalar . 	fsize 	1
scalar . 	rep 	18
scalar . 	ttl 	1000
scalar . 	un 	01
scalar . 	variance 	0.05
scalar tree_4_3_u01_r18_network.content_distribution 	repo-0 	0
scalar tree_4_3_u01_r18_network.content_distribution 	client-0 	13
scalar tree_4_3_u01_r18_network.content_distribution 	client-1 	14
scalar tree_4_3_u01_r18_network.content_distribution 	client-2 	15
scalar tree_4_3_u01_r18_network.content_distribution 	client-3 	16
scalar tree_4_3_u01_r18_network.content_distribution 	client-4 	17
scalar tree_4_3_u01_r18_network.content_distribution 	client-5 	18
scalar tree_4_3_u01_r18_network.content_distribution 	client-6 	19
scalar tree_4_3_u01_r18_network.content_distribution 	client-7 	20
scalar tree_4_3_u01_r18_network.content_distribution 	client-8 	21
scalar tree_4_3_u01_r18_network.content_distribution 	client-9 	22
scalar tree_4_3_u01_r18_network.content_distribution 	client-10 	23
scalar tree_4_3_u01_r18_network.content_distribution 	client-11 	24
scalar tree_4_3_u01_r18_network.content_distribution 	client-12 	25
scalar tree_4_3_u01_r18_network.content_distribution 	client-13 	26
scalar tree_4_3_u01_r18_network.content_distribution 	client-14 	27
scalar tree_4_3_u01_r18_network.content_distribution 	client-15 	28
scalar tree_4_3_u01_r18_network.content_distribution 	client-16 	29
scalar tree_4_3_u01_r18_network.content_distribution 	client-17 	30
scalar tree_4_3_u01_r18_network.content_distribution 	client-18 	31
scalar tree_4_3_u01_r18_network.content_distribution 	client-19 	32
scalar tree_4_3_u01_r18_network.content_distribution 	client-20 	33
scalar tree_4_3_u01_r18_network.content_distribution 	client-21 	34
scalar tree_4_3_u01_r18_network.content_distribution 	client-22 	35
scalar tree_4_3_u01_r18_network.content_distribution 	client-23 	36
scalar tree_4_3_u01_r18_network.content_distribution 	client-24 	37
scalar tree_4_3_u01_r18_network.content_distribution 	client-25 	38
scalar tree_4_3_u01_r18_network.content_distribution 	client-26 	39
scalar tree_4_3_u01_r18_network.content_distribution 	repo-0_card 	100000
scalar tree_4_3_u01_r18_network.content_distribution 	repo-0_price 	0
scalar tree_4_3_u01_r18_network.statistics 	stabilization_time 	1067.9
scalar tree_4_3_u01_r18_network.statistics 	p_hit 	0.18662825046142
scalar tree_4_3_u01_r18_network.statistics 	interests 	25483.55
scalar tree_4_3_u01_r18_network.statistics 	data 	17394.5
scalar tree_4_3_u01_r18_network.statistics 	hdistance 	2.8447221970495
scalar tree_4_3_u01_r18_network.statistics 	avg_time 	0.004300764124
scalar tree_4_3_u01_r18_network.statistics 	downloads 	323561
scalar tree_4_3_u01_r18_network.statistics 	total_cost 	0
scalar tree_4_3_u01_r18_network.statistics 	total_replicas 	100000
scalar tree_4_3_u01_r18_network.statistics 	inner_hit 	0.30568269970732
scalar tree_4_3_u01_r18_network.node[0].core_layer 	interests[0] 	226839
scalar tree_4_3_u01_r18_network.node[0].core_layer 	repo_load[0] 	224654
scalar tree_4_3_u01_r18_network.node[0].core_layer 	data[0] 	0
scalar tree_4_3_u01_r18_network.node[0].core_layer 	repo_int[0] 	224654
scalar tree_4_3_u01_r18_network.node[0].content_store 	p_hit[0] 	0.0096323824386459
scalar tree_4_3_u01_r18_network.node[0].content_store 	hits[0] 	2185
scalar tree_4_3_u01_r18_network.node[0].content_store 	misses[0] 	224654
scalar tree_4_3_u01_r18_network.node[0].content_store 	decision_yes[0] 	224654
scalar tree_4_3_u01_r18_network.node[0].content_store 	decision_no[0] 	0
scalar tree_4_3_u01_r18_network.node[0].content_store 	decision_ratio[0] 	1
scalar tree_4_3_u01_r18_network.node[1].core_layer 	interests[1] 	76353
scalar tree_4_3_u01_r18_network.node[1].core_layer 	data[1] 	75029
scalar tree_4_3_u01_r18_network.node[1].content_store 	p_hit[1] 	0.017327413461161
scalar tree_4_3_u01_r18_network.node[1].content_store 	hits[1] 	1323
scalar tree_4_3_u01_r18_network.node[1].content_store 	misses[1] 	75030
scalar tree_4_3_u01_r18_network.node[1].content_store 	decision_yes[1] 	660
scalar tree_4_3_u01_r18_network.node[1].content_store 	decision_no[1] 	74369
scalar tree_4_3_u01_r18_network.node[1].content_store 	decision_ratio[1] 	0.0087965986485226
scalar tree_4_3_u01_r18_network.node[2].core_layer 	interests[2] 	77200
scalar tree_4_3_u01_r18_network.node[2].core_layer 	data[2] 	75903
scalar tree_4_3_u01_r18_network.node[2].content_store 	p_hit[2] 	0.016787564766839
scalar tree_4_3_u01_r18_network.node[2].content_store 	hits[2] 	1296
scalar tree_4_3_u01_r18_network.node[2].content_store 	misses[2] 	75904
scalar tree_4_3_u01_r18_network.node[2].content_store 	decision_yes[2] 	777
scalar tree_4_3_u01_r18_network.node[2].content_store 	decision_no[2] 	75126
scalar tree_4_3_u01_r18_network.node[2].content_store 	decision_ratio[2] 	0.010236749535591
scalar tree_4_3_u01_r18_network.node[3].core_layer 	interests[3] 	77224
scalar tree_4_3_u01_r18_network.node[3].core_layer 	data[3] 	75907
scalar tree_4_3_u01_r18_network.node[3].content_store 	p_hit[3] 	0.017028384958044
scalar tree_4_3_u01_r18_network.node[3].content_store 	hits[3] 	1315
scalar tree_4_3_u01_r18_network.node[3].content_store 	misses[3] 	75909
scalar tree_4_3_u01_r18_network.node[3].content_store 	decision_yes[3] 	748
scalar tree_4_3_u01_r18_network.node[3].content_store 	decision_no[3] 	75159
scalar tree_4_3_u01_r18_network.node[3].content_store 	decision_ratio[3] 	0.0098541636476214
scalar tree_4_3_u01_r18_network.node[4].core_layer 	interests[4] 	26194
scalar tree_4_3_u01_r18_network.node[4].core_layer 	data[4] 	25378
scalar tree_4_3_u01_r18_network.node[4].content_store 	p_hit[4] 	0.031190348934871
scalar tree_4_3_u01_r18_network.node[4].content_store 	hits[4] 	817
scalar tree_4_3_u01_r18_network.node[4].content_store 	misses[4] 	25377
scalar tree_4_3_u01_r18_network.node[4].content_store 	decision_yes[4] 	435
scalar tree_4_3_u01_r18_network.node[4].content_store 	decision_no[4] 	24943
scalar tree_4_3_u01_r18_network.node[4].content_store 	decision_ratio[4] 	0.017140830640712
scalar tree_4_3_u01_r18_network.node[5].core_layer 	interests[5] 	26399
scalar tree_4_3_u01_r18_network.node[5].core_layer 	data[5] 	25575
scalar tree_4_3_u01_r18_network.node[5].content_store 	p_hit[5] 	0.031137543088753
scalar tree_4_3_u01_r18_network.node[5].content_store 	hits[5] 	822
scalar tree_4_3_u01_r18_network.node[5].content_store 	misses[5] 	25577
scalar tree_4_3_u01_r18_network.node[5].content_store 	decision_yes[5] 	433
scalar tree_4_3_u01_r18_network.node[5].content_store 	decision_no[5] 	25142
scalar tree_4_3_u01_r18_network.node[5].content_store 	decision_ratio[5] 	0.016930596285435
scalar tree_4_3_u01_r18_network.node[6].core_layer 	interests[6] 	26197
scalar tree_4_3_u01_r18_network.node[6].core_layer 	data[6] 	25401
scalar tree_4_3_u01_r18_network.node[6].content_store 	p_hit[6] 	0.030385158605947
scalar tree_4_3_u01_r18_network.node[6].content_store 	hits[6] 	796
scalar tree_4_3_u01_r18_network.node[6].content_store 	misses[6] 	25401
scalar tree_4_3_u01_r18_network.node[6].content_store 	decision_yes[6] 	455
scalar tree_4_3_u01_r18_network.node[6].content_store 	decision_no[6] 	24946
scalar tree_4_3_u01_r18_network.node[6].content_store 	decision_ratio[6] 	0.017912680603126
scalar tree_4_3_u01_r18_network.node[7].core_layer 	interests[7] 	35339
scalar tree_4_3_u01_r18_network.node[7].core_layer 	data[7] 	34167
scalar tree_4_3_u01_r18_network.node[7].content_store 	p_hit[7] 	0.033164492487054
scalar tree_4_3_u01_r18_network.node[7].content_store 	hits[7] 	1172
scalar tree_4_3_u01_r18_network.node[7].content_store 	misses[7] 	34167
scalar tree_4_3_u01_r18_network.node[7].content_store 	decision_yes[7] 	496
scalar tree_4_3_u01_r18_network.node[7].content_store 	decision_no[7] 	33671
scalar tree_4_3_u01_r18_network.node[7].content_store 	decision_ratio[7] 	0.014516931542131
scalar tree_4_3_u01_r18_network.node[8].core_layer 	interests[8] 	26545
scalar tree_4_3_u01_r18_network.node[8].core_layer 	data[8] 	25706
scalar tree_4_3_u01_r18_network.node[8].content_store 	p_hit[8] 	0.031606705594274
scalar tree_4_3_u01_r18_network.node[8].content_store 	hits[8] 	839
scalar tree_4_3_u01_r18_network.node[8].content_store 	misses[8] 	25706
scalar tree_4_3_u01_r18_network.node[8].content_store 	decision_yes[8] 	442
scalar tree_4_3_u01_r18_network.node[8].content_store 	decision_no[8] 	25264
scalar tree_4_3_u01_r18_network.node[8].content_store 	decision_ratio[8] 	0.017194429316113
scalar tree_4_3_u01_r18_network.node[9].core_layer 	interests[9] 	17869
scalar tree_4_3_u01_r18_network.node[9].core_layer 	data[9] 	17327
scalar tree_4_3_u01_r18_network.node[9].content_store 	p_hit[9] 	0.030331859645196
scalar tree_4_3_u01_r18_network.node[9].content_store 	hits[9] 	542
scalar tree_4_3_u01_r18_network.node[9].content_store 	misses[9] 	17327
scalar tree_4_3_u01_r18_network.node[9].content_store 	decision_yes[9] 	358
scalar tree_4_3_u01_r18_network.node[9].content_store 	decision_no[9] 	16969
scalar tree_4_3_u01_r18_network.node[9].content_store 	decision_ratio[9] 	0.020661395509898
scalar tree_4_3_u01_r18_network.node[10].core_layer 	interests[10] 	26676
scalar tree_4_3_u01_r18_network.node[10].core_layer 	data[10] 	25863
scalar tree_4_3_u01_r18_network.node[10].content_store 	p_hit[10] 	0.03043934622882
scalar tree_4_3_u01_r18_network.node[10].content_store 	hits[10] 	812
scalar tree_4_3_u01_r18_network.node[10].content_store 	misses[10] 	25864
scalar tree_4_3_u01_r18_network.node[10].content_store 	decision_yes[10] 	439
scalar tree_4_3_u01_r18_network.node[10].content_store 	decision_no[10] 	25424
scalar tree_4_3_u01_r18_network.node[10].content_store 	decision_ratio[10] 	0.016974055600665
scalar tree_4_3_u01_r18_network.node[11].core_layer 	interests[11] 	26456
scalar tree_4_3_u01_r18_network.node[11].core_layer 	data[11] 	25681
scalar tree_4_3_u01_r18_network.node[11].content_store 	p_hit[11] 	0.02925612337466
scalar tree_4_3_u01_r18_network.node[11].content_store 	hits[11] 	774
scalar tree_4_3_u01_r18_network.node[11].content_store 	misses[11] 	25682
scalar tree_4_3_u01_r18_network.node[11].content_store 	decision_yes[11] 	424
scalar tree_4_3_u01_r18_network.node[11].content_store 	decision_no[11] 	25257
scalar tree_4_3_u01_r18_network.node[11].content_store 	decision_ratio[11] 	0.016510260503874
scalar tree_4_3_u01_r18_network.node[12].core_layer 	interests[12] 	26489
scalar tree_4_3_u01_r18_network.node[12].core_layer 	data[12] 	25679
scalar tree_4_3_u01_r18_network.node[12].content_store 	p_hit[12] 	0.030540979274416
scalar tree_4_3_u01_r18_network.node[12].content_store 	hits[12] 	809
scalar tree_4_3_u01_r18_network.node[12].content_store 	misses[12] 	25680
scalar tree_4_3_u01_r18_network.node[12].content_store 	decision_yes[12] 	452
scalar tree_4_3_u01_r18_network.node[12].content_store 	decision_no[12] 	25227
scalar tree_4_3_u01_r18_network.node[12].content_store 	decision_ratio[12] 	0.01760193153939
scalar tree_4_3_u01_r18_network.node[13].core_layer 	interests[13] 	11699
scalar tree_4_3_u01_r18_network.node[13].core_layer 	data[13] 	8613
scalar tree_4_3_u01_r18_network.node[13].content_store 	p_hit[13] 	0.26378322933584
scalar tree_4_3_u01_r18_network.node[13].content_store 	hits[13] 	3086
scalar tree_4_3_u01_r18_network.node[13].content_store 	misses[13] 	8613
scalar tree_4_3_u01_r18_network.node[13].content_store 	decision_yes[13] 	290
scalar tree_4_3_u01_r18_network.node[13].content_store 	decision_no[13] 	8323
scalar tree_4_3_u01_r18_network.node[13].content_store 	decision_ratio[13] 	0.033670033670034
scalar tree_4_3_u01_r18_network.node[14].core_layer 	interests[14] 	11932
scalar tree_4_3_u01_r18_network.node[14].core_layer 	data[14] 	8747
scalar tree_4_3_u01_r18_network.node[14].content_store 	p_hit[14] 	0.26692926583976
scalar tree_4_3_u01_r18_network.node[14].content_store 	hits[14] 	3185
scalar tree_4_3_u01_r18_network.node[14].content_store 	misses[14] 	8747
scalar tree_4_3_u01_r18_network.node[14].content_store 	decision_yes[14] 	266
scalar tree_4_3_u01_r18_network.node[14].content_store 	decision_no[14] 	8481
scalar tree_4_3_u01_r18_network.node[14].content_store 	decision_ratio[14] 	0.03041042643192
scalar tree_4_3_u01_r18_network.node[15].core_layer 	interests[15] 	11930
scalar tree_4_3_u01_r18_network.node[15].core_layer 	data[15] 	8835
scalar tree_4_3_u01_r18_network.node[15].content_store 	p_hit[15] 	0.25951383067896
scalar tree_4_3_u01_r18_network.node[15].content_store 	hits[15] 	3096
scalar tree_4_3_u01_r18_network.node[15].content_store 	misses[15] 	8834
scalar tree_4_3_u01_r18_network.node[15].content_store 	decision_yes[15] 	261
scalar tree_4_3_u01_r18_network.node[15].content_store 	decision_no[15] 	8574
scalar tree_4_3_u01_r18_network.node[15].content_store 	decision_ratio[15] 	0.029541595925297
scalar tree_4_3_u01_r18_network.node[16].core_layer 	interests[16] 	12111
scalar tree_4_3_u01_r18_network.node[16].core_layer 	data[16] 	8904
scalar tree_4_3_u01_r18_network.node[16].content_store 	p_hit[16] 	0.26463545537115
scalar tree_4_3_u01_r18_network.node[16].content_store 	hits[16] 	3205
scalar tree_4_3_u01_r18_network.node[16].content_store 	misses[16] 	8906
scalar tree_4_3_u01_r18_network.node[16].content_store 	decision_yes[16] 	286
scalar tree_4_3_u01_r18_network.node[16].content_store 	decision_no[16] 	8618
scalar tree_4_3_u01_r18_network.node[16].content_store 	decision_ratio[16] 	0.032120395327942
scalar tree_4_3_u01_r18_network.node[17].core_layer 	interests[17] 	11763
scalar tree_4_3_u01_r18_network.node[17].core_layer 	data[17] 	8569
scalar tree_4_3_u01_r18_network.node[17].content_store 	p_hit[17] 	0.27152937175891
scalar tree_4_3_u01_r18_network.node[17].content_store 	hits[17] 	3194
scalar tree_4_3_u01_r18_network.node[17].content_store 	misses[17] 	8569
scalar tree_4_3_u01_r18_network.node[17].content_store 	decision_yes[17] 	263
scalar tree_4_3_u01_r18_network.node[17].content_store 	decision_no[17] 	8306
scalar tree_4_3_u01_r18_network.node[17].content_store 	decision_ratio[17] 	0.030692029408332
scalar tree_4_3_u01_r18_network.node[18].core_layer 	interests[18] 	12101
scalar tree_4_3_u01_r18_network.node[18].core_layer 	data[18] 	8925
scalar tree_4_3_u01_r18_network.node[18].content_store 	p_hit[18] 	0.26245764812825
scalar tree_4_3_u01_r18_network.node[18].content_store 	hits[18] 	3176
scalar tree_4_3_u01_r18_network.node[18].content_store 	misses[18] 	8925
scalar tree_4_3_u01_r18_network.node[18].content_store 	decision_yes[18] 	273
scalar tree_4_3_u01_r18_network.node[18].content_store 	decision_no[18] 	8652
scalar tree_4_3_u01_r18_network.node[18].content_store 	decision_ratio[18] 	0.030588235294118
scalar tree_4_3_u01_r18_network.node[19].core_layer 	interests[19] 	11951
scalar tree_4_3_u01_r18_network.node[19].core_layer 	data[19] 	8759
scalar tree_4_3_u01_r18_network.node[19].content_store 	p_hit[19] 	0.2670906200318
scalar tree_4_3_u01_r18_network.node[19].content_store 	hits[19] 	3192
scalar tree_4_3_u01_r18_network.node[19].content_store 	misses[19] 	8759
scalar tree_4_3_u01_r18_network.node[19].content_store 	decision_yes[19] 	260
scalar tree_4_3_u01_r18_network.node[19].content_store 	decision_no[19] 	8499
scalar tree_4_3_u01_r18_network.node[19].content_store 	decision_ratio[19] 	0.02968375385318
scalar tree_4_3_u01_r18_network.node[20].core_layer 	interests[20] 	11975
scalar tree_4_3_u01_r18_network.node[20].core_layer 	data[20] 	8746
scalar tree_4_3_u01_r18_network.node[20].content_store 	p_hit[20] 	0.26964509394572
scalar tree_4_3_u01_r18_network.node[20].content_store 	hits[20] 	3229
scalar tree_4_3_u01_r18_network.node[20].content_store 	misses[20] 	8746
scalar tree_4_3_u01_r18_network.node[20].content_store 	decision_yes[20] 	277
scalar tree_4_3_u01_r18_network.node[20].content_store 	decision_no[20] 	8469
scalar tree_4_3_u01_r18_network.node[20].content_store 	decision_ratio[20] 	0.0316716213126
scalar tree_4_3_u01_r18_network.node[21].core_layer 	interests[21] 	11870
scalar tree_4_3_u01_r18_network.node[21].core_layer 	data[21] 	8692
scalar tree_4_3_u01_r18_network.node[21].content_store 	p_hit[21] 	0.26773378264532
scalar tree_4_3_u01_r18_network.node[21].content_store 	hits[21] 	3178
scalar tree_4_3_u01_r18_network.node[21].content_store 	misses[21] 	8692
scalar tree_4_3_u01_r18_network.node[21].content_store 	decision_yes[21] 	259
scalar tree_4_3_u01_r18_network.node[21].content_store 	decision_no[21] 	8433
scalar tree_4_3_u01_r18_network.node[21].content_store 	decision_ratio[21] 	0.029797514956282
scalar tree_4_3_u01_r18_network.node[22].core_layer 	interests[22] 	12116
scalar tree_4_3_u01_r18_network.node[22].core_layer 	data[22] 	8810
scalar tree_4_3_u01_r18_network.node[22].content_store 	p_hit[22] 	0.27286233080224
scalar tree_4_3_u01_r18_network.node[22].content_store 	hits[22] 	3306
scalar tree_4_3_u01_r18_network.node[22].content_store 	misses[22] 	8810
scalar tree_4_3_u01_r18_network.node[22].content_store 	decision_yes[22] 	289
scalar tree_4_3_u01_r18_network.node[22].content_store 	decision_no[22] 	8521
scalar tree_4_3_u01_r18_network.node[22].content_store 	decision_ratio[22] 	0.032803632236095
scalar tree_4_3_u01_r18_network.node[23].core_layer 	interests[23] 	11947
scalar tree_4_3_u01_r18_network.node[23].core_layer 	data[23] 	8794
scalar tree_4_3_u01_r18_network.node[23].content_store 	p_hit[23] 	0.26399933037583
scalar tree_4_3_u01_r18_network.node[23].content_store 	hits[23] 	3154
scalar tree_4_3_u01_r18_network.node[23].content_store 	misses[23] 	8793
scalar tree_4_3_u01_r18_network.node[23].content_store 	decision_yes[23] 	307
scalar tree_4_3_u01_r18_network.node[23].content_store 	decision_no[23] 	8487
scalar tree_4_3_u01_r18_network.node[23].content_store 	decision_ratio[23] 	0.034910166022288
scalar tree_4_3_u01_r18_network.node[24].core_layer 	interests[24] 	11994
scalar tree_4_3_u01_r18_network.node[24].core_layer 	data[24] 	8860
scalar tree_4_3_u01_r18_network.node[24].content_store 	p_hit[24] 	0.26129731532433
scalar tree_4_3_u01_r18_network.node[24].content_store 	hits[24] 	3134
scalar tree_4_3_u01_r18_network.node[24].content_store 	misses[24] 	8860
scalar tree_4_3_u01_r18_network.node[24].content_store 	decision_yes[24] 	285
scalar tree_4_3_u01_r18_network.node[24].content_store 	decision_no[24] 	8575
scalar tree_4_3_u01_r18_network.node[24].content_store 	decision_ratio[24] 	0.032167042889391
scalar tree_4_3_u01_r18_network.node[25].core_layer 	interests[25] 	12032
scalar tree_4_3_u01_r18_network.node[25].core_layer 	data[25] 	8966
scalar tree_4_3_u01_r18_network.node[25].content_store 	p_hit[25] 	0.2548204787234
scalar tree_4_3_u01_r18_network.node[25].content_store 	hits[25] 	3066
scalar tree_4_3_u01_r18_network.node[25].content_store 	misses[25] 	8966
scalar tree_4_3_u01_r18_network.node[25].content_store 	decision_yes[25] 	279
scalar tree_4_3_u01_r18_network.node[25].content_store 	decision_no[25] 	8687
scalar tree_4_3_u01_r18_network.node[25].content_store 	decision_ratio[25] 	0.031117555208566
scalar tree_4_3_u01_r18_network.node[26].core_layer 	interests[26] 	11896
scalar tree_4_3_u01_r18_network.node[26].core_layer 	data[26] 	8627
scalar tree_4_3_u01_r18_network.node[26].content_store 	p_hit[26] 	0.27479825151311
scalar tree_4_3_u01_r18_network.node[26].content_store 	hits[26] 	3269
scalar tree_4_3_u01_r18_network.node[26].content_store 	misses[26] 	8627
scalar tree_4_3_u01_r18_network.node[26].content_store 	decision_yes[26] 	277
scalar tree_4_3_u01_r18_network.node[26].content_store 	decision_no[26] 	8350
scalar tree_4_3_u01_r18_network.node[26].content_store 	decision_ratio[26] 	0.032108496580503
scalar tree_4_3_u01_r18_network.node[27].core_layer 	interests[27] 	12113
scalar tree_4_3_u01_r18_network.node[27].core_layer 	data[27] 	8952
scalar tree_4_3_u01_r18_network.node[27].content_store 	p_hit[27] 	0.2609592999257
scalar tree_4_3_u01_r18_network.node[27].content_store 	hits[27] 	3161
scalar tree_4_3_u01_r18_network.node[27].content_store 	misses[27] 	8952
scalar tree_4_3_u01_r18_network.node[27].content_store 	decision_yes[27] 	283
scalar tree_4_3_u01_r18_network.node[27].content_store 	decision_no[27] 	8669
scalar tree_4_3_u01_r18_network.node[27].content_store 	decision_ratio[27] 	0.031613047363718
scalar tree_4_3_u01_r18_network.node[28].core_layer 	interests[28] 	11951
scalar tree_4_3_u01_r18_network.node[28].core_layer 	data[28] 	8876
scalar tree_4_3_u01_r18_network.node[28].content_store 	p_hit[28] 	0.25730064429755
scalar tree_4_3_u01_r18_network.node[28].content_store 	hits[28] 	3075
scalar tree_4_3_u01_r18_network.node[28].content_store 	misses[28] 	8876
scalar tree_4_3_u01_r18_network.node[28].content_store 	decision_yes[28] 	291
scalar tree_4_3_u01_r18_network.node[28].content_store 	decision_no[28] 	8585
scalar tree_4_3_u01_r18_network.node[28].content_store 	decision_ratio[28] 	0.032785038305543
scalar tree_4_3_u01_r18_network.node[29].core_layer 	interests[29] 	11902
scalar tree_4_3_u01_r18_network.node[29].core_layer 	data[29] 	8812
scalar tree_4_3_u01_r18_network.node[29].content_store 	p_hit[29] 	0.2596202318938
scalar tree_4_3_u01_r18_network.node[29].content_store 	hits[29] 	3090
scalar tree_4_3_u01_r18_network.node[29].content_store 	misses[29] 	8812
scalar tree_4_3_u01_r18_network.node[29].content_store 	decision_yes[29] 	287
scalar tree_4_3_u01_r18_network.node[29].content_store 	decision_no[29] 	8525
scalar tree_4_3_u01_r18_network.node[29].content_store 	decision_ratio[29] 	0.032569223785747
scalar tree_4_3_u01_r18_network.node[30].core_layer 	interests[30] 	12306
scalar tree_4_3_u01_r18_network.node[30].core_layer 	data[30] 	9057
scalar tree_4_3_u01_r18_network.node[30].content_store 	p_hit[30] 	0.26401755241346
scalar tree_4_3_u01_r18_network.node[30].content_store 	hits[30] 	3249
scalar tree_4_3_u01_r18_network.node[30].content_store 	misses[30] 	9057
scalar tree_4_3_u01_r18_network.node[30].content_store 	decision_yes[30] 	255
scalar tree_4_3_u01_r18_network.node[30].content_store 	decision_no[30] 	8802
scalar tree_4_3_u01_r18_network.node[30].content_store 	decision_ratio[30] 	0.028155018217953
scalar tree_4_3_u01_r18_network.node[31].core_layer 	interests[31] 	11944
scalar tree_4_3_u01_r18_network.node[31].core_layer 	data[31] 	8770
scalar tree_4_3_u01_r18_network.node[31].content_store 	p_hit[31] 	0.26565639651708
scalar tree_4_3_u01_r18_network.node[31].content_store 	hits[31] 	3173
scalar tree_4_3_u01_r18_network.node[31].content_store 	misses[31] 	8771
scalar tree_4_3_u01_r18_network.node[31].content_store 	decision_yes[31] 	256
scalar tree_4_3_u01_r18_network.node[31].content_store 	decision_no[31] 	8514
scalar tree_4_3_u01_r18_network.node[31].content_store 	decision_ratio[31] 	0.029190421892816
scalar tree_4_3_u01_r18_network.node[32].core_layer 	interests[32] 	12049
scalar tree_4_3_u01_r18_network.node[32].core_layer 	data[32] 	8897
scalar tree_4_3_u01_r18_network.node[32].content_store 	p_hit[32] 	0.26159847290232
scalar tree_4_3_u01_r18_network.node[32].content_store 	hits[32] 	3152
scalar tree_4_3_u01_r18_network.node[32].content_store 	misses[32] 	8897
scalar tree_4_3_u01_r18_network.node[32].content_store 	decision_yes[32] 	274
scalar tree_4_3_u01_r18_network.node[32].content_store 	decision_no[32] 	8623
scalar tree_4_3_u01_r18_network.node[32].content_store 	decision_ratio[32] 	0.030796897830729
scalar tree_4_3_u01_r18_network.node[33].core_layer 	interests[33] 	12096
scalar tree_4_3_u01_r18_network.node[33].core_layer 	data[33] 	9008
scalar tree_4_3_u01_r18_network.node[33].content_store 	p_hit[33] 	0.25529100529101
scalar tree_4_3_u01_r18_network.node[33].content_store 	hits[33] 	3088
scalar tree_4_3_u01_r18_network.node[33].content_store 	misses[33] 	9008
scalar tree_4_3_u01_r18_network.node[33].content_store 	decision_yes[33] 	282
scalar tree_4_3_u01_r18_network.node[33].content_store 	decision_no[33] 	8726
scalar tree_4_3_u01_r18_network.node[33].content_store 	decision_ratio[33] 	0.031305506216696
scalar tree_4_3_u01_r18_network.node[34].core_layer 	interests[34] 	11985
scalar tree_4_3_u01_r18_network.node[34].core_layer 	data[34] 	8897
scalar tree_4_3_u01_r18_network.node[34].content_store 	p_hit[34] 	0.25765540258657
scalar tree_4_3_u01_r18_network.node[34].content_store 	hits[34] 	3088
scalar tree_4_3_u01_r18_network.node[34].content_store 	misses[34] 	8897
scalar tree_4_3_u01_r18_network.node[34].content_store 	decision_yes[34] 	263
scalar tree_4_3_u01_r18_network.node[34].content_store 	decision_no[34] 	8634
scalar tree_4_3_u01_r18_network.node[34].content_store 	decision_ratio[34] 	0.029560526020007
scalar tree_4_3_u01_r18_network.node[35].core_layer 	interests[35] 	12178
scalar tree_4_3_u01_r18_network.node[35].core_layer 	data[35] 	8913
scalar tree_4_3_u01_r18_network.node[35].content_store 	p_hit[35] 	0.26810642141567
scalar tree_4_3_u01_r18_network.node[35].content_store 	hits[35] 	3265
scalar tree_4_3_u01_r18_network.node[35].content_store 	misses[35] 	8913
scalar tree_4_3_u01_r18_network.node[35].content_store 	decision_yes[35] 	257
scalar tree_4_3_u01_r18_network.node[35].content_store 	decision_no[35] 	8656
scalar tree_4_3_u01_r18_network.node[35].content_store 	decision_ratio[35] 	0.028834286996522
scalar tree_4_3_u01_r18_network.node[36].core_layer 	interests[36] 	11804
scalar tree_4_3_u01_r18_network.node[36].core_layer 	data[36] 	8646
scalar tree_4_3_u01_r18_network.node[36].content_store 	p_hit[36] 	0.26753642832938
scalar tree_4_3_u01_r18_network.node[36].content_store 	hits[36] 	3158
scalar tree_4_3_u01_r18_network.node[36].content_store 	misses[36] 	8646
scalar tree_4_3_u01_r18_network.node[36].content_store 	decision_yes[36] 	254
scalar tree_4_3_u01_r18_network.node[36].content_store 	decision_no[36] 	8392
scalar tree_4_3_u01_r18_network.node[36].content_store 	decision_ratio[36] 	0.029377746934999
scalar tree_4_3_u01_r18_network.node[37].core_layer 	interests[37] 	11901
scalar tree_4_3_u01_r18_network.node[37].core_layer 	data[37] 	8825
scalar tree_4_3_u01_r18_network.node[37].content_store 	p_hit[37] 	0.25846567515335
scalar tree_4_3_u01_r18_network.node[37].content_store 	hits[37] 	3076
scalar tree_4_3_u01_r18_network.node[37].content_store 	misses[37] 	8825
scalar tree_4_3_u01_r18_network.node[37].content_store 	decision_yes[37] 	281
scalar tree_4_3_u01_r18_network.node[37].content_store 	decision_no[37] 	8544
scalar tree_4_3_u01_r18_network.node[37].content_store 	decision_ratio[37] 	0.031841359773371
scalar tree_4_3_u01_r18_network.node[38].core_layer 	interests[38] 	11865
scalar tree_4_3_u01_r18_network.node[38].core_layer 	data[38] 	8718
scalar tree_4_3_u01_r18_network.node[38].content_store 	p_hit[38] 	0.26523388116308
scalar tree_4_3_u01_r18_network.node[38].content_store 	hits[38] 	3147
scalar tree_4_3_u01_r18_network.node[38].content_store 	misses[38] 	8718
scalar tree_4_3_u01_r18_network.node[38].content_store 	decision_yes[38] 	249
scalar tree_4_3_u01_r18_network.node[38].content_store 	decision_no[38] 	8469
scalar tree_4_3_u01_r18_network.node[38].content_store 	decision_ratio[38] 	0.02856159669649
scalar tree_4_3_u01_r18_network.node[39].core_layer 	interests[39] 	12151
scalar tree_4_3_u01_r18_network.node[39].core_layer 	data[39] 	8946
scalar tree_4_3_u01_r18_network.node[39].content_store 	p_hit[39] 	0.26376429923463
scalar tree_4_3_u01_r18_network.node[39].content_store 	hits[39] 	3205
scalar tree_4_3_u01_r18_network.node[39].content_store 	misses[39] 	8946
scalar tree_4_3_u01_r18_network.node[39].content_store 	decision_yes[39] 	279
scalar tree_4_3_u01_r18_network.node[39].content_store 	decision_no[39] 	8667
scalar tree_4_3_u01_r18_network.node[39].content_store 	decision_ratio[39] 	0.031187122736419
scalar tree_4_3_u01_r18_network.client[13] 	hdistance[13] 	2.8376784340542
scalar tree_4_3_u01_r18_network.client[13] 	downloads[13] 	11699
scalar tree_4_3_u01_r18_network.client[13] 	avg_time[13] 	0.004292500703
scalar tree_4_3_u01_r18_network.client[14] 	hdistance[14] 	2.8343110962119
scalar tree_4_3_u01_r18_network.client[14] 	downloads[14] 	11932
scalar tree_4_3_u01_r18_network.client[14] 	avg_time[14] 	0.004284609824
scalar tree_4_3_u01_r18_network.client[15] 	hdistance[15] 	2.8674042410527
scalar tree_4_3_u01_r18_network.client[15] 	downloads[15] 	11931
scalar tree_4_3_u01_r18_network.client[15] 	avg_time[15] 	0.004332297049
scalar tree_4_3_u01_r18_network.client[16] 	hdistance[16] 	2.8376414237344
scalar tree_4_3_u01_r18_network.client[16] 	downloads[16] 	12109
scalar tree_4_3_u01_r18_network.client[16] 	avg_time[16] 	0.004290701628
scalar tree_4_3_u01_r18_network.client[17] 	hdistance[17] 	2.8185836946357
scalar tree_4_3_u01_r18_network.client[17] 	downloads[17] 	11763
scalar tree_4_3_u01_r18_network.client[17] 	avg_time[17] 	0.004259114657
scalar tree_4_3_u01_r18_network.client[18] 	hdistance[18] 	2.85505330138
scalar tree_4_3_u01_r18_network.client[18] 	downloads[18] 	12101
scalar tree_4_3_u01_r18_network.client[18] 	avg_time[18] 	0.004311872014
scalar tree_4_3_u01_r18_network.client[19] 	hdistance[19] 	2.8359133126935
scalar tree_4_3_u01_r18_network.client[19] 	downloads[19] 	11951
scalar tree_4_3_u01_r18_network.client[19] 	avg_time[19] 	0.004286165559
scalar tree_4_3_u01_r18_network.client[20] 	hdistance[20] 	2.818121085595
scalar tree_4_3_u01_r18_network.client[20] 	downloads[20] 	11975
scalar tree_4_3_u01_r18_network.client[20] 	avg_time[20] 	0.004262376981
scalar tree_4_3_u01_r18_network.client[21] 	hdistance[21] 	2.832097725358
scalar tree_4_3_u01_r18_network.client[21] 	downloads[21] 	11870
scalar tree_4_3_u01_r18_network.client[21] 	avg_time[21] 	0.004281547182
scalar tree_4_3_u01_r18_network.client[22] 	hdistance[22] 	2.8075272367118
scalar tree_4_3_u01_r18_network.client[22] 	downloads[22] 	12116
scalar tree_4_3_u01_r18_network.client[22] 	avg_time[22] 	0.004244302028
scalar tree_4_3_u01_r18_network.client[23] 	hdistance[23] 	2.8410612654838
scalar tree_4_3_u01_r18_network.client[23] 	downloads[23] 	11948
scalar tree_4_3_u01_r18_network.client[23] 	avg_time[23] 	0.004294606992
scalar tree_4_3_u01_r18_network.client[24] 	hdistance[24] 	2.8555944638986
scalar tree_4_3_u01_r18_network.client[24] 	downloads[24] 	11994
scalar tree_4_3_u01_r18_network.client[24] 	avg_time[24] 	0.004317489054
scalar tree_4_3_u01_r18_network.client[25] 	hdistance[25] 	2.8823969414894
scalar tree_4_3_u01_r18_network.client[25] 	downloads[25] 	12032
scalar tree_4_3_u01_r18_network.client[25] 	avg_time[25] 	0.004356047559
scalar tree_4_3_u01_r18_network.client[26] 	hdistance[26] 	2.7995124411567
scalar tree_4_3_u01_r18_network.client[26] 	downloads[26] 	11896
scalar tree_4_3_u01_r18_network.client[26] 	avg_time[26] 	0.004233184655
scalar tree_4_3_u01_r18_network.client[27] 	hdistance[27] 	2.8513993230414
scalar tree_4_3_u01_r18_network.client[27] 	downloads[27] 	12113
scalar tree_4_3_u01_r18_network.client[27] 	avg_time[27] 	0.004314324386
scalar tree_4_3_u01_r18_network.client[28] 	hdistance[28] 	2.8687139151536
scalar tree_4_3_u01_r18_network.client[28] 	downloads[28] 	11951
scalar tree_4_3_u01_r18_network.client[28] 	avg_time[28] 	0.004337709299
scalar tree_4_3_u01_r18_network.client[29] 	hdistance[29] 	2.850865400773
scalar tree_4_3_u01_r18_network.client[29] 	downloads[29] 	11902
scalar tree_4_3_u01_r18_network.client[29] 	avg_time[29] 	0.004313725807
scalar tree_4_3_u01_r18_network.client[30] 	hdistance[30] 	2.8473102551601
scalar tree_4_3_u01_r18_network.client[30] 	downloads[30] 	12306
scalar tree_4_3_u01_r18_network.client[30] 	avg_time[30] 	0.004305864008
scalar tree_4_3_u01_r18_network.client[31] 	hdistance[31] 	2.8426693460605
scalar tree_4_3_u01_r18_network.client[31] 	downloads[31] 	11943
scalar tree_4_3_u01_r18_network.client[31] 	avg_time[31] 	0.004296404947
scalar tree_4_3_u01_r18_network.client[32] 	hdistance[32] 	2.8544277533405
scalar tree_4_3_u01_r18_network.client[32] 	downloads[32] 	12049
scalar tree_4_3_u01_r18_network.client[32] 	avg_time[32] 	0.004315541819
scalar tree_4_3_u01_r18_network.client[33] 	hdistance[33] 	2.8769841269841
scalar tree_4_3_u01_r18_network.client[33] 	downloads[33] 	12096
scalar tree_4_3_u01_r18_network.client[33] 	avg_time[33] 	0.004349699345
scalar tree_4_3_u01_r18_network.client[34] 	hdistance[34] 	2.870337922403
scalar tree_4_3_u01_r18_network.client[34] 	downloads[34] 	11985
scalar tree_4_3_u01_r18_network.client[34] 	avg_time[34] 	0.004340923142
scalar tree_4_3_u01_r18_network.client[35] 	hdistance[35] 	2.8333880768599
scalar tree_4_3_u01_r18_network.client[35] 	downloads[35] 	12178
scalar tree_4_3_u01_r18_network.client[35] 	avg_time[35] 	0.00428201465
scalar tree_4_3_u01_r18_network.client[36] 	hdistance[36] 	2.837851575737
scalar tree_4_3_u01_r18_network.client[36] 	downloads[36] 	11804
scalar tree_4_3_u01_r18_network.client[36] 	avg_time[36] 	0.004288204444
scalar tree_4_3_u01_r18_network.client[37] 	hdistance[37] 	2.8607680026888
scalar tree_4_3_u01_r18_network.client[37] 	downloads[37] 	11901
scalar tree_4_3_u01_r18_network.client[37] 	avg_time[37] 	0.004327700583
scalar tree_4_3_u01_r18_network.client[38] 	hdistance[38] 	2.8455120101138
scalar tree_4_3_u01_r18_network.client[38] 	downloads[38] 	11865
scalar tree_4_3_u01_r18_network.client[38] 	avg_time[38] 	0.004300009177
scalar tree_4_3_u01_r18_network.client[39] 	hdistance[39] 	2.8443749485639
scalar tree_4_3_u01_r18_network.client[39] 	downloads[39] 	12151
scalar tree_4_3_u01_r18_network.client[39] 	avg_time[39] 	0.004301693871
