version 2
run General-28-20160820-07:01:50-856
attr a 0.9
attr cd lcd
attr configname General
attr cr lru
attr datetime 20160820-07:01:50
attr experiment General
attr fsize 1
attr inifile hw5115/scenario_A/SPR-LCD.ini
attr iterationvars "$name=tree_4_3, $un=01, $rep=9, $cd=lcd, $cr=lru, $fsize=1, $a=0.9, $sl=spr, $ttl=1000, $variance=0.05"
attr iterationvars2 "$name=tree_4_3, $un=01, $rep=9, $cd=lcd, $cr=lru, $fsize=1, $a=0.9, $sl=spr, $ttl=1000, $variance=0.05, $repetition=0"
attr measurement "$name=tree_4_3, $un=01, $rep=9, $cd=lcd, $cr=lru, $fsize=1, $a=0.9, $sl=spr, $ttl=1000, $variance=0.05"
attr name tree_4_3
attr network networks.${name}_u${un}_r${rep}_network
attr processid 856
attr rep 9
attr repetition 0
attr replication #0
attr resultdir results
attr runnumber 28
attr seedset 9
attr sl spr
attr ttl 1000
attr un 01
attr variance 0.05

scalar . 	a 	0.9
scalar . 	fsize 	1
scalar . 	rep 	9
scalar . 	ttl 	1000
scalar . 	un 	01
scalar . 	variance 	0.05
scalar tree_4_3_u01_r9_network.content_distribution 	repo-0 	0
scalar tree_4_3_u01_r9_network.content_distribution 	client-0 	13
scalar tree_4_3_u01_r9_network.content_distribution 	client-1 	14
scalar tree_4_3_u01_r9_network.content_distribution 	client-2 	15
scalar tree_4_3_u01_r9_network.content_distribution 	client-3 	16
scalar tree_4_3_u01_r9_network.content_distribution 	client-4 	17
scalar tree_4_3_u01_r9_network.content_distribution 	client-5 	18
scalar tree_4_3_u01_r9_network.content_distribution 	client-6 	19
scalar tree_4_3_u01_r9_network.content_distribution 	client-7 	20
scalar tree_4_3_u01_r9_network.content_distribution 	client-8 	21
scalar tree_4_3_u01_r9_network.content_distribution 	client-9 	22
scalar tree_4_3_u01_r9_network.content_distribution 	client-10 	23
scalar tree_4_3_u01_r9_network.content_distribution 	client-11 	24
scalar tree_4_3_u01_r9_network.content_distribution 	client-12 	25
scalar tree_4_3_u01_r9_network.content_distribution 	client-13 	26
scalar tree_4_3_u01_r9_network.content_distribution 	client-14 	27
scalar tree_4_3_u01_r9_network.content_distribution 	client-15 	28
scalar tree_4_3_u01_r9_network.content_distribution 	client-16 	29
scalar tree_4_3_u01_r9_network.content_distribution 	client-17 	30
scalar tree_4_3_u01_r9_network.content_distribution 	client-18 	31
scalar tree_4_3_u01_r9_network.content_distribution 	client-19 	32
scalar tree_4_3_u01_r9_network.content_distribution 	client-20 	33
scalar tree_4_3_u01_r9_network.content_distribution 	client-21 	34
scalar tree_4_3_u01_r9_network.content_distribution 	client-22 	35
scalar tree_4_3_u01_r9_network.content_distribution 	client-23 	36
scalar tree_4_3_u01_r9_network.content_distribution 	client-24 	37
scalar tree_4_3_u01_r9_network.content_distribution 	client-25 	38
scalar tree_4_3_u01_r9_network.content_distribution 	client-26 	39
scalar tree_4_3_u01_r9_network.content_distribution 	repo-0_card 	100000
scalar tree_4_3_u01_r9_network.content_distribution 	repo-0_price 	0
scalar tree_4_3_u01_r9_network.statistics 	stabilization_time 	1061.6
scalar tree_4_3_u01_r9_network.statistics 	p_hit 	0.1881694786636
scalar tree_4_3_u01_r9_network.statistics 	interests 	25485.25
scalar tree_4_3_u01_r9_network.statistics 	data 	17379.55
scalar tree_4_3_u01_r9_network.statistics 	hdistance 	2.8367169085073
scalar tree_4_3_u01_r9_network.statistics 	avg_time 	0.004288285708
scalar tree_4_3_u01_r9_network.statistics 	downloads 	324229
scalar tree_4_3_u01_r9_network.statistics 	total_cost 	0
scalar tree_4_3_u01_r9_network.statistics 	total_replicas 	100000
scalar tree_4_3_u01_r9_network.statistics 	inner_hit 	0.30748945961034
scalar tree_4_3_u01_r9_network.node[0].core_layer 	interests[0] 	226718
scalar tree_4_3_u01_r9_network.node[0].core_layer 	repo_load[0] 	224532
scalar tree_4_3_u01_r9_network.node[0].core_layer 	data[0] 	0
scalar tree_4_3_u01_r9_network.node[0].core_layer 	repo_int[0] 	224532
scalar tree_4_3_u01_r9_network.node[0].content_store 	p_hit[0] 	0.0096419340325867
scalar tree_4_3_u01_r9_network.node[0].content_store 	hits[0] 	2186
scalar tree_4_3_u01_r9_network.node[0].content_store 	misses[0] 	224532
scalar tree_4_3_u01_r9_network.node[0].content_store 	decision_yes[0] 	224532
scalar tree_4_3_u01_r9_network.node[0].content_store 	decision_no[0] 	0
scalar tree_4_3_u01_r9_network.node[0].content_store 	decision_ratio[0] 	1
scalar tree_4_3_u01_r9_network.node[1].core_layer 	interests[1] 	76730
scalar tree_4_3_u01_r9_network.node[1].core_layer 	data[1] 	75360
scalar tree_4_3_u01_r9_network.node[1].content_store 	p_hit[1] 	0.017854815587124
scalar tree_4_3_u01_r9_network.node[1].content_store 	hits[1] 	1370
scalar tree_4_3_u01_r9_network.node[1].content_store 	misses[1] 	75360
scalar tree_4_3_u01_r9_network.node[1].content_store 	decision_yes[1] 	713
scalar tree_4_3_u01_r9_network.node[1].content_store 	decision_no[1] 	74647
scalar tree_4_3_u01_r9_network.node[1].content_store 	decision_ratio[1] 	0.0094612526539278
scalar tree_4_3_u01_r9_network.node[2].core_layer 	interests[2] 	77089
scalar tree_4_3_u01_r9_network.node[2].core_layer 	data[2] 	75773
scalar tree_4_3_u01_r9_network.node[2].content_store 	p_hit[2] 	0.017058205450843
scalar tree_4_3_u01_r9_network.node[2].content_store 	hits[2] 	1315
scalar tree_4_3_u01_r9_network.node[2].content_store 	misses[2] 	75774
scalar tree_4_3_u01_r9_network.node[2].content_store 	decision_yes[2] 	754
scalar tree_4_3_u01_r9_network.node[2].content_store 	decision_no[2] 	75019
scalar tree_4_3_u01_r9_network.node[2].content_store 	decision_ratio[2] 	0.009950774022409
scalar tree_4_3_u01_r9_network.node[3].core_layer 	interests[3] 	76792
scalar tree_4_3_u01_r9_network.node[3].core_layer 	data[3] 	75586
scalar tree_4_3_u01_r9_network.node[3].content_store 	p_hit[3] 	0.015691738722784
scalar tree_4_3_u01_r9_network.node[3].content_store 	hits[3] 	1205
scalar tree_4_3_u01_r9_network.node[3].content_store 	misses[3] 	75587
scalar tree_4_3_u01_r9_network.node[3].content_store 	decision_yes[3] 	719
scalar tree_4_3_u01_r9_network.node[3].content_store 	decision_no[3] 	74867
scalar tree_4_3_u01_r9_network.node[3].content_store 	decision_ratio[3] 	0.0095123435556849
scalar tree_4_3_u01_r9_network.node[4].core_layer 	interests[4] 	26593
scalar tree_4_3_u01_r9_network.node[4].core_layer 	data[4] 	25785
scalar tree_4_3_u01_r9_network.node[4].content_store 	p_hit[4] 	0.030383935622156
scalar tree_4_3_u01_r9_network.node[4].content_store 	hits[4] 	808
scalar tree_4_3_u01_r9_network.node[4].content_store 	misses[4] 	25785
scalar tree_4_3_u01_r9_network.node[4].content_store 	decision_yes[4] 	460
scalar tree_4_3_u01_r9_network.node[4].content_store 	decision_no[4] 	25325
scalar tree_4_3_u01_r9_network.node[4].content_store 	decision_ratio[4] 	0.017839829358154
scalar tree_4_3_u01_r9_network.node[5].core_layer 	interests[5] 	26233
scalar tree_4_3_u01_r9_network.node[5].core_layer 	data[5] 	25410
scalar tree_4_3_u01_r9_network.node[5].content_store 	p_hit[5] 	0.031334578584226
scalar tree_4_3_u01_r9_network.node[5].content_store 	hits[5] 	822
scalar tree_4_3_u01_r9_network.node[5].content_store 	misses[5] 	25411
scalar tree_4_3_u01_r9_network.node[5].content_store 	decision_yes[5] 	458
scalar tree_4_3_u01_r9_network.node[5].content_store 	decision_no[5] 	24952
scalar tree_4_3_u01_r9_network.node[5].content_store 	decision_ratio[5] 	0.018024399842582
scalar tree_4_3_u01_r9_network.node[6].core_layer 	interests[6] 	26334
scalar tree_4_3_u01_r9_network.node[6].core_layer 	data[6] 	25536
scalar tree_4_3_u01_r9_network.node[6].content_store 	p_hit[6] 	0.030341004025215
scalar tree_4_3_u01_r9_network.node[6].content_store 	hits[6] 	799
scalar tree_4_3_u01_r9_network.node[6].content_store 	misses[6] 	25535
scalar tree_4_3_u01_r9_network.node[6].content_store 	decision_yes[6] 	452
scalar tree_4_3_u01_r9_network.node[6].content_store 	decision_no[6] 	25084
scalar tree_4_3_u01_r9_network.node[6].content_store 	decision_ratio[6] 	0.017700501253133
scalar tree_4_3_u01_r9_network.node[7].core_layer 	interests[7] 	26612
scalar tree_4_3_u01_r9_network.node[7].core_layer 	data[7] 	25776
scalar tree_4_3_u01_r9_network.node[7].content_store 	p_hit[7] 	0.031414399519014
scalar tree_4_3_u01_r9_network.node[7].content_store 	hits[7] 	836
scalar tree_4_3_u01_r9_network.node[7].content_store 	misses[7] 	25776
scalar tree_4_3_u01_r9_network.node[7].content_store 	decision_yes[7] 	441
scalar tree_4_3_u01_r9_network.node[7].content_store 	decision_no[7] 	25335
scalar tree_4_3_u01_r9_network.node[7].content_store 	decision_ratio[7] 	0.017108938547486
scalar tree_4_3_u01_r9_network.node[8].core_layer 	interests[8] 	26452
scalar tree_4_3_u01_r9_network.node[8].core_layer 	data[8] 	25668
scalar tree_4_3_u01_r9_network.node[8].content_store 	p_hit[8] 	0.029638590654771
scalar tree_4_3_u01_r9_network.node[8].content_store 	hits[8] 	784
scalar tree_4_3_u01_r9_network.node[8].content_store 	misses[8] 	25668
scalar tree_4_3_u01_r9_network.node[8].content_store 	decision_yes[8] 	435
scalar tree_4_3_u01_r9_network.node[8].content_store 	decision_no[8] 	25233
scalar tree_4_3_u01_r9_network.node[8].content_store 	decision_ratio[8] 	0.016947171575503
scalar tree_4_3_u01_r9_network.node[9].core_layer 	interests[9] 	26496
scalar tree_4_3_u01_r9_network.node[9].core_layer 	data[9] 	25645
scalar tree_4_3_u01_r9_network.node[9].content_store 	p_hit[9] 	0.032118055555556
scalar tree_4_3_u01_r9_network.node[9].content_store 	hits[9] 	851
scalar tree_4_3_u01_r9_network.node[9].content_store 	misses[9] 	25645
scalar tree_4_3_u01_r9_network.node[9].content_store 	decision_yes[9] 	439
scalar tree_4_3_u01_r9_network.node[9].content_store 	decision_no[9] 	25206
scalar tree_4_3_u01_r9_network.node[9].content_store 	decision_ratio[9] 	0.017118346656268
scalar tree_4_3_u01_r9_network.node[10].core_layer 	interests[10] 	35088
scalar tree_4_3_u01_r9_network.node[10].core_layer 	data[10] 	34056
scalar tree_4_3_u01_r9_network.node[10].content_store 	p_hit[10] 	0.029411764705882
scalar tree_4_3_u01_r9_network.node[10].content_store 	hits[10] 	1032
scalar tree_4_3_u01_r9_network.node[10].content_store 	misses[10] 	34056
scalar tree_4_3_u01_r9_network.node[10].content_store 	decision_yes[10] 	470
scalar tree_4_3_u01_r9_network.node[10].content_store 	decision_no[10] 	33586
scalar tree_4_3_u01_r9_network.node[10].content_store 	decision_ratio[10] 	0.01380079868452
scalar tree_4_3_u01_r9_network.node[11].core_layer 	interests[11] 	26538
scalar tree_4_3_u01_r9_network.node[11].core_layer 	data[11] 	25751
scalar tree_4_3_u01_r9_network.node[11].content_store 	p_hit[11] 	0.029655588213128
scalar tree_4_3_u01_r9_network.node[11].content_store 	hits[11] 	787
scalar tree_4_3_u01_r9_network.node[11].content_store 	misses[11] 	25751
scalar tree_4_3_u01_r9_network.node[11].content_store 	decision_yes[11] 	403
scalar tree_4_3_u01_r9_network.node[11].content_store 	decision_no[11] 	25348
scalar tree_4_3_u01_r9_network.node[11].content_store 	decision_ratio[11] 	0.015649877674653
scalar tree_4_3_u01_r9_network.node[12].core_layer 	interests[12] 	17503
scalar tree_4_3_u01_r9_network.node[12].core_layer 	data[12] 	16985
scalar tree_4_3_u01_r9_network.node[12].content_store 	p_hit[12] 	0.029594926584014
scalar tree_4_3_u01_r9_network.node[12].content_store 	hits[12] 	518
scalar tree_4_3_u01_r9_network.node[12].content_store 	misses[12] 	16985
scalar tree_4_3_u01_r9_network.node[12].content_store 	decision_yes[12] 	332
scalar tree_4_3_u01_r9_network.node[12].content_store 	decision_no[12] 	16653
scalar tree_4_3_u01_r9_network.node[12].content_store 	decision_ratio[12] 	0.019546658816603
scalar tree_4_3_u01_r9_network.node[13].core_layer 	interests[13] 	12069
scalar tree_4_3_u01_r9_network.node[13].core_layer 	data[13] 	8899
scalar tree_4_3_u01_r9_network.node[13].content_store 	p_hit[13] 	0.26265639241031
scalar tree_4_3_u01_r9_network.node[13].content_store 	hits[13] 	3170
scalar tree_4_3_u01_r9_network.node[13].content_store 	misses[13] 	8899
scalar tree_4_3_u01_r9_network.node[13].content_store 	decision_yes[13] 	277
scalar tree_4_3_u01_r9_network.node[13].content_store 	decision_no[13] 	8622
scalar tree_4_3_u01_r9_network.node[13].content_store 	decision_ratio[13] 	0.03112709293179
scalar tree_4_3_u01_r9_network.node[14].core_layer 	interests[14] 	12061
scalar tree_4_3_u01_r9_network.node[14].core_layer 	data[14] 	8832
scalar tree_4_3_u01_r9_network.node[14].content_store 	p_hit[14] 	0.26772241107703
scalar tree_4_3_u01_r9_network.node[14].content_store 	hits[14] 	3229
scalar tree_4_3_u01_r9_network.node[14].content_store 	misses[14] 	8832
scalar tree_4_3_u01_r9_network.node[14].content_store 	decision_yes[14] 	270
scalar tree_4_3_u01_r9_network.node[14].content_store 	decision_no[14] 	8562
scalar tree_4_3_u01_r9_network.node[14].content_store 	decision_ratio[14] 	0.030570652173913
scalar tree_4_3_u01_r9_network.node[15].core_layer 	interests[15] 	12070
scalar tree_4_3_u01_r9_network.node[15].core_layer 	data[15] 	8862
scalar tree_4_3_u01_r9_network.node[15].content_store 	p_hit[15] 	0.26553438276719
scalar tree_4_3_u01_r9_network.node[15].content_store 	hits[15] 	3205
scalar tree_4_3_u01_r9_network.node[15].content_store 	misses[15] 	8865
scalar tree_4_3_u01_r9_network.node[15].content_store 	decision_yes[15] 	261
scalar tree_4_3_u01_r9_network.node[15].content_store 	decision_no[15] 	8601
scalar tree_4_3_u01_r9_network.node[15].content_store 	decision_ratio[15] 	0.029451591062965
scalar tree_4_3_u01_r9_network.node[16].core_layer 	interests[16] 	11879
scalar tree_4_3_u01_r9_network.node[16].core_layer 	data[16] 	8693
scalar tree_4_3_u01_r9_network.node[16].content_store 	p_hit[16] 	0.26820439430929
scalar tree_4_3_u01_r9_network.node[16].content_store 	hits[16] 	3186
scalar tree_4_3_u01_r9_network.node[16].content_store 	misses[16] 	8693
scalar tree_4_3_u01_r9_network.node[16].content_store 	decision_yes[16] 	260
scalar tree_4_3_u01_r9_network.node[16].content_store 	decision_no[16] 	8433
scalar tree_4_3_u01_r9_network.node[16].content_store 	decision_ratio[16] 	0.029909122282296
scalar tree_4_3_u01_r9_network.node[17].core_layer 	interests[17] 	12026
scalar tree_4_3_u01_r9_network.node[17].core_layer 	data[17] 	8835
scalar tree_4_3_u01_r9_network.node[17].content_store 	p_hit[17] 	0.26534175952104
scalar tree_4_3_u01_r9_network.node[17].content_store 	hits[17] 	3191
scalar tree_4_3_u01_r9_network.node[17].content_store 	misses[17] 	8835
scalar tree_4_3_u01_r9_network.node[17].content_store 	decision_yes[17] 	290
scalar tree_4_3_u01_r9_network.node[17].content_store 	decision_no[17] 	8545
scalar tree_4_3_u01_r9_network.node[17].content_store 	decision_ratio[17] 	0.032823995472552
scalar tree_4_3_u01_r9_network.node[18].core_layer 	interests[18] 	11783
scalar tree_4_3_u01_r9_network.node[18].core_layer 	data[18] 	8705
scalar tree_4_3_u01_r9_network.node[18].content_store 	p_hit[18] 	0.26122379699567
scalar tree_4_3_u01_r9_network.node[18].content_store 	hits[18] 	3078
scalar tree_4_3_u01_r9_network.node[18].content_store 	misses[18] 	8705
scalar tree_4_3_u01_r9_network.node[18].content_store 	decision_yes[18] 	272
scalar tree_4_3_u01_r9_network.node[18].content_store 	decision_no[18] 	8433
scalar tree_4_3_u01_r9_network.node[18].content_store 	decision_ratio[18] 	0.031246410109133
scalar tree_4_3_u01_r9_network.node[19].core_layer 	interests[19] 	11905
scalar tree_4_3_u01_r9_network.node[19].core_layer 	data[19] 	8717
scalar tree_4_3_u01_r9_network.node[19].content_store 	p_hit[19] 	0.26778664426711
scalar tree_4_3_u01_r9_network.node[19].content_store 	hits[19] 	3188
scalar tree_4_3_u01_r9_network.node[19].content_store 	misses[19] 	8717
scalar tree_4_3_u01_r9_network.node[19].content_store 	decision_yes[19] 	256
scalar tree_4_3_u01_r9_network.node[19].content_store 	decision_no[19] 	8461
scalar tree_4_3_u01_r9_network.node[19].content_store 	decision_ratio[19] 	0.029367901801078
scalar tree_4_3_u01_r9_network.node[20].core_layer 	interests[20] 	12007
scalar tree_4_3_u01_r9_network.node[20].core_layer 	data[20] 	8806
scalar tree_4_3_u01_r9_network.node[20].content_store 	p_hit[20] 	0.26651120179895
scalar tree_4_3_u01_r9_network.node[20].content_store 	hits[20] 	3200
scalar tree_4_3_u01_r9_network.node[20].content_store 	misses[20] 	8807
scalar tree_4_3_u01_r9_network.node[20].content_store 	decision_yes[20] 	274
scalar tree_4_3_u01_r9_network.node[20].content_store 	decision_no[20] 	8532
scalar tree_4_3_u01_r9_network.node[20].content_store 	decision_ratio[20] 	0.031115148762208
scalar tree_4_3_u01_r9_network.node[21].core_layer 	interests[21] 	12065
scalar tree_4_3_u01_r9_network.node[21].core_layer 	data[21] 	8812
scalar tree_4_3_u01_r9_network.node[21].content_store 	p_hit[21] 	0.26970576046415
scalar tree_4_3_u01_r9_network.node[21].content_store 	hits[21] 	3254
scalar tree_4_3_u01_r9_network.node[21].content_store 	misses[21] 	8811
scalar tree_4_3_u01_r9_network.node[21].content_store 	decision_yes[21] 	269
scalar tree_4_3_u01_r9_network.node[21].content_store 	decision_no[21] 	8543
scalar tree_4_3_u01_r9_network.node[21].content_store 	decision_ratio[21] 	0.030526554698139
scalar tree_4_3_u01_r9_network.node[22].core_layer 	interests[22] 	12037
scalar tree_4_3_u01_r9_network.node[22].core_layer 	data[22] 	8903
scalar tree_4_3_u01_r9_network.node[22].content_store 	p_hit[22] 	0.2603638780427
scalar tree_4_3_u01_r9_network.node[22].content_store 	hits[22] 	3134
scalar tree_4_3_u01_r9_network.node[22].content_store 	misses[22] 	8903
scalar tree_4_3_u01_r9_network.node[22].content_store 	decision_yes[22] 	264
scalar tree_4_3_u01_r9_network.node[22].content_store 	decision_no[22] 	8639
scalar tree_4_3_u01_r9_network.node[22].content_store 	decision_ratio[22] 	0.029652925980007
scalar tree_4_3_u01_r9_network.node[23].core_layer 	interests[23] 	12145
scalar tree_4_3_u01_r9_network.node[23].core_layer 	data[23] 	8866
scalar tree_4_3_u01_r9_network.node[23].content_store 	p_hit[23] 	0.2699053108275
scalar tree_4_3_u01_r9_network.node[23].content_store 	hits[23] 	3278
scalar tree_4_3_u01_r9_network.node[23].content_store 	misses[23] 	8867
scalar tree_4_3_u01_r9_network.node[23].content_store 	decision_yes[23] 	293
scalar tree_4_3_u01_r9_network.node[23].content_store 	decision_no[23] 	8573
scalar tree_4_3_u01_r9_network.node[23].content_store 	decision_ratio[23] 	0.033047597563727
scalar tree_4_3_u01_r9_network.node[24].core_layer 	interests[24] 	12188
scalar tree_4_3_u01_r9_network.node[24].core_layer 	data[24] 	8843
scalar tree_4_3_u01_r9_network.node[24].content_store 	p_hit[24] 	0.27445027896291
scalar tree_4_3_u01_r9_network.node[24].content_store 	hits[24] 	3345
scalar tree_4_3_u01_r9_network.node[24].content_store 	misses[24] 	8843
scalar tree_4_3_u01_r9_network.node[24].content_store 	decision_yes[24] 	279
scalar tree_4_3_u01_r9_network.node[24].content_store 	decision_no[24] 	8564
scalar tree_4_3_u01_r9_network.node[24].content_store 	decision_ratio[24] 	0.031550378830714
scalar tree_4_3_u01_r9_network.node[25].core_layer 	interests[25] 	12128
scalar tree_4_3_u01_r9_network.node[25].core_layer 	data[25] 	8880
scalar tree_4_3_u01_r9_network.node[25].content_store 	p_hit[25] 	0.26781002638522
scalar tree_4_3_u01_r9_network.node[25].content_store 	hits[25] 	3248
scalar tree_4_3_u01_r9_network.node[25].content_store 	misses[25] 	8880
scalar tree_4_3_u01_r9_network.node[25].content_store 	decision_yes[25] 	273
scalar tree_4_3_u01_r9_network.node[25].content_store 	decision_no[25] 	8607
scalar tree_4_3_u01_r9_network.node[25].content_store 	decision_ratio[25] 	0.030743243243243
scalar tree_4_3_u01_r9_network.node[26].core_layer 	interests[26] 	11947
scalar tree_4_3_u01_r9_network.node[26].core_layer 	data[26] 	8744
scalar tree_4_3_u01_r9_network.node[26].content_store 	p_hit[26] 	0.2681007784381
scalar tree_4_3_u01_r9_network.node[26].content_store 	hits[26] 	3203
scalar tree_4_3_u01_r9_network.node[26].content_store 	misses[26] 	8744
scalar tree_4_3_u01_r9_network.node[26].content_store 	decision_yes[26] 	247
scalar tree_4_3_u01_r9_network.node[26].content_store 	decision_no[26] 	8497
scalar tree_4_3_u01_r9_network.node[26].content_store 	decision_ratio[26] 	0.028247941445563
scalar tree_4_3_u01_r9_network.node[27].core_layer 	interests[27] 	11980
scalar tree_4_3_u01_r9_network.node[27].core_layer 	data[27] 	8828
scalar tree_4_3_u01_r9_network.node[27].content_store 	p_hit[27] 	0.26310517529215
scalar tree_4_3_u01_r9_network.node[27].content_store 	hits[27] 	3152
scalar tree_4_3_u01_r9_network.node[27].content_store 	misses[27] 	8828
scalar tree_4_3_u01_r9_network.node[27].content_store 	decision_yes[27] 	264
scalar tree_4_3_u01_r9_network.node[27].content_store 	decision_no[27] 	8564
scalar tree_4_3_u01_r9_network.node[27].content_store 	decision_ratio[27] 	0.02990484821024
scalar tree_4_3_u01_r9_network.node[28].core_layer 	interests[28] 	12000
scalar tree_4_3_u01_r9_network.node[28].core_layer 	data[28] 	8773
scalar tree_4_3_u01_r9_network.node[28].content_store 	p_hit[28] 	0.269
scalar tree_4_3_u01_r9_network.node[28].content_store 	hits[28] 	3228
scalar tree_4_3_u01_r9_network.node[28].content_store 	misses[28] 	8772
scalar tree_4_3_u01_r9_network.node[28].content_store 	decision_yes[28] 	280
scalar tree_4_3_u01_r9_network.node[28].content_store 	decision_no[28] 	8493
scalar tree_4_3_u01_r9_network.node[28].content_store 	decision_ratio[28] 	0.031916106235039
scalar tree_4_3_u01_r9_network.node[29].core_layer 	interests[29] 	11920
scalar tree_4_3_u01_r9_network.node[29].core_layer 	data[29] 	8759
scalar tree_4_3_u01_r9_network.node[29].content_store 	p_hit[29] 	0.26518456375839
scalar tree_4_3_u01_r9_network.node[29].content_store 	hits[29] 	3161
scalar tree_4_3_u01_r9_network.node[29].content_store 	misses[29] 	8759
scalar tree_4_3_u01_r9_network.node[29].content_store 	decision_yes[29] 	273
scalar tree_4_3_u01_r9_network.node[29].content_store 	decision_no[29] 	8486
scalar tree_4_3_u01_r9_network.node[29].content_store 	decision_ratio[29] 	0.031167941545839
scalar tree_4_3_u01_r9_network.node[30].core_layer 	interests[30] 	12053
scalar tree_4_3_u01_r9_network.node[30].core_layer 	data[30] 	8965
scalar tree_4_3_u01_r9_network.node[30].content_store 	p_hit[30] 	0.25620177549158
scalar tree_4_3_u01_r9_network.node[30].content_store 	hits[30] 	3088
scalar tree_4_3_u01_r9_network.node[30].content_store 	misses[30] 	8965
scalar tree_4_3_u01_r9_network.node[30].content_store 	decision_yes[30] 	298
scalar tree_4_3_u01_r9_network.node[30].content_store 	decision_no[30] 	8667
scalar tree_4_3_u01_r9_network.node[30].content_store 	decision_ratio[30] 	0.033240379252649
scalar tree_4_3_u01_r9_network.node[31].core_layer 	interests[31] 	12037
scalar tree_4_3_u01_r9_network.node[31].core_layer 	data[31] 	8788
scalar tree_4_3_u01_r9_network.node[31].content_store 	p_hit[31] 	0.26991775359309
scalar tree_4_3_u01_r9_network.node[31].content_store 	hits[31] 	3249
scalar tree_4_3_u01_r9_network.node[31].content_store 	misses[31] 	8788
scalar tree_4_3_u01_r9_network.node[31].content_store 	decision_yes[31] 	252
scalar tree_4_3_u01_r9_network.node[31].content_store 	decision_no[31] 	8536
scalar tree_4_3_u01_r9_network.node[31].content_store 	decision_ratio[31] 	0.028675466545289
scalar tree_4_3_u01_r9_network.node[32].core_layer 	interests[32] 	12087
scalar tree_4_3_u01_r9_network.node[32].core_layer 	data[32] 	8786
scalar tree_4_3_u01_r9_network.node[32].content_store 	p_hit[32] 	0.27310333416067
scalar tree_4_3_u01_r9_network.node[32].content_store 	hits[32] 	3301
scalar tree_4_3_u01_r9_network.node[32].content_store 	misses[32] 	8786
scalar tree_4_3_u01_r9_network.node[32].content_store 	decision_yes[32] 	247
scalar tree_4_3_u01_r9_network.node[32].content_store 	decision_no[32] 	8539
scalar tree_4_3_u01_r9_network.node[32].content_store 	decision_ratio[32] 	0.028112906897337
scalar tree_4_3_u01_r9_network.node[33].core_layer 	interests[33] 	12041
scalar tree_4_3_u01_r9_network.node[33].core_layer 	data[33] 	8804
scalar tree_4_3_u01_r9_network.node[33].content_store 	p_hit[33] 	0.26883149240096
scalar tree_4_3_u01_r9_network.node[33].content_store 	hits[33] 	3237
scalar tree_4_3_u01_r9_network.node[33].content_store 	misses[33] 	8804
scalar tree_4_3_u01_r9_network.node[33].content_store 	decision_yes[33] 	255
scalar tree_4_3_u01_r9_network.node[33].content_store 	decision_no[33] 	8549
scalar tree_4_3_u01_r9_network.node[33].content_store 	decision_ratio[33] 	0.028964107223989
scalar tree_4_3_u01_r9_network.node[34].core_layer 	interests[34] 	11995
scalar tree_4_3_u01_r9_network.node[34].core_layer 	data[34] 	8886
scalar tree_4_3_u01_r9_network.node[34].content_store 	p_hit[34] 	0.25919132972072
scalar tree_4_3_u01_r9_network.node[34].content_store 	hits[34] 	3109
scalar tree_4_3_u01_r9_network.node[34].content_store 	misses[34] 	8886
scalar tree_4_3_u01_r9_network.node[34].content_store 	decision_yes[34] 	250
scalar tree_4_3_u01_r9_network.node[34].content_store 	decision_no[34] 	8636
scalar tree_4_3_u01_r9_network.node[34].content_store 	decision_ratio[34] 	0.028134143596669
scalar tree_4_3_u01_r9_network.node[35].core_layer 	interests[35] 	12101
scalar tree_4_3_u01_r9_network.node[35].core_layer 	data[35] 	8856
scalar tree_4_3_u01_r9_network.node[35].content_store 	p_hit[35] 	0.26815965622676
scalar tree_4_3_u01_r9_network.node[35].content_store 	hits[35] 	3245
scalar tree_4_3_u01_r9_network.node[35].content_store 	misses[35] 	8856
scalar tree_4_3_u01_r9_network.node[35].content_store 	decision_yes[35] 	283
scalar tree_4_3_u01_r9_network.node[35].content_store 	decision_no[35] 	8573
scalar tree_4_3_u01_r9_network.node[35].content_store 	decision_ratio[35] 	0.031955736224029
scalar tree_4_3_u01_r9_network.node[36].core_layer 	interests[36] 	11911
scalar tree_4_3_u01_r9_network.node[36].core_layer 	data[36] 	8796
scalar tree_4_3_u01_r9_network.node[36].content_store 	p_hit[36] 	0.26152296196793
scalar tree_4_3_u01_r9_network.node[36].content_store 	hits[36] 	3115
scalar tree_4_3_u01_r9_network.node[36].content_store 	misses[36] 	8796
scalar tree_4_3_u01_r9_network.node[36].content_store 	decision_yes[36] 	254
scalar tree_4_3_u01_r9_network.node[36].content_store 	decision_no[36] 	8542
scalar tree_4_3_u01_r9_network.node[36].content_store 	decision_ratio[36] 	0.02887676216462
scalar tree_4_3_u01_r9_network.node[37].core_layer 	interests[37] 	11829
scalar tree_4_3_u01_r9_network.node[37].core_layer 	data[37] 	8710
scalar tree_4_3_u01_r9_network.node[37].content_store 	p_hit[37] 	0.26367402147265
scalar tree_4_3_u01_r9_network.node[37].content_store 	hits[37] 	3119
scalar tree_4_3_u01_r9_network.node[37].content_store 	misses[37] 	8710
scalar tree_4_3_u01_r9_network.node[37].content_store 	decision_yes[37] 	278
scalar tree_4_3_u01_r9_network.node[37].content_store 	decision_no[37] 	8432
scalar tree_4_3_u01_r9_network.node[37].content_store 	decision_ratio[37] 	0.031917336394948
scalar tree_4_3_u01_r9_network.node[38].core_layer 	interests[38] 	11946
scalar tree_4_3_u01_r9_network.node[38].core_layer 	data[38] 	8797
scalar tree_4_3_u01_r9_network.node[38].content_store 	p_hit[38] 	0.26360287962498
scalar tree_4_3_u01_r9_network.node[38].content_store 	hits[38] 	3149
scalar tree_4_3_u01_r9_network.node[38].content_store 	misses[38] 	8797
scalar tree_4_3_u01_r9_network.node[38].content_store 	decision_yes[38] 	251
scalar tree_4_3_u01_r9_network.node[38].content_store 	decision_no[38] 	8546
scalar tree_4_3_u01_r9_network.node[38].content_store 	decision_ratio[38] 	0.028532454245766
scalar tree_4_3_u01_r9_network.node[39].core_layer 	interests[39] 	12022
scalar tree_4_3_u01_r9_network.node[39].core_layer 	data[39] 	8706
scalar tree_4_3_u01_r9_network.node[39].content_store 	p_hit[39] 	0.2758276493096
scalar tree_4_3_u01_r9_network.node[39].content_store 	hits[39] 	3316
scalar tree_4_3_u01_r9_network.node[39].content_store 	misses[39] 	8706
scalar tree_4_3_u01_r9_network.node[39].content_store 	decision_yes[39] 	267
scalar tree_4_3_u01_r9_network.node[39].content_store 	decision_no[39] 	8439
scalar tree_4_3_u01_r9_network.node[39].content_store 	decision_ratio[39] 	0.030668504479669
scalar tree_4_3_u01_r9_network.client[13] 	hdistance[13] 	2.8502775706355
scalar tree_4_3_u01_r9_network.client[13] 	downloads[13] 	12069
scalar tree_4_3_u01_r9_network.client[13] 	avg_time[13] 	0.004309101361
scalar tree_4_3_u01_r9_network.client[14] 	hdistance[14] 	2.8283724400962
scalar tree_4_3_u01_r9_network.client[14] 	downloads[14] 	12061
scalar tree_4_3_u01_r9_network.client[14] 	avg_time[14] 	0.004277751701
scalar tree_4_3_u01_r9_network.client[15] 	hdistance[15] 	2.8397281843043
scalar tree_4_3_u01_r9_network.client[15] 	downloads[15] 	12067
scalar tree_4_3_u01_r9_network.client[15] 	avg_time[15] 	0.004292386229
scalar tree_4_3_u01_r9_network.client[16] 	hdistance[16] 	2.8267530936948
scalar tree_4_3_u01_r9_network.client[16] 	downloads[16] 	11879
scalar tree_4_3_u01_r9_network.client[16] 	avg_time[16] 	0.004275441061
scalar tree_4_3_u01_r9_network.client[17] 	hdistance[17] 	2.833943123233
scalar tree_4_3_u01_r9_network.client[17] 	downloads[17] 	12026
scalar tree_4_3_u01_r9_network.client[17] 	avg_time[17] 	0.004285286105
scalar tree_4_3_u01_r9_network.client[18] 	hdistance[18] 	2.85657302894
scalar tree_4_3_u01_r9_network.client[18] 	downloads[18] 	11783
scalar tree_4_3_u01_r9_network.client[18] 	avg_time[18] 	0.004317233737
scalar tree_4_3_u01_r9_network.client[19] 	hdistance[19] 	2.8315833683326
scalar tree_4_3_u01_r9_network.client[19] 	downloads[19] 	11905
scalar tree_4_3_u01_r9_network.client[19] 	avg_time[19] 	0.00428139138
scalar tree_4_3_u01_r9_network.client[20] 	hdistance[20] 	2.8334999167083
scalar tree_4_3_u01_r9_network.client[20] 	downloads[20] 	12006
scalar tree_4_3_u01_r9_network.client[20] 	avg_time[20] 	0.004283714924
scalar tree_4_3_u01_r9_network.client[21] 	hdistance[21] 	2.8241339300514
scalar tree_4_3_u01_r9_network.client[21] 	downloads[21] 	12066
scalar tree_4_3_u01_r9_network.client[21] 	avg_time[21] 	0.004268851602
scalar tree_4_3_u01_r9_network.client[22] 	hdistance[22] 	2.8601811082496
scalar tree_4_3_u01_r9_network.client[22] 	downloads[22] 	12037
scalar tree_4_3_u01_r9_network.client[22] 	avg_time[22] 	0.004323499504
scalar tree_4_3_u01_r9_network.client[23] 	hdistance[23] 	2.8180171277997
scalar tree_4_3_u01_r9_network.client[23] 	downloads[23] 	12144
scalar tree_4_3_u01_r9_network.client[23] 	avg_time[23] 	0.004260192577
scalar tree_4_3_u01_r9_network.client[24] 	hdistance[24] 	2.8038234328848
scalar tree_4_3_u01_r9_network.client[24] 	downloads[24] 	12188
scalar tree_4_3_u01_r9_network.client[24] 	avg_time[24] 	0.004238920485
scalar tree_4_3_u01_r9_network.client[25] 	hdistance[25] 	2.8276715039578
scalar tree_4_3_u01_r9_network.client[25] 	downloads[25] 	12128
scalar tree_4_3_u01_r9_network.client[25] 	avg_time[25] 	0.004278031275
scalar tree_4_3_u01_r9_network.client[26] 	hdistance[26] 	2.8357746714656
scalar tree_4_3_u01_r9_network.client[26] 	downloads[26] 	11947
scalar tree_4_3_u01_r9_network.client[26] 	avg_time[26] 	0.004284587269
scalar tree_4_3_u01_r9_network.client[27] 	hdistance[27] 	2.8497495826377
scalar tree_4_3_u01_r9_network.client[27] 	downloads[27] 	11980
scalar tree_4_3_u01_r9_network.client[27] 	avg_time[27] 	0.004309846894
scalar tree_4_3_u01_r9_network.client[28] 	hdistance[28] 	2.8220981584868
scalar tree_4_3_u01_r9_network.client[28] 	downloads[28] 	12001
scalar tree_4_3_u01_r9_network.client[28] 	avg_time[28] 	0.00426847465
scalar tree_4_3_u01_r9_network.client[29] 	hdistance[29] 	2.8426174496644
scalar tree_4_3_u01_r9_network.client[29] 	downloads[29] 	11920
scalar tree_4_3_u01_r9_network.client[29] 	avg_time[29] 	0.004294963474
scalar tree_4_3_u01_r9_network.client[30] 	hdistance[30] 	2.8672529660665
scalar tree_4_3_u01_r9_network.client[30] 	downloads[30] 	12053
scalar tree_4_3_u01_r9_network.client[30] 	avg_time[30] 	0.004337340379
scalar tree_4_3_u01_r9_network.client[31] 	hdistance[31] 	2.8299410152031
scalar tree_4_3_u01_r9_network.client[31] 	downloads[31] 	12037
scalar tree_4_3_u01_r9_network.client[31] 	avg_time[31] 	0.004275979368
scalar tree_4_3_u01_r9_network.client[32] 	hdistance[32] 	2.8197236700587
scalar tree_4_3_u01_r9_network.client[32] 	downloads[32] 	12087
scalar tree_4_3_u01_r9_network.client[32] 	avg_time[32] 	0.00425911833
scalar tree_4_3_u01_r9_network.client[33] 	hdistance[33] 	2.8384685657338
scalar tree_4_3_u01_r9_network.client[33] 	downloads[33] 	12041
scalar tree_4_3_u01_r9_network.client[33] 	avg_time[33] 	0.004285521451
scalar tree_4_3_u01_r9_network.client[34] 	hdistance[34] 	2.8678616090038
scalar tree_4_3_u01_r9_network.client[34] 	downloads[34] 	11995
scalar tree_4_3_u01_r9_network.client[34] 	avg_time[34] 	0.0043357494
scalar tree_4_3_u01_r9_network.client[35] 	hdistance[35] 	2.8305098752169
scalar tree_4_3_u01_r9_network.client[35] 	downloads[35] 	12101
scalar tree_4_3_u01_r9_network.client[35] 	avg_time[35] 	0.004277494717
scalar tree_4_3_u01_r9_network.client[36] 	hdistance[36] 	2.8612207203425
scalar tree_4_3_u01_r9_network.client[36] 	downloads[36] 	11911
scalar tree_4_3_u01_r9_network.client[36] 	avg_time[36] 	0.004324067178
scalar tree_4_3_u01_r9_network.client[37] 	hdistance[37] 	2.8466480683067
scalar tree_4_3_u01_r9_network.client[37] 	downloads[37] 	11829
scalar tree_4_3_u01_r9_network.client[37] 	avg_time[37] 	0.004303657538
scalar tree_4_3_u01_r9_network.client[38] 	hdistance[38] 	2.847061778001
scalar tree_4_3_u01_r9_network.client[38] 	downloads[38] 	11946
scalar tree_4_3_u01_r9_network.client[38] 	avg_time[38] 	0.004305036347
scalar tree_4_3_u01_r9_network.client[39] 	hdistance[39] 	2.7978705706205
scalar tree_4_3_u01_r9_network.client[39] 	downloads[39] 	12022
scalar tree_4_3_u01_r9_network.client[39] 	avg_time[39] 	0.004230075199
