version 2
run General-33-20160820-07:07:11-856
attr a 0.9
attr cd lcd
attr configname General
attr cr lru
attr datetime 20160820-07:07:11
attr experiment General
attr fsize 1
attr inifile hw5115/scenario_A/SPR-LCD.ini
attr iterationvars "$name=tree_4_3, $un=01, $rep=14, $cd=lcd, $cr=lru, $fsize=1, $a=0.9, $sl=spr, $ttl=1000, $variance=0.05"
attr iterationvars2 "$name=tree_4_3, $un=01, $rep=14, $cd=lcd, $cr=lru, $fsize=1, $a=0.9, $sl=spr, $ttl=1000, $variance=0.05, $repetition=0"
attr measurement "$name=tree_4_3, $un=01, $rep=14, $cd=lcd, $cr=lru, $fsize=1, $a=0.9, $sl=spr, $ttl=1000, $variance=0.05"
attr name tree_4_3
attr network networks.${name}_u${un}_r${rep}_network
attr processid 856
attr rep 14
attr repetition 0
attr replication #0
attr resultdir results
attr runnumber 33
attr seedset 14
attr sl spr
attr ttl 1000
attr un 01
attr variance 0.05

scalar . 	a 	0.9
scalar . 	fsize 	1
scalar . 	rep 	14
scalar . 	ttl 	1000
scalar . 	un 	01
scalar . 	variance 	0.05
scalar tree_4_3_u01_r14_network.content_distribution 	repo-0 	0
scalar tree_4_3_u01_r14_network.content_distribution 	client-0 	13
scalar tree_4_3_u01_r14_network.content_distribution 	client-1 	14
scalar tree_4_3_u01_r14_network.content_distribution 	client-2 	15
scalar tree_4_3_u01_r14_network.content_distribution 	client-3 	16
scalar tree_4_3_u01_r14_network.content_distribution 	client-4 	17
scalar tree_4_3_u01_r14_network.content_distribution 	client-5 	18
scalar tree_4_3_u01_r14_network.content_distribution 	client-6 	19
scalar tree_4_3_u01_r14_network.content_distribution 	client-7 	20
scalar tree_4_3_u01_r14_network.content_distribution 	client-8 	21
scalar tree_4_3_u01_r14_network.content_distribution 	client-9 	22
scalar tree_4_3_u01_r14_network.content_distribution 	client-10 	23
scalar tree_4_3_u01_r14_network.content_distribution 	client-11 	24
scalar tree_4_3_u01_r14_network.content_distribution 	client-12 	25
scalar tree_4_3_u01_r14_network.content_distribution 	client-13 	26
scalar tree_4_3_u01_r14_network.content_distribution 	client-14 	27
scalar tree_4_3_u01_r14_network.content_distribution 	client-15 	28
scalar tree_4_3_u01_r14_network.content_distribution 	client-16 	29
scalar tree_4_3_u01_r14_network.content_distribution 	client-17 	30
scalar tree_4_3_u01_r14_network.content_distribution 	client-18 	31
scalar tree_4_3_u01_r14_network.content_distribution 	client-19 	32
scalar tree_4_3_u01_r14_network.content_distribution 	client-20 	33
scalar tree_4_3_u01_r14_network.content_distribution 	client-21 	34
scalar tree_4_3_u01_r14_network.content_distribution 	client-22 	35
scalar tree_4_3_u01_r14_network.content_distribution 	client-23 	36
scalar tree_4_3_u01_r14_network.content_distribution 	client-24 	37
scalar tree_4_3_u01_r14_network.content_distribution 	client-25 	38
scalar tree_4_3_u01_r14_network.content_distribution 	client-26 	39
scalar tree_4_3_u01_r14_network.content_distribution 	repo-0_card 	100000
scalar tree_4_3_u01_r14_network.content_distribution 	repo-0_price 	0
scalar tree_4_3_u01_r14_network.statistics 	stabilization_time 	1056.6
scalar tree_4_3_u01_r14_network.statistics 	p_hit 	0.18761082247996
scalar tree_4_3_u01_r14_network.statistics 	interests 	25417.9
scalar tree_4_3_u01_r14_network.statistics 	data 	17338.975
scalar tree_4_3_u01_r14_network.statistics 	hdistance 	2.8389579693081
scalar tree_4_3_u01_r14_network.statistics 	avg_time 	0.004292503134
scalar tree_4_3_u01_r14_network.statistics 	downloads 	323145
scalar tree_4_3_u01_r14_network.statistics 	total_cost 	0
scalar tree_4_3_u01_r14_network.statistics 	total_replicas 	100000
scalar tree_4_3_u01_r14_network.statistics 	inner_hit 	0.30733881075059
scalar tree_4_3_u01_r14_network.node[0].core_layer 	interests[0] 	226133
scalar tree_4_3_u01_r14_network.node[0].core_layer 	repo_load[0] 	223830
scalar tree_4_3_u01_r14_network.node[0].core_layer 	data[0] 	0
scalar tree_4_3_u01_r14_network.node[0].core_layer 	repo_int[0] 	223830
scalar tree_4_3_u01_r14_network.node[0].content_store 	p_hit[0] 	0.010184272087665
scalar tree_4_3_u01_r14_network.node[0].content_store 	hits[0] 	2303
scalar tree_4_3_u01_r14_network.node[0].content_store 	misses[0] 	223830
scalar tree_4_3_u01_r14_network.node[0].content_store 	decision_yes[0] 	223830
scalar tree_4_3_u01_r14_network.node[0].content_store 	decision_no[0] 	0
scalar tree_4_3_u01_r14_network.node[0].content_store 	decision_ratio[0] 	1
scalar tree_4_3_u01_r14_network.node[1].core_layer 	interests[1] 	76681
scalar tree_4_3_u01_r14_network.node[1].core_layer 	data[1] 	75329
scalar tree_4_3_u01_r14_network.node[1].content_store 	p_hit[1] 	0.01760540420704
scalar tree_4_3_u01_r14_network.node[1].content_store 	hits[1] 	1350
scalar tree_4_3_u01_r14_network.node[1].content_store 	misses[1] 	75331
scalar tree_4_3_u01_r14_network.node[1].content_store 	decision_yes[1] 	807
scalar tree_4_3_u01_r14_network.node[1].content_store 	decision_no[1] 	74522
scalar tree_4_3_u01_r14_network.node[1].content_store 	decision_ratio[1] 	0.010713005615367
scalar tree_4_3_u01_r14_network.node[2].core_layer 	interests[2] 	76889
scalar tree_4_3_u01_r14_network.node[2].core_layer 	data[2] 	75646
scalar tree_4_3_u01_r14_network.node[2].content_store 	p_hit[2] 	0.016153155848041
scalar tree_4_3_u01_r14_network.node[2].content_store 	hits[2] 	1242
scalar tree_4_3_u01_r14_network.node[2].content_store 	misses[2] 	75647
scalar tree_4_3_u01_r14_network.node[2].content_store 	decision_yes[2] 	730
scalar tree_4_3_u01_r14_network.node[2].content_store 	decision_no[2] 	74916
scalar tree_4_3_u01_r14_network.node[2].content_store 	decision_ratio[2] 	0.0096502128334611
scalar tree_4_3_u01_r14_network.node[3].core_layer 	interests[3] 	76497
scalar tree_4_3_u01_r14_network.node[3].core_layer 	data[3] 	75158
scalar tree_4_3_u01_r14_network.node[3].content_store 	p_hit[3] 	0.017464737179236
scalar tree_4_3_u01_r14_network.node[3].content_store 	hits[3] 	1336
scalar tree_4_3_u01_r14_network.node[3].content_store 	misses[3] 	75161
scalar tree_4_3_u01_r14_network.node[3].content_store 	decision_yes[3] 	766
scalar tree_4_3_u01_r14_network.node[3].content_store 	decision_no[3] 	74392
scalar tree_4_3_u01_r14_network.node[3].content_store 	decision_ratio[3] 	0.010191862476383
scalar tree_4_3_u01_r14_network.node[4].core_layer 	interests[4] 	35314
scalar tree_4_3_u01_r14_network.node[4].core_layer 	data[4] 	34240
scalar tree_4_3_u01_r14_network.node[4].content_store 	p_hit[4] 	0.030412867418021
scalar tree_4_3_u01_r14_network.node[4].content_store 	hits[4] 	1074
scalar tree_4_3_u01_r14_network.node[4].content_store 	misses[4] 	34240
scalar tree_4_3_u01_r14_network.node[4].content_store 	decision_yes[4] 	522
scalar tree_4_3_u01_r14_network.node[4].content_store 	decision_no[4] 	33718
scalar tree_4_3_u01_r14_network.node[4].content_store 	decision_ratio[4] 	0.015245327102804
scalar tree_4_3_u01_r14_network.node[5].core_layer 	interests[5] 	26244
scalar tree_4_3_u01_r14_network.node[5].core_layer 	data[5] 	25407
scalar tree_4_3_u01_r14_network.node[5].content_store 	p_hit[5] 	0.031816796220088
scalar tree_4_3_u01_r14_network.node[5].content_store 	hits[5] 	835
scalar tree_4_3_u01_r14_network.node[5].content_store 	misses[5] 	25409
scalar tree_4_3_u01_r14_network.node[5].content_store 	decision_yes[5] 	456
scalar tree_4_3_u01_r14_network.node[5].content_store 	decision_no[5] 	24951
scalar tree_4_3_u01_r14_network.node[5].content_store 	decision_ratio[5] 	0.017947809658755
scalar tree_4_3_u01_r14_network.node[6].core_layer 	interests[6] 	17549
scalar tree_4_3_u01_r14_network.node[6].core_layer 	data[6] 	17034
scalar tree_4_3_u01_r14_network.node[6].content_store 	p_hit[6] 	0.029289418200467
scalar tree_4_3_u01_r14_network.node[6].content_store 	hits[6] 	514
scalar tree_4_3_u01_r14_network.node[6].content_store 	misses[6] 	17035
scalar tree_4_3_u01_r14_network.node[6].content_store 	decision_yes[6] 	372
scalar tree_4_3_u01_r14_network.node[6].content_store 	decision_no[6] 	16662
scalar tree_4_3_u01_r14_network.node[6].content_store 	decision_ratio[6] 	0.021838675589996
scalar tree_4_3_u01_r14_network.node[7].core_layer 	interests[7] 	26563
scalar tree_4_3_u01_r14_network.node[7].core_layer 	data[7] 	25758
scalar tree_4_3_u01_r14_network.node[7].content_store 	p_hit[7] 	0.030305311900011
scalar tree_4_3_u01_r14_network.node[7].content_store 	hits[7] 	805
scalar tree_4_3_u01_r14_network.node[7].content_store 	misses[7] 	25758
scalar tree_4_3_u01_r14_network.node[7].content_store 	decision_yes[7] 	435
scalar tree_4_3_u01_r14_network.node[7].content_store 	decision_no[7] 	25323
scalar tree_4_3_u01_r14_network.node[7].content_store 	decision_ratio[7] 	0.016887957139529
scalar tree_4_3_u01_r14_network.node[8].core_layer 	interests[8] 	35267
scalar tree_4_3_u01_r14_network.node[8].core_layer 	data[8] 	34154
scalar tree_4_3_u01_r14_network.node[8].content_store 	p_hit[8] 	0.031530892902714
scalar tree_4_3_u01_r14_network.node[8].content_store 	hits[8] 	1112
scalar tree_4_3_u01_r14_network.node[8].content_store 	misses[8] 	34155
scalar tree_4_3_u01_r14_network.node[8].content_store 	decision_yes[8] 	467
scalar tree_4_3_u01_r14_network.node[8].content_store 	decision_no[8] 	33687
scalar tree_4_3_u01_r14_network.node[8].content_store 	decision_ratio[8] 	0.013673361831703
scalar tree_4_3_u01_r14_network.node[9].core_layer 	interests[9] 	17490
scalar tree_4_3_u01_r14_network.node[9].core_layer 	data[9] 	16977
scalar tree_4_3_u01_r14_network.node[9].content_store 	p_hit[9] 	0.029331046312178
scalar tree_4_3_u01_r14_network.node[9].content_store 	hits[9] 	513
scalar tree_4_3_u01_r14_network.node[9].content_store 	misses[9] 	16977
scalar tree_4_3_u01_r14_network.node[9].content_store 	decision_yes[9] 	340
scalar tree_4_3_u01_r14_network.node[9].content_store 	decision_no[9] 	16637
scalar tree_4_3_u01_r14_network.node[9].content_store 	decision_ratio[9] 	0.020027095482123
scalar tree_4_3_u01_r14_network.node[10].core_layer 	interests[10] 	26055
scalar tree_4_3_u01_r14_network.node[10].core_layer 	data[10] 	25212
scalar tree_4_3_u01_r14_network.node[10].content_store 	p_hit[10] 	0.032316254077912
scalar tree_4_3_u01_r14_network.node[10].content_store 	hits[10] 	842
scalar tree_4_3_u01_r14_network.node[10].content_store 	misses[10] 	25213
scalar tree_4_3_u01_r14_network.node[10].content_store 	decision_yes[10] 	440
scalar tree_4_3_u01_r14_network.node[10].content_store 	decision_no[10] 	24772
scalar tree_4_3_u01_r14_network.node[10].content_store 	decision_ratio[10] 	0.017452006980803
scalar tree_4_3_u01_r14_network.node[11].core_layer 	interests[11] 	26345
scalar tree_4_3_u01_r14_network.node[11].core_layer 	data[11] 	25536
scalar tree_4_3_u01_r14_network.node[11].content_store 	p_hit[11] 	0.030707914215221
scalar tree_4_3_u01_r14_network.node[11].content_store 	hits[11] 	809
scalar tree_4_3_u01_r14_network.node[11].content_store 	misses[11] 	25536
scalar tree_4_3_u01_r14_network.node[11].content_store 	decision_yes[11] 	443
scalar tree_4_3_u01_r14_network.node[11].content_store 	decision_no[11] 	25093
scalar tree_4_3_u01_r14_network.node[11].content_store 	decision_ratio[11] 	0.01734805764411
scalar tree_4_3_u01_r14_network.node[12].core_layer 	interests[12] 	26535
scalar tree_4_3_u01_r14_network.node[12].core_layer 	data[12] 	25749
scalar tree_4_3_u01_r14_network.node[12].content_store 	p_hit[12] 	0.029621254946297
scalar tree_4_3_u01_r14_network.node[12].content_store 	hits[12] 	786
scalar tree_4_3_u01_r14_network.node[12].content_store 	misses[12] 	25749
scalar tree_4_3_u01_r14_network.node[12].content_store 	decision_yes[12] 	453
scalar tree_4_3_u01_r14_network.node[12].content_store 	decision_no[12] 	25296
scalar tree_4_3_u01_r14_network.node[12].content_store 	decision_ratio[12] 	0.017592916229756
scalar tree_4_3_u01_r14_network.node[13].core_layer 	interests[13] 	12099
scalar tree_4_3_u01_r14_network.node[13].core_layer 	data[13] 	8957
scalar tree_4_3_u01_r14_network.node[13].content_store 	p_hit[13] 	0.25969088354409
scalar tree_4_3_u01_r14_network.node[13].content_store 	hits[13] 	3142
scalar tree_4_3_u01_r14_network.node[13].content_store 	misses[13] 	8957
scalar tree_4_3_u01_r14_network.node[13].content_store 	decision_yes[13] 	256
scalar tree_4_3_u01_r14_network.node[13].content_store 	decision_no[13] 	8701
scalar tree_4_3_u01_r14_network.node[13].content_store 	decision_ratio[13] 	0.028580998102043
scalar tree_4_3_u01_r14_network.node[14].core_layer 	interests[14] 	12022
scalar tree_4_3_u01_r14_network.node[14].core_layer 	data[14] 	8842
scalar tree_4_3_u01_r14_network.node[14].content_store 	p_hit[14] 	0.26451505573116
scalar tree_4_3_u01_r14_network.node[14].content_store 	hits[14] 	3180
scalar tree_4_3_u01_r14_network.node[14].content_store 	misses[14] 	8842
scalar tree_4_3_u01_r14_network.node[14].content_store 	decision_yes[14] 	293
scalar tree_4_3_u01_r14_network.node[14].content_store 	decision_no[14] 	8549
scalar tree_4_3_u01_r14_network.node[14].content_store 	decision_ratio[14] 	0.033137299253563
scalar tree_4_3_u01_r14_network.node[15].core_layer 	interests[15] 	11993
scalar tree_4_3_u01_r14_network.node[15].core_layer 	data[15] 	8796
scalar tree_4_3_u01_r14_network.node[15].content_store 	p_hit[15] 	0.26657216709747
scalar tree_4_3_u01_r14_network.node[15].content_store 	hits[15] 	3197
scalar tree_4_3_u01_r14_network.node[15].content_store 	misses[15] 	8796
scalar tree_4_3_u01_r14_network.node[15].content_store 	decision_yes[15] 	252
scalar tree_4_3_u01_r14_network.node[15].content_store 	decision_no[15] 	8544
scalar tree_4_3_u01_r14_network.node[15].content_store 	decision_ratio[15] 	0.028649386084584
scalar tree_4_3_u01_r14_network.node[16].core_layer 	interests[16] 	11961
scalar tree_4_3_u01_r14_network.node[16].core_layer 	data[16] 	8792
scalar tree_4_3_u01_r14_network.node[16].content_store 	p_hit[16] 	0.26486079759217
scalar tree_4_3_u01_r14_network.node[16].content_store 	hits[16] 	3168
scalar tree_4_3_u01_r14_network.node[16].content_store 	misses[16] 	8793
scalar tree_4_3_u01_r14_network.node[16].content_store 	decision_yes[16] 	285
scalar tree_4_3_u01_r14_network.node[16].content_store 	decision_no[16] 	8507
scalar tree_4_3_u01_r14_network.node[16].content_store 	decision_ratio[16] 	0.032415832575068
scalar tree_4_3_u01_r14_network.node[17].core_layer 	interests[17] 	11959
scalar tree_4_3_u01_r14_network.node[17].core_layer 	data[17] 	8722
scalar tree_4_3_u01_r14_network.node[17].content_store 	p_hit[17] 	0.27059118655406
scalar tree_4_3_u01_r14_network.node[17].content_store 	hits[17] 	3236
scalar tree_4_3_u01_r14_network.node[17].content_store 	misses[17] 	8723
scalar tree_4_3_u01_r14_network.node[17].content_store 	decision_yes[17] 	273
scalar tree_4_3_u01_r14_network.node[17].content_store 	decision_no[17] 	8449
scalar tree_4_3_u01_r14_network.node[17].content_store 	decision_ratio[17] 	0.031300160513644
scalar tree_4_3_u01_r14_network.node[18].core_layer 	interests[18] 	11962
scalar tree_4_3_u01_r14_network.node[18].core_layer 	data[18] 	8729
scalar tree_4_3_u01_r14_network.node[18].content_store 	p_hit[18] 	0.27027252967731
scalar tree_4_3_u01_r14_network.node[18].content_store 	hits[18] 	3233
scalar tree_4_3_u01_r14_network.node[18].content_store 	misses[18] 	8729
scalar tree_4_3_u01_r14_network.node[18].content_store 	decision_yes[18] 	277
scalar tree_4_3_u01_r14_network.node[18].content_store 	decision_no[18] 	8452
scalar tree_4_3_u01_r14_network.node[18].content_store 	decision_ratio[18] 	0.031733302783824
scalar tree_4_3_u01_r14_network.node[19].core_layer 	interests[19] 	11897
scalar tree_4_3_u01_r14_network.node[19].core_layer 	data[19] 	8719
scalar tree_4_3_u01_r14_network.node[19].content_store 	p_hit[19] 	0.2671261662604
scalar tree_4_3_u01_r14_network.node[19].content_store 	hits[19] 	3178
scalar tree_4_3_u01_r14_network.node[19].content_store 	misses[19] 	8719
scalar tree_4_3_u01_r14_network.node[19].content_store 	decision_yes[19] 	273
scalar tree_4_3_u01_r14_network.node[19].content_store 	decision_no[19] 	8446
scalar tree_4_3_u01_r14_network.node[19].content_store 	decision_ratio[19] 	0.03131093015254
scalar tree_4_3_u01_r14_network.node[20].core_layer 	interests[20] 	11873
scalar tree_4_3_u01_r14_network.node[20].core_layer 	data[20] 	8748
scalar tree_4_3_u01_r14_network.node[20].content_store 	p_hit[20] 	0.26311799882085
scalar tree_4_3_u01_r14_network.node[20].content_store 	hits[20] 	3124
scalar tree_4_3_u01_r14_network.node[20].content_store 	misses[20] 	8749
scalar tree_4_3_u01_r14_network.node[20].content_store 	decision_yes[20] 	272
scalar tree_4_3_u01_r14_network.node[20].content_store 	decision_no[20] 	8476
scalar tree_4_3_u01_r14_network.node[20].content_store 	decision_ratio[20] 	0.031092821216278
scalar tree_4_3_u01_r14_network.node[21].core_layer 	interests[21] 	12070
scalar tree_4_3_u01_r14_network.node[21].core_layer 	data[21] 	8799
scalar tree_4_3_u01_r14_network.node[21].content_store 	p_hit[21] 	0.27083678541839
scalar tree_4_3_u01_r14_network.node[21].content_store 	hits[21] 	3269
scalar tree_4_3_u01_r14_network.node[21].content_store 	misses[21] 	8801
scalar tree_4_3_u01_r14_network.node[21].content_store 	decision_yes[21] 	242
scalar tree_4_3_u01_r14_network.node[21].content_store 	decision_no[21] 	8557
scalar tree_4_3_u01_r14_network.node[21].content_store 	decision_ratio[21] 	0.027503125355154
scalar tree_4_3_u01_r14_network.node[22].core_layer 	interests[22] 	12088
scalar tree_4_3_u01_r14_network.node[22].core_layer 	data[22] 	8863
scalar tree_4_3_u01_r14_network.node[22].content_store 	p_hit[22] 	0.26679351422899
scalar tree_4_3_u01_r14_network.node[22].content_store 	hits[22] 	3225
scalar tree_4_3_u01_r14_network.node[22].content_store 	misses[22] 	8863
scalar tree_4_3_u01_r14_network.node[22].content_store 	decision_yes[22] 	269
scalar tree_4_3_u01_r14_network.node[22].content_store 	decision_no[22] 	8594
scalar tree_4_3_u01_r14_network.node[22].content_store 	decision_ratio[22] 	0.030350896987476
scalar tree_4_3_u01_r14_network.node[23].core_layer 	interests[23] 	12079
scalar tree_4_3_u01_r14_network.node[23].core_layer 	data[23] 	8855
scalar tree_4_3_u01_r14_network.node[23].content_store 	p_hit[23] 	0.26682672406656
scalar tree_4_3_u01_r14_network.node[23].content_store 	hits[23] 	3223
scalar tree_4_3_u01_r14_network.node[23].content_store 	misses[23] 	8856
scalar tree_4_3_u01_r14_network.node[23].content_store 	decision_yes[23] 	249
scalar tree_4_3_u01_r14_network.node[23].content_store 	decision_no[23] 	8606
scalar tree_4_3_u01_r14_network.node[23].content_store 	decision_ratio[23] 	0.028119706380576
scalar tree_4_3_u01_r14_network.node[24].core_layer 	interests[24] 	12017
scalar tree_4_3_u01_r14_network.node[24].core_layer 	data[24] 	8845
scalar tree_4_3_u01_r14_network.node[24].content_store 	p_hit[24] 	0.26387617541816
scalar tree_4_3_u01_r14_network.node[24].content_store 	hits[24] 	3171
scalar tree_4_3_u01_r14_network.node[24].content_store 	misses[24] 	8846
scalar tree_4_3_u01_r14_network.node[24].content_store 	decision_yes[24] 	287
scalar tree_4_3_u01_r14_network.node[24].content_store 	decision_no[24] 	8558
scalar tree_4_3_u01_r14_network.node[24].content_store 	decision_ratio[24] 	0.032447710570944
scalar tree_4_3_u01_r14_network.node[25].core_layer 	interests[25] 	12029
scalar tree_4_3_u01_r14_network.node[25].core_layer 	data[25] 	8859
scalar tree_4_3_u01_r14_network.node[25].content_store 	p_hit[25] 	0.26352980297614
scalar tree_4_3_u01_r14_network.node[25].content_store 	hits[25] 	3170
scalar tree_4_3_u01_r14_network.node[25].content_store 	misses[25] 	8859
scalar tree_4_3_u01_r14_network.node[25].content_store 	decision_yes[25] 	261
scalar tree_4_3_u01_r14_network.node[25].content_store 	decision_no[25] 	8598
scalar tree_4_3_u01_r14_network.node[25].content_store 	decision_ratio[25] 	0.029461564510667
scalar tree_4_3_u01_r14_network.node[26].core_layer 	interests[26] 	11864
scalar tree_4_3_u01_r14_network.node[26].core_layer 	data[26] 	8685
scalar tree_4_3_u01_r14_network.node[26].content_store 	p_hit[26] 	0.26795347269049
scalar tree_4_3_u01_r14_network.node[26].content_store 	hits[26] 	3179
scalar tree_4_3_u01_r14_network.node[26].content_store 	misses[26] 	8685
scalar tree_4_3_u01_r14_network.node[26].content_store 	decision_yes[26] 	291
scalar tree_4_3_u01_r14_network.node[26].content_store 	decision_no[26] 	8394
scalar tree_4_3_u01_r14_network.node[26].content_store 	decision_ratio[26] 	0.033506044905009
scalar tree_4_3_u01_r14_network.node[27].core_layer 	interests[27] 	12006
scalar tree_4_3_u01_r14_network.node[27].core_layer 	data[27] 	8859
scalar tree_4_3_u01_r14_network.node[27].content_store 	p_hit[27] 	0.26211894052974
scalar tree_4_3_u01_r14_network.node[27].content_store 	hits[27] 	3147
scalar tree_4_3_u01_r14_network.node[27].content_store 	misses[27] 	8859
scalar tree_4_3_u01_r14_network.node[27].content_store 	decision_yes[27] 	280
scalar tree_4_3_u01_r14_network.node[27].content_store 	decision_no[27] 	8579
scalar tree_4_3_u01_r14_network.node[27].content_store 	decision_ratio[27] 	0.031606276103398
scalar tree_4_3_u01_r14_network.node[28].core_layer 	interests[28] 	11887
scalar tree_4_3_u01_r14_network.node[28].core_layer 	data[28] 	8789
scalar tree_4_3_u01_r14_network.node[28].content_store 	p_hit[28] 	0.26062084630268
scalar tree_4_3_u01_r14_network.node[28].content_store 	hits[28] 	3098
scalar tree_4_3_u01_r14_network.node[28].content_store 	misses[28] 	8789
scalar tree_4_3_u01_r14_network.node[28].content_store 	decision_yes[28] 	279
scalar tree_4_3_u01_r14_network.node[28].content_store 	decision_no[28] 	8510
scalar tree_4_3_u01_r14_network.node[28].content_store 	decision_ratio[28] 	0.031744225736716
scalar tree_4_3_u01_r14_network.node[29].core_layer 	interests[29] 	12089
scalar tree_4_3_u01_r14_network.node[29].core_layer 	data[29] 	8864
scalar tree_4_3_u01_r14_network.node[29].content_store 	p_hit[29] 	0.26677144511539
scalar tree_4_3_u01_r14_network.node[29].content_store 	hits[29] 	3225
scalar tree_4_3_u01_r14_network.node[29].content_store 	misses[29] 	8864
scalar tree_4_3_u01_r14_network.node[29].content_store 	decision_yes[29] 	280
scalar tree_4_3_u01_r14_network.node[29].content_store 	decision_no[29] 	8584
scalar tree_4_3_u01_r14_network.node[29].content_store 	decision_ratio[29] 	0.03158844765343
scalar tree_4_3_u01_r14_network.node[30].core_layer 	interests[30] 	11946
scalar tree_4_3_u01_r14_network.node[30].core_layer 	data[30] 	8701
scalar tree_4_3_u01_r14_network.node[30].content_store 	p_hit[30] 	0.27163904235727
scalar tree_4_3_u01_r14_network.node[30].content_store 	hits[30] 	3245
scalar tree_4_3_u01_r14_network.node[30].content_store 	misses[30] 	8701
scalar tree_4_3_u01_r14_network.node[30].content_store 	decision_yes[30] 	234
scalar tree_4_3_u01_r14_network.node[30].content_store 	decision_no[30] 	8467
scalar tree_4_3_u01_r14_network.node[30].content_store 	decision_ratio[30] 	0.026893460521779
scalar tree_4_3_u01_r14_network.node[31].core_layer 	interests[31] 	11807
scalar tree_4_3_u01_r14_network.node[31].core_layer 	data[31] 	8575
scalar tree_4_3_u01_r14_network.node[31].content_store 	p_hit[31] 	0.27356652833065
scalar tree_4_3_u01_r14_network.node[31].content_store 	hits[31] 	3230
scalar tree_4_3_u01_r14_network.node[31].content_store 	misses[31] 	8577
scalar tree_4_3_u01_r14_network.node[31].content_store 	decision_yes[31] 	265
scalar tree_4_3_u01_r14_network.node[31].content_store 	decision_no[31] 	8310
scalar tree_4_3_u01_r14_network.node[31].content_store 	decision_ratio[31] 	0.030903790087464
scalar tree_4_3_u01_r14_network.node[32].core_layer 	interests[32] 	11878
scalar tree_4_3_u01_r14_network.node[32].core_layer 	data[32] 	8799
scalar tree_4_3_u01_r14_network.node[32].content_store 	p_hit[32] 	0.25921872369086
scalar tree_4_3_u01_r14_network.node[32].content_store 	hits[32] 	3079
scalar tree_4_3_u01_r14_network.node[32].content_store 	misses[32] 	8799
scalar tree_4_3_u01_r14_network.node[32].content_store 	decision_yes[32] 	294
scalar tree_4_3_u01_r14_network.node[32].content_store 	decision_no[32] 	8505
scalar tree_4_3_u01_r14_network.node[32].content_store 	decision_ratio[32] 	0.033412887828162
scalar tree_4_3_u01_r14_network.node[33].core_layer 	interests[33] 	11885
scalar tree_4_3_u01_r14_network.node[33].core_layer 	data[33] 	8681
scalar tree_4_3_u01_r14_network.node[33].content_store 	p_hit[33] 	0.26958350862432
scalar tree_4_3_u01_r14_network.node[33].content_store 	hits[33] 	3204
scalar tree_4_3_u01_r14_network.node[33].content_store 	misses[33] 	8681
scalar tree_4_3_u01_r14_network.node[33].content_store 	decision_yes[33] 	283
scalar tree_4_3_u01_r14_network.node[33].content_store 	decision_no[33] 	8398
scalar tree_4_3_u01_r14_network.node[33].content_store 	decision_ratio[33] 	0.032599930883539
scalar tree_4_3_u01_r14_network.node[34].core_layer 	interests[34] 	11957
scalar tree_4_3_u01_r14_network.node[34].core_layer 	data[34] 	8752
scalar tree_4_3_u01_r14_network.node[34].content_store 	p_hit[34] 	0.2680438237016
scalar tree_4_3_u01_r14_network.node[34].content_store 	hits[34] 	3205
scalar tree_4_3_u01_r14_network.node[34].content_store 	misses[34] 	8752
scalar tree_4_3_u01_r14_network.node[34].content_store 	decision_yes[34] 	252
scalar tree_4_3_u01_r14_network.node[34].content_store 	decision_no[34] 	8500
scalar tree_4_3_u01_r14_network.node[34].content_store 	decision_ratio[34] 	0.028793418647166
scalar tree_4_3_u01_r14_network.node[35].core_layer 	interests[35] 	12040
scalar tree_4_3_u01_r14_network.node[35].core_layer 	data[35] 	8880
scalar tree_4_3_u01_r14_network.node[35].content_store 	p_hit[35] 	0.2624584717608
scalar tree_4_3_u01_r14_network.node[35].content_store 	hits[35] 	3160
scalar tree_4_3_u01_r14_network.node[35].content_store 	misses[35] 	8880
scalar tree_4_3_u01_r14_network.node[35].content_store 	decision_yes[35] 	287
scalar tree_4_3_u01_r14_network.node[35].content_store 	decision_no[35] 	8593
scalar tree_4_3_u01_r14_network.node[35].content_store 	decision_ratio[35] 	0.03231981981982
scalar tree_4_3_u01_r14_network.node[36].core_layer 	interests[36] 	11880
scalar tree_4_3_u01_r14_network.node[36].core_layer 	data[36] 	8713
scalar tree_4_3_u01_r14_network.node[36].content_store 	p_hit[36] 	0.26658249158249
scalar tree_4_3_u01_r14_network.node[36].content_store 	hits[36] 	3167
scalar tree_4_3_u01_r14_network.node[36].content_store 	misses[36] 	8713
scalar tree_4_3_u01_r14_network.node[36].content_store 	decision_yes[36] 	270
scalar tree_4_3_u01_r14_network.node[36].content_store 	decision_no[36] 	8443
scalar tree_4_3_u01_r14_network.node[36].content_store 	decision_ratio[36] 	0.030988178583725
scalar tree_4_3_u01_r14_network.node[37].core_layer 	interests[37] 	11868
scalar tree_4_3_u01_r14_network.node[37].core_layer 	data[37] 	8745
scalar tree_4_3_u01_r14_network.node[37].content_store 	p_hit[37] 	0.26314459049545
scalar tree_4_3_u01_r14_network.node[37].content_store 	hits[37] 	3123
scalar tree_4_3_u01_r14_network.node[37].content_store 	misses[37] 	8745
scalar tree_4_3_u01_r14_network.node[37].content_store 	decision_yes[37] 	262
scalar tree_4_3_u01_r14_network.node[37].content_store 	decision_no[37] 	8483
scalar tree_4_3_u01_r14_network.node[37].content_store 	decision_ratio[37] 	0.029959977129788
scalar tree_4_3_u01_r14_network.node[38].core_layer 	interests[38] 	12007
scalar tree_4_3_u01_r14_network.node[38].core_layer 	data[38] 	8950
scalar tree_4_3_u01_r14_network.node[38].content_store 	p_hit[38] 	0.25460148246856
scalar tree_4_3_u01_r14_network.node[38].content_store 	hits[38] 	3057
scalar tree_4_3_u01_r14_network.node[38].content_store 	misses[38] 	8950
scalar tree_4_3_u01_r14_network.node[38].content_store 	decision_yes[38] 	267
scalar tree_4_3_u01_r14_network.node[38].content_store 	decision_no[38] 	8683
scalar tree_4_3_u01_r14_network.node[38].content_store 	decision_ratio[38] 	0.029832402234637
scalar tree_4_3_u01_r14_network.node[39].core_layer 	interests[39] 	11991
scalar tree_4_3_u01_r14_network.node[39].core_layer 	data[39] 	8840
scalar tree_4_3_u01_r14_network.node[39].content_store 	p_hit[39] 	0.26278041864732
scalar tree_4_3_u01_r14_network.node[39].content_store 	hits[39] 	3151
scalar tree_4_3_u01_r14_network.node[39].content_store 	misses[39] 	8840
scalar tree_4_3_u01_r14_network.node[39].content_store 	decision_yes[39] 	257
scalar tree_4_3_u01_r14_network.node[39].content_store 	decision_no[39] 	8583
scalar tree_4_3_u01_r14_network.node[39].content_store 	decision_ratio[39] 	0.029072398190045
scalar tree_4_3_u01_r14_network.client[13] 	hdistance[13] 	2.8694106950988
scalar tree_4_3_u01_r14_network.client[13] 	downloads[13] 	12099
scalar tree_4_3_u01_r14_network.client[13] 	avg_time[13] 	0.004336719029
scalar tree_4_3_u01_r14_network.client[14] 	hdistance[14] 	2.8392114456829
scalar tree_4_3_u01_r14_network.client[14] 	downloads[14] 	12022
scalar tree_4_3_u01_r14_network.client[14] 	avg_time[14] 	0.004293126273
scalar tree_4_3_u01_r14_network.client[15] 	hdistance[15] 	2.8389060285166
scalar tree_4_3_u01_r14_network.client[15] 	downloads[15] 	11993
scalar tree_4_3_u01_r14_network.client[15] 	avg_time[15] 	0.004294668871
scalar tree_4_3_u01_r14_network.client[16] 	hdistance[16] 	2.8348662207358
scalar tree_4_3_u01_r14_network.client[16] 	downloads[16] 	11960
scalar tree_4_3_u01_r14_network.client[16] 	avg_time[16] 	0.004288291296
scalar tree_4_3_u01_r14_network.client[17] 	hdistance[17] 	2.8161899983275
scalar tree_4_3_u01_r14_network.client[17] 	downloads[17] 	11958
scalar tree_4_3_u01_r14_network.client[17] 	avg_time[17] 	0.00426014987
scalar tree_4_3_u01_r14_network.client[18] 	hdistance[18] 	2.8189266009029
scalar tree_4_3_u01_r14_network.client[18] 	downloads[18] 	11962
scalar tree_4_3_u01_r14_network.client[18] 	avg_time[18] 	0.004261324564
scalar tree_4_3_u01_r14_network.client[19] 	hdistance[19] 	2.8329831049845
scalar tree_4_3_u01_r14_network.client[19] 	downloads[19] 	11897
scalar tree_4_3_u01_r14_network.client[19] 	avg_time[19] 	0.004283093625
scalar tree_4_3_u01_r14_network.client[20] 	hdistance[20] 	2.8381907008086
scalar tree_4_3_u01_r14_network.client[20] 	downloads[20] 	11872
scalar tree_4_3_u01_r14_network.client[20] 	avg_time[20] 	0.004296609518
scalar tree_4_3_u01_r14_network.client[21] 	hdistance[21] 	2.8209313887968
scalar tree_4_3_u01_r14_network.client[21] 	downloads[21] 	12068
scalar tree_4_3_u01_r14_network.client[21] 	avg_time[21] 	0.004265319856
scalar tree_4_3_u01_r14_network.client[22] 	hdistance[22] 	2.8342984778293
scalar tree_4_3_u01_r14_network.client[22] 	downloads[22] 	12088
scalar tree_4_3_u01_r14_network.client[22] 	avg_time[22] 	0.004285403986
scalar tree_4_3_u01_r14_network.client[23] 	hdistance[23] 	2.8398741513496
scalar tree_4_3_u01_r14_network.client[23] 	downloads[23] 	12078
scalar tree_4_3_u01_r14_network.client[23] 	avg_time[23] 	0.004292033206
scalar tree_4_3_u01_r14_network.client[24] 	hdistance[24] 	2.8420439414114
scalar tree_4_3_u01_r14_network.client[24] 	downloads[24] 	12016
scalar tree_4_3_u01_r14_network.client[24] 	avg_time[24] 	0.004297754194
scalar tree_4_3_u01_r14_network.client[25] 	hdistance[25] 	2.8521074070995
scalar tree_4_3_u01_r14_network.client[25] 	downloads[25] 	12029
scalar tree_4_3_u01_r14_network.client[25] 	avg_time[25] 	0.00431008095
scalar tree_4_3_u01_r14_network.client[26] 	hdistance[26] 	2.8301584625759
scalar tree_4_3_u01_r14_network.client[26] 	downloads[26] 	11864
scalar tree_4_3_u01_r14_network.client[26] 	avg_time[26] 	0.00427713794
scalar tree_4_3_u01_r14_network.client[27] 	hdistance[27] 	2.856238547393
scalar tree_4_3_u01_r14_network.client[27] 	downloads[27] 	12006
scalar tree_4_3_u01_r14_network.client[27] 	avg_time[27] 	0.004314506385
scalar tree_4_3_u01_r14_network.client[28] 	hdistance[28] 	2.8513502145201
scalar tree_4_3_u01_r14_network.client[28] 	downloads[28] 	11887
scalar tree_4_3_u01_r14_network.client[28] 	avg_time[28] 	0.004313616932
scalar tree_4_3_u01_r14_network.client[29] 	hdistance[29] 	2.8372073786086
scalar tree_4_3_u01_r14_network.client[29] 	downloads[29] 	12089
scalar tree_4_3_u01_r14_network.client[29] 	avg_time[29] 	0.004287086918
scalar tree_4_3_u01_r14_network.client[30] 	hdistance[30] 	2.8206094090072
scalar tree_4_3_u01_r14_network.client[30] 	downloads[30] 	11946
scalar tree_4_3_u01_r14_network.client[30] 	avg_time[30] 	0.00426349297
scalar tree_4_3_u01_r14_network.client[31] 	hdistance[31] 	2.8094027954257
scalar tree_4_3_u01_r14_network.client[31] 	downloads[31] 	11805
scalar tree_4_3_u01_r14_network.client[31] 	avg_time[31] 	0.004245494313
scalar tree_4_3_u01_r14_network.client[32] 	hdistance[32] 	2.8546051523826
scalar tree_4_3_u01_r14_network.client[32] 	downloads[32] 	11878
scalar tree_4_3_u01_r14_network.client[32] 	avg_time[32] 	0.004318309295
scalar tree_4_3_u01_r14_network.client[33] 	hdistance[33] 	2.8188472864956
scalar tree_4_3_u01_r14_network.client[33] 	downloads[33] 	11885
scalar tree_4_3_u01_r14_network.client[33] 	avg_time[33] 	0.004262700896
scalar tree_4_3_u01_r14_network.client[34] 	hdistance[34] 	2.8357447520281
scalar tree_4_3_u01_r14_network.client[34] 	downloads[34] 	11957
scalar tree_4_3_u01_r14_network.client[34] 	avg_time[34] 	0.004285185579
scalar tree_4_3_u01_r14_network.client[35] 	hdistance[35] 	2.8477574750831
scalar tree_4_3_u01_r14_network.client[35] 	downloads[35] 	12040
scalar tree_4_3_u01_r14_network.client[35] 	avg_time[35] 	0.00430647539
scalar tree_4_3_u01_r14_network.client[36] 	hdistance[36] 	2.8291245791246
scalar tree_4_3_u01_r14_network.client[36] 	downloads[36] 	11880
scalar tree_4_3_u01_r14_network.client[36] 	avg_time[36] 	0.004281085333
scalar tree_4_3_u01_r14_network.client[37] 	hdistance[37] 	2.8489214694978
scalar tree_4_3_u01_r14_network.client[37] 	downloads[37] 	11868
scalar tree_4_3_u01_r14_network.client[37] 	avg_time[37] 	0.004307397843
scalar tree_4_3_u01_r14_network.client[38] 	hdistance[38] 	2.8822353627051
scalar tree_4_3_u01_r14_network.client[38] 	downloads[38] 	12007
scalar tree_4_3_u01_r14_network.client[38] 	avg_time[38] 	0.004357954868
scalar tree_4_3_u01_r14_network.client[39] 	hdistance[39] 	2.851722124927
scalar tree_4_3_u01_r14_network.client[39] 	downloads[39] 	11991
scalar tree_4_3_u01_r14_network.client[39] 	avg_time[39] 	0.004312564733
