version 2
run General-22-20160820-06:55:08-856
attr a 0.9
attr cd lcd
attr configname General
attr cr lru
attr datetime 20160820-06:55:08
attr experiment General
attr fsize 1
attr inifile hw5115/scenario_A/SPR-LCD.ini
attr iterationvars "$name=tree_4_3, $un=01, $rep=3, $cd=lcd, $cr=lru, $fsize=1, $a=0.9, $sl=spr, $ttl=1000, $variance=0.05"
attr iterationvars2 "$name=tree_4_3, $un=01, $rep=3, $cd=lcd, $cr=lru, $fsize=1, $a=0.9, $sl=spr, $ttl=1000, $variance=0.05, $repetition=0"
attr measurement "$name=tree_4_3, $un=01, $rep=3, $cd=lcd, $cr=lru, $fsize=1, $a=0.9, $sl=spr, $ttl=1000, $variance=0.05"
attr name tree_4_3
attr network networks.${name}_u${un}_r${rep}_network
attr processid 856
attr rep 3
attr repetition 0
attr replication #0
attr resultdir results
attr runnumber 22
attr seedset 3
attr sl spr
attr ttl 1000
attr un 01
attr variance 0.05

scalar . 	a 	0.9
scalar . 	fsize 	1
scalar . 	rep 	3
scalar . 	ttl 	1000
scalar . 	un 	01
scalar . 	variance 	0.05
scalar tree_4_3_u01_r3_network.content_distribution 	repo-0 	0
scalar tree_4_3_u01_r3_network.content_distribution 	client-0 	13
scalar tree_4_3_u01_r3_network.content_distribution 	client-1 	14
scalar tree_4_3_u01_r3_network.content_distribution 	client-2 	15
scalar tree_4_3_u01_r3_network.content_distribution 	client-3 	16
scalar tree_4_3_u01_r3_network.content_distribution 	client-4 	17
scalar tree_4_3_u01_r3_network.content_distribution 	client-5 	18
scalar tree_4_3_u01_r3_network.content_distribution 	client-6 	19
scalar tree_4_3_u01_r3_network.content_distribution 	client-7 	20
scalar tree_4_3_u01_r3_network.content_distribution 	client-8 	21
scalar tree_4_3_u01_r3_network.content_distribution 	client-9 	22
scalar tree_4_3_u01_r3_network.content_distribution 	client-10 	23
scalar tree_4_3_u01_r3_network.content_distribution 	client-11 	24
scalar tree_4_3_u01_r3_network.content_distribution 	client-12 	25
scalar tree_4_3_u01_r3_network.content_distribution 	client-13 	26
scalar tree_4_3_u01_r3_network.content_distribution 	client-14 	27
scalar tree_4_3_u01_r3_network.content_distribution 	client-15 	28
scalar tree_4_3_u01_r3_network.content_distribution 	client-16 	29
scalar tree_4_3_u01_r3_network.content_distribution 	client-17 	30
scalar tree_4_3_u01_r3_network.content_distribution 	client-18 	31
scalar tree_4_3_u01_r3_network.content_distribution 	client-19 	32
scalar tree_4_3_u01_r3_network.content_distribution 	client-20 	33
scalar tree_4_3_u01_r3_network.content_distribution 	client-21 	34
scalar tree_4_3_u01_r3_network.content_distribution 	client-22 	35
scalar tree_4_3_u01_r3_network.content_distribution 	client-23 	36
scalar tree_4_3_u01_r3_network.content_distribution 	client-24 	37
scalar tree_4_3_u01_r3_network.content_distribution 	client-25 	38
scalar tree_4_3_u01_r3_network.content_distribution 	client-26 	39
scalar tree_4_3_u01_r3_network.content_distribution 	repo-0_card 	100000
scalar tree_4_3_u01_r3_network.content_distribution 	repo-0_price 	0
scalar tree_4_3_u01_r3_network.statistics 	stabilization_time 	931.3
scalar tree_4_3_u01_r3_network.statistics 	p_hit 	0.18783731161123
scalar tree_4_3_u01_r3_network.statistics 	interests 	25484.7
scalar tree_4_3_u01_r3_network.statistics 	data 	17380.575
scalar tree_4_3_u01_r3_network.statistics 	hdistance 	2.8369088532434
scalar tree_4_3_u01_r3_network.statistics 	avg_time 	0.004289525853
scalar tree_4_3_u01_r3_network.statistics 	downloads 	324158
scalar tree_4_3_u01_r3_network.statistics 	total_cost 	0
scalar tree_4_3_u01_r3_network.statistics 	total_replicas 	100000
scalar tree_4_3_u01_r3_network.statistics 	inner_hit 	0.30792699856243
scalar tree_4_3_u01_r3_network.node[0].core_layer 	interests[0] 	226585
scalar tree_4_3_u01_r3_network.node[0].core_layer 	repo_load[0] 	224341
scalar tree_4_3_u01_r3_network.node[0].core_layer 	data[0] 	0
scalar tree_4_3_u01_r3_network.node[0].core_layer 	repo_int[0] 	224341
scalar tree_4_3_u01_r3_network.node[0].content_store 	p_hit[0] 	0.0099035681973652
scalar tree_4_3_u01_r3_network.node[0].content_store 	hits[0] 	2244
scalar tree_4_3_u01_r3_network.node[0].content_store 	misses[0] 	224341
scalar tree_4_3_u01_r3_network.node[0].content_store 	decision_yes[0] 	224341
scalar tree_4_3_u01_r3_network.node[0].content_store 	decision_no[0] 	0
scalar tree_4_3_u01_r3_network.node[0].content_store 	decision_ratio[0] 	1
scalar tree_4_3_u01_r3_network.node[1].core_layer 	interests[1] 	77042
scalar tree_4_3_u01_r3_network.node[1].core_layer 	data[1] 	75698
scalar tree_4_3_u01_r3_network.node[1].content_store 	p_hit[1] 	0.017419070117598
scalar tree_4_3_u01_r3_network.node[1].content_store 	hits[1] 	1342
scalar tree_4_3_u01_r3_network.node[1].content_store 	misses[1] 	75700
scalar tree_4_3_u01_r3_network.node[1].content_store 	decision_yes[1] 	735
scalar tree_4_3_u01_r3_network.node[1].content_store 	decision_no[1] 	74963
scalar tree_4_3_u01_r3_network.node[1].content_store 	decision_ratio[1] 	0.009709635657481
scalar tree_4_3_u01_r3_network.node[2].core_layer 	interests[2] 	102058
scalar tree_4_3_u01_r3_network.node[2].core_layer 	data[2] 	100089
scalar tree_4_3_u01_r3_network.node[2].content_store 	p_hit[2] 	0.019273354367125
scalar tree_4_3_u01_r3_network.node[2].content_store 	hits[2] 	1967
scalar tree_4_3_u01_r3_network.node[2].content_store 	misses[2] 	100091
scalar tree_4_3_u01_r3_network.node[2].content_store 	decision_yes[2] 	1001
scalar tree_4_3_u01_r3_network.node[2].content_store 	decision_no[2] 	99088
scalar tree_4_3_u01_r3_network.node[2].content_store 	decision_ratio[2] 	0.010001099021871
scalar tree_4_3_u01_r3_network.node[3].core_layer 	interests[3] 	51510
scalar tree_4_3_u01_r3_network.node[3].core_layer 	data[3] 	50798
scalar tree_4_3_u01_r3_network.node[3].content_store 	p_hit[3] 	0.013803145020384
scalar tree_4_3_u01_r3_network.node[3].content_store 	hits[3] 	711
scalar tree_4_3_u01_r3_network.node[3].content_store 	misses[3] 	50799
scalar tree_4_3_u01_r3_network.node[3].content_store 	decision_yes[3] 	508
scalar tree_4_3_u01_r3_network.node[3].content_store 	decision_no[3] 	50290
scalar tree_4_3_u01_r3_network.node[3].content_store 	decision_ratio[3] 	0.010000393716288
scalar tree_4_3_u01_r3_network.node[4].core_layer 	interests[4] 	26538
scalar tree_4_3_u01_r3_network.node[4].core_layer 	data[4] 	25744
scalar tree_4_3_u01_r3_network.node[4].content_store 	p_hit[4] 	0.029919360916422
scalar tree_4_3_u01_r3_network.node[4].content_store 	hits[4] 	794
scalar tree_4_3_u01_r3_network.node[4].content_store 	misses[4] 	25744
scalar tree_4_3_u01_r3_network.node[4].content_store 	decision_yes[4] 	437
scalar tree_4_3_u01_r3_network.node[4].content_store 	decision_no[4] 	25307
scalar tree_4_3_u01_r3_network.node[4].content_store 	decision_ratio[4] 	0.016974829086389
scalar tree_4_3_u01_r3_network.node[5].core_layer 	interests[5] 	26497
scalar tree_4_3_u01_r3_network.node[5].core_layer 	data[5] 	25660
scalar tree_4_3_u01_r3_network.node[5].content_store 	p_hit[5] 	0.031588481714911
scalar tree_4_3_u01_r3_network.node[5].content_store 	hits[5] 	837
scalar tree_4_3_u01_r3_network.node[5].content_store 	misses[5] 	25660
scalar tree_4_3_u01_r3_network.node[5].content_store 	decision_yes[5] 	456
scalar tree_4_3_u01_r3_network.node[5].content_store 	decision_no[5] 	25204
scalar tree_4_3_u01_r3_network.node[5].content_store 	decision_ratio[5] 	0.017770849571317
scalar tree_4_3_u01_r3_network.node[6].core_layer 	interests[6] 	26502
scalar tree_4_3_u01_r3_network.node[6].core_layer 	data[6] 	25638
scalar tree_4_3_u01_r3_network.node[6].content_store 	p_hit[6] 	0.032601313108445
scalar tree_4_3_u01_r3_network.node[6].content_store 	hits[6] 	864
scalar tree_4_3_u01_r3_network.node[6].content_store 	misses[6] 	25638
scalar tree_4_3_u01_r3_network.node[6].content_store 	decision_yes[6] 	449
scalar tree_4_3_u01_r3_network.node[6].content_store 	decision_no[6] 	25189
scalar tree_4_3_u01_r3_network.node[6].content_store 	decision_ratio[6] 	0.017513066541852
scalar tree_4_3_u01_r3_network.node[7].core_layer 	interests[7] 	35367
scalar tree_4_3_u01_r3_network.node[7].core_layer 	data[7] 	34212
scalar tree_4_3_u01_r3_network.node[7].content_store 	p_hit[7] 	0.032629287188622
scalar tree_4_3_u01_r3_network.node[7].content_store 	hits[7] 	1154
scalar tree_4_3_u01_r3_network.node[7].content_store 	misses[7] 	34213
scalar tree_4_3_u01_r3_network.node[7].content_store 	decision_yes[7] 	581
scalar tree_4_3_u01_r3_network.node[7].content_store 	decision_no[7] 	33631
scalar tree_4_3_u01_r3_network.node[7].content_store 	decision_ratio[7] 	0.016982345375892
scalar tree_4_3_u01_r3_network.node[8].core_layer 	interests[8] 	17415
scalar tree_4_3_u01_r3_network.node[8].core_layer 	data[8] 	16881
scalar tree_4_3_u01_r3_network.node[8].content_store 	p_hit[8] 	0.030605799598048
scalar tree_4_3_u01_r3_network.node[8].content_store 	hits[8] 	533
scalar tree_4_3_u01_r3_network.node[8].content_store 	misses[8] 	16882
scalar tree_4_3_u01_r3_network.node[8].content_store 	decision_yes[8] 	402
scalar tree_4_3_u01_r3_network.node[8].content_store 	decision_no[8] 	16479
scalar tree_4_3_u01_r3_network.node[8].content_store 	decision_ratio[8] 	0.023813755109294
scalar tree_4_3_u01_r3_network.node[9].core_layer 	interests[9] 	26259
scalar tree_4_3_u01_r3_network.node[9].core_layer 	data[9] 	25374
scalar tree_4_3_u01_r3_network.node[9].content_store 	p_hit[9] 	0.033702730492403
scalar tree_4_3_u01_r3_network.node[9].content_store 	hits[9] 	885
scalar tree_4_3_u01_r3_network.node[9].content_store 	misses[9] 	25374
scalar tree_4_3_u01_r3_network.node[9].content_store 	decision_yes[9] 	493
scalar tree_4_3_u01_r3_network.node[9].content_store 	decision_no[9] 	24881
scalar tree_4_3_u01_r3_network.node[9].content_store 	decision_ratio[9] 	0.019429337116734
scalar tree_4_3_u01_r3_network.node[10].core_layer 	interests[10] 	26252
scalar tree_4_3_u01_r3_network.node[10].core_layer 	data[10] 	25526
scalar tree_4_3_u01_r3_network.node[10].content_store 	p_hit[10] 	0.027578851135152
scalar tree_4_3_u01_r3_network.node[10].content_store 	hits[10] 	724
scalar tree_4_3_u01_r3_network.node[10].content_store 	misses[10] 	25528
scalar tree_4_3_u01_r3_network.node[10].content_store 	decision_yes[10] 	353
scalar tree_4_3_u01_r3_network.node[10].content_store 	decision_no[10] 	25173
scalar tree_4_3_u01_r3_network.node[10].content_store 	decision_ratio[10] 	0.013829037060252
scalar tree_4_3_u01_r3_network.node[11].core_layer 	interests[11] 	26498
scalar tree_4_3_u01_r3_network.node[11].core_layer 	data[11] 	25591
scalar tree_4_3_u01_r3_network.node[11].content_store 	p_hit[11] 	0.034228998414975
scalar tree_4_3_u01_r3_network.node[11].content_store 	hits[11] 	907
scalar tree_4_3_u01_r3_network.node[11].content_store 	misses[11] 	25591
scalar tree_4_3_u01_r3_network.node[11].content_store 	decision_yes[11] 	491
scalar tree_4_3_u01_r3_network.node[11].content_store 	decision_no[11] 	25100
scalar tree_4_3_u01_r3_network.node[11].content_store 	decision_ratio[11] 	0.019186432730257
scalar tree_4_3_u01_r3_network.node[12].core_layer 	interests[12] 	26701
scalar tree_4_3_u01_r3_network.node[12].core_layer 	data[12] 	25983
scalar tree_4_3_u01_r3_network.node[12].content_store 	p_hit[12] 	0.026890378637504
scalar tree_4_3_u01_r3_network.node[12].content_store 	hits[12] 	718
scalar tree_4_3_u01_r3_network.node[12].content_store 	misses[12] 	25983
scalar tree_4_3_u01_r3_network.node[12].content_store 	decision_yes[12] 	358
scalar tree_4_3_u01_r3_network.node[12].content_store 	decision_no[12] 	25625
scalar tree_4_3_u01_r3_network.node[12].content_store 	decision_ratio[12] 	0.013778239618212
scalar tree_4_3_u01_r3_network.node[13].core_layer 	interests[13] 	12013
scalar tree_4_3_u01_r3_network.node[13].core_layer 	data[13] 	8767
scalar tree_4_3_u01_r3_network.node[13].content_store 	p_hit[13] 	0.27020727545159
scalar tree_4_3_u01_r3_network.node[13].content_store 	hits[13] 	3246
scalar tree_4_3_u01_r3_network.node[13].content_store 	misses[13] 	8767
scalar tree_4_3_u01_r3_network.node[13].content_store 	decision_yes[13] 	273
scalar tree_4_3_u01_r3_network.node[13].content_store 	decision_no[13] 	8494
scalar tree_4_3_u01_r3_network.node[13].content_store 	decision_ratio[13] 	0.031139500399224
scalar tree_4_3_u01_r3_network.node[14].core_layer 	interests[14] 	12013
scalar tree_4_3_u01_r3_network.node[14].core_layer 	data[14] 	8811
scalar tree_4_3_u01_r3_network.node[14].content_store 	p_hit[14] 	0.26654457670857
scalar tree_4_3_u01_r3_network.node[14].content_store 	hits[14] 	3202
scalar tree_4_3_u01_r3_network.node[14].content_store 	misses[14] 	8811
scalar tree_4_3_u01_r3_network.node[14].content_store 	decision_yes[14] 	256
scalar tree_4_3_u01_r3_network.node[14].content_store 	decision_no[14] 	8555
scalar tree_4_3_u01_r3_network.node[14].content_store 	decision_ratio[14] 	0.029054590852344
scalar tree_4_3_u01_r3_network.node[15].core_layer 	interests[15] 	12068
scalar tree_4_3_u01_r3_network.node[15].core_layer 	data[15] 	8960
scalar tree_4_3_u01_r3_network.node[15].content_store 	p_hit[15] 	0.25754060324826
scalar tree_4_3_u01_r3_network.node[15].content_store 	hits[15] 	3108
scalar tree_4_3_u01_r3_network.node[15].content_store 	misses[15] 	8960
scalar tree_4_3_u01_r3_network.node[15].content_store 	decision_yes[15] 	265
scalar tree_4_3_u01_r3_network.node[15].content_store 	decision_no[15] 	8695
scalar tree_4_3_u01_r3_network.node[15].content_store 	decision_ratio[15] 	0.029575892857143
scalar tree_4_3_u01_r3_network.node[16].core_layer 	interests[16] 	11906
scalar tree_4_3_u01_r3_network.node[16].core_layer 	data[16] 	8731
scalar tree_4_3_u01_r3_network.node[16].content_store 	p_hit[16] 	0.26658827481942
scalar tree_4_3_u01_r3_network.node[16].content_store 	hits[16] 	3174
scalar tree_4_3_u01_r3_network.node[16].content_store 	misses[16] 	8732
scalar tree_4_3_u01_r3_network.node[16].content_store 	decision_yes[16] 	265
scalar tree_4_3_u01_r3_network.node[16].content_store 	decision_no[16] 	8466
scalar tree_4_3_u01_r3_network.node[16].content_store 	decision_ratio[16] 	0.030351620662009
scalar tree_4_3_u01_r3_network.node[17].core_layer 	interests[17] 	12112
scalar tree_4_3_u01_r3_network.node[17].core_layer 	data[17] 	8893
scalar tree_4_3_u01_r3_network.node[17].content_store 	p_hit[17] 	0.26576948480845
scalar tree_4_3_u01_r3_network.node[17].content_store 	hits[17] 	3219
scalar tree_4_3_u01_r3_network.node[17].content_store 	misses[17] 	8893
scalar tree_4_3_u01_r3_network.node[17].content_store 	decision_yes[17] 	293
scalar tree_4_3_u01_r3_network.node[17].content_store 	decision_no[17] 	8600
scalar tree_4_3_u01_r3_network.node[17].content_store 	decision_ratio[17] 	0.032947261891375
scalar tree_4_3_u01_r3_network.node[18].core_layer 	interests[18] 	12146
scalar tree_4_3_u01_r3_network.node[18].core_layer 	data[18] 	8873
scalar tree_4_3_u01_r3_network.node[18].content_store 	p_hit[18] 	0.26947143092376
scalar tree_4_3_u01_r3_network.node[18].content_store 	hits[18] 	3273
scalar tree_4_3_u01_r3_network.node[18].content_store 	misses[18] 	8873
scalar tree_4_3_u01_r3_network.node[18].content_store 	decision_yes[18] 	279
scalar tree_4_3_u01_r3_network.node[18].content_store 	decision_no[18] 	8594
scalar tree_4_3_u01_r3_network.node[18].content_store 	decision_ratio[18] 	0.031443705623803
scalar tree_4_3_u01_r3_network.node[19].core_layer 	interests[19] 	12031
scalar tree_4_3_u01_r3_network.node[19].core_layer 	data[19] 	8915
scalar tree_4_3_u01_r3_network.node[19].content_store 	p_hit[19] 	0.2589975895603
scalar tree_4_3_u01_r3_network.node[19].content_store 	hits[19] 	3116
scalar tree_4_3_u01_r3_network.node[19].content_store 	misses[19] 	8915
scalar tree_4_3_u01_r3_network.node[19].content_store 	decision_yes[19] 	289
scalar tree_4_3_u01_r3_network.node[19].content_store 	decision_no[19] 	8626
scalar tree_4_3_u01_r3_network.node[19].content_store 	decision_ratio[19] 	0.03241727425687
scalar tree_4_3_u01_r3_network.node[20].core_layer 	interests[20] 	11988
scalar tree_4_3_u01_r3_network.node[20].core_layer 	data[20] 	8882
scalar tree_4_3_u01_r3_network.node[20].content_store 	p_hit[20] 	0.25909242575909
scalar tree_4_3_u01_r3_network.node[20].content_store 	hits[20] 	3106
scalar tree_4_3_u01_r3_network.node[20].content_store 	misses[20] 	8882
scalar tree_4_3_u01_r3_network.node[20].content_store 	decision_yes[20] 	292
scalar tree_4_3_u01_r3_network.node[20].content_store 	decision_no[20] 	8590
scalar tree_4_3_u01_r3_network.node[20].content_store 	decision_ratio[20] 	0.032875478495834
scalar tree_4_3_u01_r3_network.node[21].core_layer 	interests[21] 	11974
scalar tree_4_3_u01_r3_network.node[21].core_layer 	data[21] 	8705
scalar tree_4_3_u01_r3_network.node[21].content_store 	p_hit[21] 	0.27300818439953
scalar tree_4_3_u01_r3_network.node[21].content_store 	hits[21] 	3269
scalar tree_4_3_u01_r3_network.node[21].content_store 	misses[21] 	8705
scalar tree_4_3_u01_r3_network.node[21].content_store 	decision_yes[21] 	283
scalar tree_4_3_u01_r3_network.node[21].content_store 	decision_no[21] 	8422
scalar tree_4_3_u01_r3_network.node[21].content_store 	decision_ratio[21] 	0.032510051694428
scalar tree_4_3_u01_r3_network.node[22].core_layer 	interests[22] 	12054
scalar tree_4_3_u01_r3_network.node[22].core_layer 	data[22] 	8905
scalar tree_4_3_u01_r3_network.node[22].content_store 	p_hit[22] 	0.26107516177203
scalar tree_4_3_u01_r3_network.node[22].content_store 	hits[22] 	3147
scalar tree_4_3_u01_r3_network.node[22].content_store 	misses[22] 	8907
scalar tree_4_3_u01_r3_network.node[22].content_store 	decision_yes[22] 	301
scalar tree_4_3_u01_r3_network.node[22].content_store 	decision_no[22] 	8604
scalar tree_4_3_u01_r3_network.node[22].content_store 	decision_ratio[22] 	0.033801235261089
scalar tree_4_3_u01_r3_network.node[23].core_layer 	interests[23] 	12062
scalar tree_4_3_u01_r3_network.node[23].core_layer 	data[23] 	8929
scalar tree_4_3_u01_r3_network.node[23].content_store 	p_hit[23] 	0.25965843143757
scalar tree_4_3_u01_r3_network.node[23].content_store 	hits[23] 	3132
scalar tree_4_3_u01_r3_network.node[23].content_store 	misses[23] 	8930
scalar tree_4_3_u01_r3_network.node[23].content_store 	decision_yes[23] 	297
scalar tree_4_3_u01_r3_network.node[23].content_store 	decision_no[23] 	8632
scalar tree_4_3_u01_r3_network.node[23].content_store 	decision_ratio[23] 	0.033262403404637
scalar tree_4_3_u01_r3_network.node[24].core_layer 	interests[24] 	12100
scalar tree_4_3_u01_r3_network.node[24].core_layer 	data[24] 	8899
scalar tree_4_3_u01_r3_network.node[24].content_store 	p_hit[24] 	0.26454545454545
scalar tree_4_3_u01_r3_network.node[24].content_store 	hits[24] 	3201
scalar tree_4_3_u01_r3_network.node[24].content_store 	misses[24] 	8899
scalar tree_4_3_u01_r3_network.node[24].content_store 	decision_yes[24] 	274
scalar tree_4_3_u01_r3_network.node[24].content_store 	decision_no[24] 	8625
scalar tree_4_3_u01_r3_network.node[24].content_store 	decision_ratio[24] 	0.030789976401843
scalar tree_4_3_u01_r3_network.node[25].core_layer 	interests[25] 	11929
scalar tree_4_3_u01_r3_network.node[25].core_layer 	data[25] 	8634
scalar tree_4_3_u01_r3_network.node[25].content_store 	p_hit[25] 	0.2763014502473
scalar tree_4_3_u01_r3_network.node[25].content_store 	hits[25] 	3296
scalar tree_4_3_u01_r3_network.node[25].content_store 	misses[25] 	8633
scalar tree_4_3_u01_r3_network.node[25].content_store 	decision_yes[25] 	282
scalar tree_4_3_u01_r3_network.node[25].content_store 	decision_no[25] 	8352
scalar tree_4_3_u01_r3_network.node[25].content_store 	decision_ratio[25] 	0.032661570535094
scalar tree_4_3_u01_r3_network.node[26].core_layer 	interests[26] 	12215
scalar tree_4_3_u01_r3_network.node[26].core_layer 	data[26] 	8723
scalar tree_4_3_u01_r3_network.node[26].content_store 	p_hit[26] 	0.28587801882931
scalar tree_4_3_u01_r3_network.node[26].content_store 	hits[26] 	3492
scalar tree_4_3_u01_r3_network.node[26].content_store 	misses[26] 	8723
scalar tree_4_3_u01_r3_network.node[26].content_store 	decision_yes[26] 	266
scalar tree_4_3_u01_r3_network.node[26].content_store 	decision_no[26] 	8457
scalar tree_4_3_u01_r3_network.node[26].content_store 	decision_ratio[26] 	0.030494096067867
scalar tree_4_3_u01_r3_network.node[27].core_layer 	interests[27] 	11814
scalar tree_4_3_u01_r3_network.node[27].core_layer 	data[27] 	8692
scalar tree_4_3_u01_r3_network.node[27].content_store 	p_hit[27] 	0.26426273912307
scalar tree_4_3_u01_r3_network.node[27].content_store 	hits[27] 	3122
scalar tree_4_3_u01_r3_network.node[27].content_store 	misses[27] 	8692
scalar tree_4_3_u01_r3_network.node[27].content_store 	decision_yes[27] 	267
scalar tree_4_3_u01_r3_network.node[27].content_store 	decision_no[27] 	8425
scalar tree_4_3_u01_r3_network.node[27].content_store 	decision_ratio[27] 	0.030717901518638
scalar tree_4_3_u01_r3_network.node[28].core_layer 	interests[28] 	11833
scalar tree_4_3_u01_r3_network.node[28].core_layer 	data[28] 	8722
scalar tree_4_3_u01_r3_network.node[28].content_store 	p_hit[28] 	0.2629088143328
scalar tree_4_3_u01_r3_network.node[28].content_store 	hits[28] 	3111
scalar tree_4_3_u01_r3_network.node[28].content_store 	misses[28] 	8722
scalar tree_4_3_u01_r3_network.node[28].content_store 	decision_yes[28] 	284
scalar tree_4_3_u01_r3_network.node[28].content_store 	decision_no[28] 	8438
scalar tree_4_3_u01_r3_network.node[28].content_store 	decision_ratio[28] 	0.032561339142399
scalar tree_4_3_u01_r3_network.node[29].core_layer 	interests[29] 	11961
scalar tree_4_3_u01_r3_network.node[29].core_layer 	data[29] 	8789
scalar tree_4_3_u01_r3_network.node[29].content_store 	p_hit[29] 	0.26511161274141
scalar tree_4_3_u01_r3_network.node[29].content_store 	hits[29] 	3171
scalar tree_4_3_u01_r3_network.node[29].content_store 	misses[29] 	8790
scalar tree_4_3_u01_r3_network.node[29].content_store 	decision_yes[29] 	291
scalar tree_4_3_u01_r3_network.node[29].content_store 	decision_no[29] 	8498
scalar tree_4_3_u01_r3_network.node[29].content_store 	decision_ratio[29] 	0.033109568779156
scalar tree_4_3_u01_r3_network.node[30].core_layer 	interests[30] 	11789
scalar tree_4_3_u01_r3_network.node[30].core_layer 	data[30] 	8748
scalar tree_4_3_u01_r3_network.node[30].content_store 	p_hit[30] 	0.25795232844177
scalar tree_4_3_u01_r3_network.node[30].content_store 	hits[30] 	3041
scalar tree_4_3_u01_r3_network.node[30].content_store 	misses[30] 	8748
scalar tree_4_3_u01_r3_network.node[30].content_store 	decision_yes[30] 	310
scalar tree_4_3_u01_r3_network.node[30].content_store 	decision_no[30] 	8438
scalar tree_4_3_u01_r3_network.node[30].content_store 	decision_ratio[30] 	0.03543667123914
scalar tree_4_3_u01_r3_network.node[31].core_layer 	interests[31] 	11855
scalar tree_4_3_u01_r3_network.node[31].core_layer 	data[31] 	8757
scalar tree_4_3_u01_r3_network.node[31].content_store 	p_hit[31] 	0.26132433572332
scalar tree_4_3_u01_r3_network.node[31].content_store 	hits[31] 	3098
scalar tree_4_3_u01_r3_network.node[31].content_store 	misses[31] 	8757
scalar tree_4_3_u01_r3_network.node[31].content_store 	decision_yes[31] 	230
scalar tree_4_3_u01_r3_network.node[31].content_store 	decision_no[31] 	8527
scalar tree_4_3_u01_r3_network.node[31].content_store 	decision_ratio[31] 	0.026264702523695
scalar tree_4_3_u01_r3_network.node[32].core_layer 	interests[32] 	11949
scalar tree_4_3_u01_r3_network.node[32].core_layer 	data[32] 	8677
scalar tree_4_3_u01_r3_network.node[32].content_store 	p_hit[32] 	0.2737467570508
scalar tree_4_3_u01_r3_network.node[32].content_store 	hits[32] 	3271
scalar tree_4_3_u01_r3_network.node[32].content_store 	misses[32] 	8678
scalar tree_4_3_u01_r3_network.node[32].content_store 	decision_yes[32] 	249
scalar tree_4_3_u01_r3_network.node[32].content_store 	decision_no[32] 	8428
scalar tree_4_3_u01_r3_network.node[32].content_store 	decision_ratio[32] 	0.028696554108563
scalar tree_4_3_u01_r3_network.node[33].core_layer 	interests[33] 	11948
scalar tree_4_3_u01_r3_network.node[33].core_layer 	data[33] 	8817
scalar tree_4_3_u01_r3_network.node[33].content_store 	p_hit[33] 	0.26205222631403
scalar tree_4_3_u01_r3_network.node[33].content_store 	hits[33] 	3131
scalar tree_4_3_u01_r3_network.node[33].content_store 	misses[33] 	8817
scalar tree_4_3_u01_r3_network.node[33].content_store 	decision_yes[33] 	245
scalar tree_4_3_u01_r3_network.node[33].content_store 	decision_no[33] 	8572
scalar tree_4_3_u01_r3_network.node[33].content_store 	decision_ratio[33] 	0.027787229216287
scalar tree_4_3_u01_r3_network.node[34].core_layer 	interests[34] 	12022
scalar tree_4_3_u01_r3_network.node[34].core_layer 	data[34] 	8769
scalar tree_4_3_u01_r3_network.node[34].content_store 	p_hit[34] 	0.27050407586092
scalar tree_4_3_u01_r3_network.node[34].content_store 	hits[34] 	3252
scalar tree_4_3_u01_r3_network.node[34].content_store 	misses[34] 	8770
scalar tree_4_3_u01_r3_network.node[34].content_store 	decision_yes[34] 	294
scalar tree_4_3_u01_r3_network.node[34].content_store 	decision_no[34] 	8475
scalar tree_4_3_u01_r3_network.node[34].content_store 	decision_ratio[34] 	0.03352719808416
scalar tree_4_3_u01_r3_network.node[35].core_layer 	interests[35] 	12075
scalar tree_4_3_u01_r3_network.node[35].core_layer 	data[35] 	8878
scalar tree_4_3_u01_r3_network.node[35].content_store 	p_hit[35] 	0.2647619047619
scalar tree_4_3_u01_r3_network.node[35].content_store 	hits[35] 	3197
scalar tree_4_3_u01_r3_network.node[35].content_store 	misses[35] 	8878
scalar tree_4_3_u01_r3_network.node[35].content_store 	decision_yes[35] 	286
scalar tree_4_3_u01_r3_network.node[35].content_store 	decision_no[35] 	8592
scalar tree_4_3_u01_r3_network.node[35].content_store 	decision_ratio[35] 	0.032214462716828
scalar tree_4_3_u01_r3_network.node[36].core_layer 	interests[36] 	12147
scalar tree_4_3_u01_r3_network.node[36].core_layer 	data[36] 	8851
scalar tree_4_3_u01_r3_network.node[36].content_store 	p_hit[36] 	0.27134271836667
scalar tree_4_3_u01_r3_network.node[36].content_store 	hits[36] 	3296
scalar tree_4_3_u01_r3_network.node[36].content_store 	misses[36] 	8851
scalar tree_4_3_u01_r3_network.node[36].content_store 	decision_yes[36] 	327
scalar tree_4_3_u01_r3_network.node[36].content_store 	decision_no[36] 	8524
scalar tree_4_3_u01_r3_network.node[36].content_store 	decision_ratio[36] 	0.036944977968591
scalar tree_4_3_u01_r3_network.node[37].core_layer 	interests[37] 	12111
scalar tree_4_3_u01_r3_network.node[37].core_layer 	data[37] 	8976
scalar tree_4_3_u01_r3_network.node[37].content_store 	p_hit[37] 	0.25885558583106
scalar tree_4_3_u01_r3_network.node[37].content_store 	hits[37] 	3135
scalar tree_4_3_u01_r3_network.node[37].content_store 	misses[37] 	8976
scalar tree_4_3_u01_r3_network.node[37].content_store 	decision_yes[37] 	249
scalar tree_4_3_u01_r3_network.node[37].content_store 	decision_no[37] 	8727
scalar tree_4_3_u01_r3_network.node[37].content_store 	decision_ratio[37] 	0.02774064171123
scalar tree_4_3_u01_r3_network.node[38].core_layer 	interests[38] 	12012
scalar tree_4_3_u01_r3_network.node[38].core_layer 	data[38] 	8833
scalar tree_4_3_u01_r3_network.node[38].content_store 	p_hit[38] 	0.26465201465201
scalar tree_4_3_u01_r3_network.node[38].content_store 	hits[38] 	3179
scalar tree_4_3_u01_r3_network.node[38].content_store 	misses[38] 	8833
scalar tree_4_3_u01_r3_network.node[38].content_store 	decision_yes[38] 	225
scalar tree_4_3_u01_r3_network.node[38].content_store 	decision_no[38] 	8608
scalar tree_4_3_u01_r3_network.node[38].content_store 	decision_ratio[38] 	0.025472659345636
scalar tree_4_3_u01_r3_network.node[39].core_layer 	interests[39] 	12037
scalar tree_4_3_u01_r3_network.node[39].core_layer 	data[39] 	8893
scalar tree_4_3_u01_r3_network.node[39].content_store 	p_hit[39] 	0.26119464982969
scalar tree_4_3_u01_r3_network.node[39].content_store 	hits[39] 	3144
scalar tree_4_3_u01_r3_network.node[39].content_store 	misses[39] 	8893
scalar tree_4_3_u01_r3_network.node[39].content_store 	decision_yes[39] 	244
scalar tree_4_3_u01_r3_network.node[39].content_store 	decision_no[39] 	8649
scalar tree_4_3_u01_r3_network.node[39].content_store 	decision_ratio[39] 	0.027437310244012
scalar tree_4_3_u01_r3_network.client[13] 	hdistance[13] 	2.8228585698826
scalar tree_4_3_u01_r3_network.client[13] 	downloads[13] 	12013
scalar tree_4_3_u01_r3_network.client[13] 	avg_time[13] 	0.004266708067
scalar tree_4_3_u01_r3_network.client[14] 	hdistance[14] 	2.837925580621
scalar tree_4_3_u01_r3_network.client[14] 	downloads[14] 	12013
scalar tree_4_3_u01_r3_network.client[14] 	avg_time[14] 	0.004290349085
scalar tree_4_3_u01_r3_network.client[15] 	hdistance[15] 	2.8704010606563
scalar tree_4_3_u01_r3_network.client[15] 	downloads[15] 	12068
scalar tree_4_3_u01_r3_network.client[15] 	avg_time[15] 	0.004340567057
scalar tree_4_3_u01_r3_network.client[16] 	hdistance[16] 	2.8378832423351
scalar tree_4_3_u01_r3_network.client[16] 	downloads[16] 	11905
scalar tree_4_3_u01_r3_network.client[16] 	avg_time[16] 	0.004287486097
scalar tree_4_3_u01_r3_network.client[17] 	hdistance[17] 	2.8320673712021
scalar tree_4_3_u01_r3_network.client[17] 	downloads[17] 	12112
scalar tree_4_3_u01_r3_network.client[17] 	avg_time[17] 	0.004283517423
scalar tree_4_3_u01_r3_network.client[18] 	hdistance[18] 	2.8202700477523
scalar tree_4_3_u01_r3_network.client[18] 	downloads[18] 	12146
scalar tree_4_3_u01_r3_network.client[18] 	avg_time[18] 	0.004264446167
scalar tree_4_3_u01_r3_network.client[19] 	hdistance[19] 	2.8614412767019
scalar tree_4_3_u01_r3_network.client[19] 	downloads[19] 	12031
scalar tree_4_3_u01_r3_network.client[19] 	avg_time[19] 	0.004326082546
scalar tree_4_3_u01_r3_network.client[20] 	hdistance[20] 	2.856022689356
scalar tree_4_3_u01_r3_network.client[20] 	downloads[20] 	11988
scalar tree_4_3_u01_r3_network.client[20] 	avg_time[20] 	0.004321818817
scalar tree_4_3_u01_r3_network.client[21] 	hdistance[21] 	2.8056622682479
scalar tree_4_3_u01_r3_network.client[21] 	downloads[21] 	11974
scalar tree_4_3_u01_r3_network.client[21] 	avg_time[21] 	0.004242420632
scalar tree_4_3_u01_r3_network.client[22] 	hdistance[22] 	2.8485728509791
scalar tree_4_3_u01_r3_network.client[22] 	downloads[22] 	12052
scalar tree_4_3_u01_r3_network.client[22] 	avg_time[22] 	0.004308951308
scalar tree_4_3_u01_r3_network.client[23] 	hdistance[23] 	2.85390929442
scalar tree_4_3_u01_r3_network.client[23] 	downloads[23] 	12061
scalar tree_4_3_u01_r3_network.client[23] 	avg_time[23] 	0.004316918879
scalar tree_4_3_u01_r3_network.client[24] 	hdistance[24] 	2.8444628099174
scalar tree_4_3_u01_r3_network.client[24] 	downloads[24] 	12100
scalar tree_4_3_u01_r3_network.client[24] 	avg_time[24] 	0.004299996949
scalar tree_4_3_u01_r3_network.client[25] 	hdistance[25] 	2.7933780385583
scalar tree_4_3_u01_r3_network.client[25] 	downloads[25] 	11930
scalar tree_4_3_u01_r3_network.client[25] 	avg_time[25] 	0.004223802548
scalar tree_4_3_u01_r3_network.client[26] 	hdistance[26] 	2.7516168645109
scalar tree_4_3_u01_r3_network.client[26] 	downloads[26] 	12215
scalar tree_4_3_u01_r3_network.client[26] 	avg_time[26] 	0.004164297018
scalar tree_4_3_u01_r3_network.client[27] 	hdistance[27] 	2.8340951413577
scalar tree_4_3_u01_r3_network.client[27] 	downloads[27] 	11814
scalar tree_4_3_u01_r3_network.client[27] 	avg_time[27] 	0.004290161266
scalar tree_4_3_u01_r3_network.client[28] 	hdistance[28] 	2.8440801149328
scalar tree_4_3_u01_r3_network.client[28] 	downloads[28] 	11833
scalar tree_4_3_u01_r3_network.client[28] 	avg_time[28] 	0.004300512554
scalar tree_4_3_u01_r3_network.client[29] 	hdistance[29] 	2.8313545150502
scalar tree_4_3_u01_r3_network.client[29] 	downloads[29] 	11960
scalar tree_4_3_u01_r3_network.client[29] 	avg_time[29] 	0.004282581226
scalar tree_4_3_u01_r3_network.client[30] 	hdistance[30] 	2.8541861056917
scalar tree_4_3_u01_r3_network.client[30] 	downloads[30] 	11789
scalar tree_4_3_u01_r3_network.client[30] 	avg_time[30] 	0.004318931111
scalar tree_4_3_u01_r3_network.client[31] 	hdistance[31] 	2.869000421763
scalar tree_4_3_u01_r3_network.client[31] 	downloads[31] 	11855
scalar tree_4_3_u01_r3_network.client[31] 	avg_time[31] 	0.004333695894
scalar tree_4_3_u01_r3_network.client[32] 	hdistance[32] 	2.81729159692
scalar tree_4_3_u01_r3_network.client[32] 	downloads[32] 	11948
scalar tree_4_3_u01_r3_network.client[32] 	avg_time[32] 	0.004256274222
scalar tree_4_3_u01_r3_network.client[33] 	hdistance[33] 	2.8629059256779
scalar tree_4_3_u01_r3_network.client[33] 	downloads[33] 	11948
scalar tree_4_3_u01_r3_network.client[33] 	avg_time[33] 	0.004324874165
scalar tree_4_3_u01_r3_network.client[34] 	hdistance[34] 	2.8148240578987
scalar tree_4_3_u01_r3_network.client[34] 	downloads[34] 	12021
scalar tree_4_3_u01_r3_network.client[34] 	avg_time[34] 	0.004255948873
scalar tree_4_3_u01_r3_network.client[35] 	hdistance[35] 	2.8332919254658
scalar tree_4_3_u01_r3_network.client[35] 	downloads[35] 	12075
scalar tree_4_3_u01_r3_network.client[35] 	avg_time[35] 	0.004288527019
scalar tree_4_3_u01_r3_network.client[36] 	hdistance[36] 	2.7975631843254
scalar tree_4_3_u01_r3_network.client[36] 	downloads[36] 	12147
scalar tree_4_3_u01_r3_network.client[36] 	avg_time[36] 	0.004234128844
scalar tree_4_3_u01_r3_network.client[37] 	hdistance[37] 	2.8723474527289
scalar tree_4_3_u01_r3_network.client[37] 	downloads[37] 	12111
scalar tree_4_3_u01_r3_network.client[37] 	avg_time[37] 	0.004342495514
scalar tree_4_3_u01_r3_network.client[38] 	hdistance[38] 	2.8598901098901
scalar tree_4_3_u01_r3_network.client[38] 	downloads[38] 	12012
scalar tree_4_3_u01_r3_network.client[38] 	avg_time[38] 	0.004317903652
scalar tree_4_3_u01_r3_network.client[39] 	hdistance[39] 	2.8692365207277
scalar tree_4_3_u01_r3_network.client[39] 	downloads[39] 	12037
scalar tree_4_3_u01_r3_network.client[39] 	avg_time[39] 	0.004333801101
