version 2
run General-20-20160820-06:52:41-856
attr a 0.9
attr cd lcd
attr configname General
attr cr lru
attr datetime 20160820-06:52:41
attr experiment General
attr fsize 1
attr inifile hw5115/scenario_A/SPR-LCD.ini
attr iterationvars "$name=tree_4_3, $un=01, $rep=1, $cd=lcd, $cr=lru, $fsize=1, $a=0.9, $sl=spr, $ttl=1000, $variance=0.05"
attr iterationvars2 "$name=tree_4_3, $un=01, $rep=1, $cd=lcd, $cr=lru, $fsize=1, $a=0.9, $sl=spr, $ttl=1000, $variance=0.05, $repetition=0"
attr measurement "$name=tree_4_3, $un=01, $rep=1, $cd=lcd, $cr=lru, $fsize=1, $a=0.9, $sl=spr, $ttl=1000, $variance=0.05"
attr name tree_4_3
attr network networks.${name}_u${un}_r${rep}_network
attr processid 856
attr rep 1
attr repetition 0
attr replication #0
attr resultdir results
attr runnumber 20
attr seedset 1
attr sl spr
attr ttl 1000
attr un 01
attr variance 0.05

scalar . 	a 	0.9
scalar . 	fsize 	1
scalar . 	rep 	1
scalar . 	ttl 	1000
scalar . 	un 	01
scalar . 	variance 	0.05
scalar tree_4_3_u01_r1_network.content_distribution 	repo-0 	0
scalar tree_4_3_u01_r1_network.content_distribution 	client-0 	13
scalar tree_4_3_u01_r1_network.content_distribution 	client-1 	14
scalar tree_4_3_u01_r1_network.content_distribution 	client-2 	15
scalar tree_4_3_u01_r1_network.content_distribution 	client-3 	16
scalar tree_4_3_u01_r1_network.content_distribution 	client-4 	17
scalar tree_4_3_u01_r1_network.content_distribution 	client-5 	18
scalar tree_4_3_u01_r1_network.content_distribution 	client-6 	19
scalar tree_4_3_u01_r1_network.content_distribution 	client-7 	20
scalar tree_4_3_u01_r1_network.content_distribution 	client-8 	21
scalar tree_4_3_u01_r1_network.content_distribution 	client-9 	22
scalar tree_4_3_u01_r1_network.content_distribution 	client-10 	23
scalar tree_4_3_u01_r1_network.content_distribution 	client-11 	24
scalar tree_4_3_u01_r1_network.content_distribution 	client-12 	25
scalar tree_4_3_u01_r1_network.content_distribution 	client-13 	26
scalar tree_4_3_u01_r1_network.content_distribution 	client-14 	27
scalar tree_4_3_u01_r1_network.content_distribution 	client-15 	28
scalar tree_4_3_u01_r1_network.content_distribution 	client-16 	29
scalar tree_4_3_u01_r1_network.content_distribution 	client-17 	30
scalar tree_4_3_u01_r1_network.content_distribution 	client-18 	31
scalar tree_4_3_u01_r1_network.content_distribution 	client-19 	32
scalar tree_4_3_u01_r1_network.content_distribution 	client-20 	33
scalar tree_4_3_u01_r1_network.content_distribution 	client-21 	34
scalar tree_4_3_u01_r1_network.content_distribution 	client-22 	35
scalar tree_4_3_u01_r1_network.content_distribution 	client-23 	36
scalar tree_4_3_u01_r1_network.content_distribution 	client-24 	37
scalar tree_4_3_u01_r1_network.content_distribution 	client-25 	38
scalar tree_4_3_u01_r1_network.content_distribution 	client-26 	39
scalar tree_4_3_u01_r1_network.content_distribution 	repo-0_card 	100000
scalar tree_4_3_u01_r1_network.content_distribution 	repo-0_price 	0
scalar tree_4_3_u01_r1_network.statistics 	stabilization_time 	1301.3
scalar tree_4_3_u01_r1_network.statistics 	p_hit 	0.18854778076638
scalar tree_4_3_u01_r1_network.statistics 	interests 	25473.8
scalar tree_4_3_u01_r1_network.statistics 	data 	17365.4
scalar tree_4_3_u01_r1_network.statistics 	hdistance 	2.8331728766588
scalar tree_4_3_u01_r1_network.statistics 	avg_time 	0.004283344164
scalar tree_4_3_u01_r1_network.statistics 	downloads 	324335
scalar tree_4_3_u01_r1_network.statistics 	total_cost 	0
scalar tree_4_3_u01_r1_network.statistics 	total_replicas 	100000
scalar tree_4_3_u01_r1_network.statistics 	inner_hit 	0.30855134351828
scalar tree_4_3_u01_r1_network.node[0].core_layer 	interests[0] 	226452
scalar tree_4_3_u01_r1_network.node[0].core_layer 	repo_load[0] 	224261
scalar tree_4_3_u01_r1_network.node[0].core_layer 	data[0] 	0
scalar tree_4_3_u01_r1_network.node[0].core_layer 	repo_int[0] 	224261
scalar tree_4_3_u01_r1_network.node[0].content_store 	p_hit[0] 	0.0096753395863141
scalar tree_4_3_u01_r1_network.node[0].content_store 	hits[0] 	2191
scalar tree_4_3_u01_r1_network.node[0].content_store 	misses[0] 	224261
scalar tree_4_3_u01_r1_network.node[0].content_store 	decision_yes[0] 	224261
scalar tree_4_3_u01_r1_network.node[0].content_store 	decision_no[0] 	0
scalar tree_4_3_u01_r1_network.node[0].content_store 	decision_ratio[0] 	1
scalar tree_4_3_u01_r1_network.node[1].core_layer 	interests[1] 	110673
scalar tree_4_3_u01_r1_network.node[1].core_layer 	data[1] 	108534
scalar tree_4_3_u01_r1_network.node[1].content_store 	p_hit[1] 	0.019254922158069
scalar tree_4_3_u01_r1_network.node[1].content_store 	hits[1] 	2131
scalar tree_4_3_u01_r1_network.node[1].content_store 	misses[1] 	108542
scalar tree_4_3_u01_r1_network.node[1].content_store 	decision_yes[1] 	1091
scalar tree_4_3_u01_r1_network.node[1].content_store 	decision_no[1] 	107443
scalar tree_4_3_u01_r1_network.node[1].content_store 	decision_ratio[1] 	0.010052149556821
scalar tree_4_3_u01_r1_network.node[2].core_layer 	interests[2] 	76773
scalar tree_4_3_u01_r1_network.node[2].core_layer 	data[2] 	75490
scalar tree_4_3_u01_r1_network.node[2].content_store 	p_hit[2] 	0.016711604340067
scalar tree_4_3_u01_r1_network.node[2].content_store 	hits[2] 	1283
scalar tree_4_3_u01_r1_network.node[2].content_store 	misses[2] 	75490
scalar tree_4_3_u01_r1_network.node[2].content_store 	decision_yes[2] 	719
scalar tree_4_3_u01_r1_network.node[2].content_store 	decision_no[2] 	74771
scalar tree_4_3_u01_r1_network.node[2].content_store 	decision_ratio[2] 	0.0095244403232216
scalar tree_4_3_u01_r1_network.node[3].core_layer 	interests[3] 	42983
scalar tree_4_3_u01_r1_network.node[3].core_layer 	data[3] 	42429
scalar tree_4_3_u01_r1_network.node[3].content_store 	p_hit[3] 	0.012865551497104
scalar tree_4_3_u01_r1_network.node[3].content_store 	hits[3] 	553
scalar tree_4_3_u01_r1_network.node[3].content_store 	misses[3] 	42430
scalar tree_4_3_u01_r1_network.node[3].content_store 	decision_yes[3] 	381
scalar tree_4_3_u01_r1_network.node[3].content_store 	decision_no[3] 	42048
scalar tree_4_3_u01_r1_network.node[3].content_store 	decision_ratio[3] 	0.0089797072756841
scalar tree_4_3_u01_r1_network.node[4].core_layer 	interests[4] 	26544
scalar tree_4_3_u01_r1_network.node[4].core_layer 	data[4] 	25725
scalar tree_4_3_u01_r1_network.node[4].content_store 	p_hit[4] 	0.03081675708258
scalar tree_4_3_u01_r1_network.node[4].content_store 	hits[4] 	818
scalar tree_4_3_u01_r1_network.node[4].content_store 	misses[4] 	25726
scalar tree_4_3_u01_r1_network.node[4].content_store 	decision_yes[4] 	517
scalar tree_4_3_u01_r1_network.node[4].content_store 	decision_no[4] 	25208
scalar tree_4_3_u01_r1_network.node[4].content_store 	decision_ratio[4] 	0.020097181729835
scalar tree_4_3_u01_r1_network.node[5].core_layer 	interests[5] 	26143
scalar tree_4_3_u01_r1_network.node[5].core_layer 	data[5] 	25300
scalar tree_4_3_u01_r1_network.node[5].content_store 	p_hit[5] 	0.032245725433194
scalar tree_4_3_u01_r1_network.node[5].content_store 	hits[5] 	843
scalar tree_4_3_u01_r1_network.node[5].content_store 	misses[5] 	25300
scalar tree_4_3_u01_r1_network.node[5].content_store 	decision_yes[5] 	515
scalar tree_4_3_u01_r1_network.node[5].content_store 	decision_no[5] 	24785
scalar tree_4_3_u01_r1_network.node[5].content_store 	decision_ratio[5] 	0.020355731225296
scalar tree_4_3_u01_r1_network.node[6].core_layer 	interests[6] 	26306
scalar tree_4_3_u01_r1_network.node[6].core_layer 	data[6] 	25467
scalar tree_4_3_u01_r1_network.node[6].content_store 	p_hit[6] 	0.031893864517601
scalar tree_4_3_u01_r1_network.node[6].content_store 	hits[6] 	839
scalar tree_4_3_u01_r1_network.node[6].content_store 	misses[6] 	25467
scalar tree_4_3_u01_r1_network.node[6].content_store 	decision_yes[6] 	527
scalar tree_4_3_u01_r1_network.node[6].content_store 	decision_no[6] 	24940
scalar tree_4_3_u01_r1_network.node[6].content_store 	decision_ratio[6] 	0.020693446420858
scalar tree_4_3_u01_r1_network.node[7].core_layer 	interests[7] 	26334
scalar tree_4_3_u01_r1_network.node[7].core_layer 	data[7] 	25521
scalar tree_4_3_u01_r1_network.node[7].content_store 	p_hit[7] 	0.030872636135794
scalar tree_4_3_u01_r1_network.node[7].content_store 	hits[7] 	813
scalar tree_4_3_u01_r1_network.node[7].content_store 	misses[7] 	25521
scalar tree_4_3_u01_r1_network.node[7].content_store 	decision_yes[7] 	405
scalar tree_4_3_u01_r1_network.node[7].content_store 	decision_no[7] 	25116
scalar tree_4_3_u01_r1_network.node[7].content_store 	decision_ratio[7] 	0.015869284118961
scalar tree_4_3_u01_r1_network.node[8].core_layer 	interests[8] 	26310
scalar tree_4_3_u01_r1_network.node[8].core_layer 	data[8] 	25485
scalar tree_4_3_u01_r1_network.node[8].content_store 	p_hit[8] 	0.031280881793995
scalar tree_4_3_u01_r1_network.node[8].content_store 	hits[8] 	823
scalar tree_4_3_u01_r1_network.node[8].content_store 	misses[8] 	25487
scalar tree_4_3_u01_r1_network.node[8].content_store 	decision_yes[8] 	441
scalar tree_4_3_u01_r1_network.node[8].content_store 	decision_no[8] 	25044
scalar tree_4_3_u01_r1_network.node[8].content_store 	decision_ratio[8] 	0.017304296645085
scalar tree_4_3_u01_r1_network.node[9].core_layer 	interests[9] 	26655
scalar tree_4_3_u01_r1_network.node[9].core_layer 	data[9] 	25766
scalar tree_4_3_u01_r1_network.node[9].content_store 	p_hit[9] 	0.033352091540049
scalar tree_4_3_u01_r1_network.node[9].content_store 	hits[9] 	889
scalar tree_4_3_u01_r1_network.node[9].content_store 	misses[9] 	25766
scalar tree_4_3_u01_r1_network.node[9].content_store 	decision_yes[9] 	437
scalar tree_4_3_u01_r1_network.node[9].content_store 	decision_no[9] 	25329
scalar tree_4_3_u01_r1_network.node[9].content_store 	decision_ratio[9] 	0.016960335325623
scalar tree_4_3_u01_r1_network.node[10].core_layer 	interests[10] 	35328
scalar tree_4_3_u01_r1_network.node[10].core_layer 	data[10] 	34181
scalar tree_4_3_u01_r1_network.node[10].content_store 	p_hit[10] 	0.032552083333333
scalar tree_4_3_u01_r1_network.node[10].content_store 	hits[10] 	1150
scalar tree_4_3_u01_r1_network.node[10].content_store 	misses[10] 	34178
scalar tree_4_3_u01_r1_network.node[10].content_store 	decision_yes[10] 	572
scalar tree_4_3_u01_r1_network.node[10].content_store 	decision_no[10] 	33609
scalar tree_4_3_u01_r1_network.node[10].content_store 	decision_ratio[10] 	0.01673444311167
scalar tree_4_3_u01_r1_network.node[11].core_layer 	interests[11] 	26454
scalar tree_4_3_u01_r1_network.node[11].core_layer 	data[11] 	25765
scalar tree_4_3_u01_r1_network.node[11].content_store 	p_hit[11] 	0.02604521055417
scalar tree_4_3_u01_r1_network.node[11].content_store 	hits[11] 	689
scalar tree_4_3_u01_r1_network.node[11].content_store 	misses[11] 	25765
scalar tree_4_3_u01_r1_network.node[11].content_store 	decision_yes[11] 	301
scalar tree_4_3_u01_r1_network.node[11].content_store 	decision_no[11] 	25464
scalar tree_4_3_u01_r1_network.node[11].content_store 	decision_ratio[11] 	0.011682515039783
scalar tree_4_3_u01_r1_network.node[12].core_layer 	interests[12] 	17662
scalar tree_4_3_u01_r1_network.node[12].core_layer 	data[12] 	17218
scalar tree_4_3_u01_r1_network.node[12].content_store 	p_hit[12] 	0.02508209715774
scalar tree_4_3_u01_r1_network.node[12].content_store 	hits[12] 	443
scalar tree_4_3_u01_r1_network.node[12].content_store 	misses[12] 	17219
scalar tree_4_3_u01_r1_network.node[12].content_store 	decision_yes[12] 	252
scalar tree_4_3_u01_r1_network.node[12].content_store 	decision_no[12] 	16966
scalar tree_4_3_u01_r1_network.node[12].content_store 	decision_ratio[12] 	0.014635846207457
scalar tree_4_3_u01_r1_network.node[13].core_layer 	interests[13] 	12057
scalar tree_4_3_u01_r1_network.node[13].core_layer 	data[13] 	8768
scalar tree_4_3_u01_r1_network.node[13].content_store 	p_hit[13] 	0.27278759227005
scalar tree_4_3_u01_r1_network.node[13].content_store 	hits[13] 	3289
scalar tree_4_3_u01_r1_network.node[13].content_store 	misses[13] 	8768
scalar tree_4_3_u01_r1_network.node[13].content_store 	decision_yes[13] 	274
scalar tree_4_3_u01_r1_network.node[13].content_store 	decision_no[13] 	8494
scalar tree_4_3_u01_r1_network.node[13].content_store 	decision_ratio[13] 	0.03125
scalar tree_4_3_u01_r1_network.node[14].core_layer 	interests[14] 	12084
scalar tree_4_3_u01_r1_network.node[14].core_layer 	data[14] 	8894
scalar tree_4_3_u01_r1_network.node[14].content_store 	p_hit[14] 	0.26398543528633
scalar tree_4_3_u01_r1_network.node[14].content_store 	hits[14] 	3190
scalar tree_4_3_u01_r1_network.node[14].content_store 	misses[14] 	8894
scalar tree_4_3_u01_r1_network.node[14].content_store 	decision_yes[14] 	287
scalar tree_4_3_u01_r1_network.node[14].content_store 	decision_no[14] 	8607
scalar tree_4_3_u01_r1_network.node[14].content_store 	decision_ratio[14] 	0.03226894535642
scalar tree_4_3_u01_r1_network.node[15].core_layer 	interests[15] 	12216
scalar tree_4_3_u01_r1_network.node[15].core_layer 	data[15] 	8880
scalar tree_4_3_u01_r1_network.node[15].content_store 	p_hit[15] 	0.27292075965946
scalar tree_4_3_u01_r1_network.node[15].content_store 	hits[15] 	3334
scalar tree_4_3_u01_r1_network.node[15].content_store 	misses[15] 	8882
scalar tree_4_3_u01_r1_network.node[15].content_store 	decision_yes[15] 	257
scalar tree_4_3_u01_r1_network.node[15].content_store 	decision_no[15] 	8623
scalar tree_4_3_u01_r1_network.node[15].content_store 	decision_ratio[15] 	0.028941441441441
scalar tree_4_3_u01_r1_network.node[16].core_layer 	interests[16] 	12032
scalar tree_4_3_u01_r1_network.node[16].core_layer 	data[16] 	8801
scalar tree_4_3_u01_r1_network.node[16].content_store 	p_hit[16] 	0.26853390957447
scalar tree_4_3_u01_r1_network.node[16].content_store 	hits[16] 	3231
scalar tree_4_3_u01_r1_network.node[16].content_store 	misses[16] 	8801
scalar tree_4_3_u01_r1_network.node[16].content_store 	decision_yes[16] 	270
scalar tree_4_3_u01_r1_network.node[16].content_store 	decision_no[16] 	8531
scalar tree_4_3_u01_r1_network.node[16].content_store 	decision_ratio[16] 	0.030678332007726
scalar tree_4_3_u01_r1_network.node[17].core_layer 	interests[17] 	11901
scalar tree_4_3_u01_r1_network.node[17].core_layer 	data[17] 	8739
scalar tree_4_3_u01_r1_network.node[17].content_store 	p_hit[17] 	0.26569195865894
scalar tree_4_3_u01_r1_network.node[17].content_store 	hits[17] 	3162
scalar tree_4_3_u01_r1_network.node[17].content_store 	misses[17] 	8739
scalar tree_4_3_u01_r1_network.node[17].content_store 	decision_yes[17] 	311
scalar tree_4_3_u01_r1_network.node[17].content_store 	decision_no[17] 	8428
scalar tree_4_3_u01_r1_network.node[17].content_store 	decision_ratio[17] 	0.035587595834764
scalar tree_4_3_u01_r1_network.node[18].core_layer 	interests[18] 	11863
scalar tree_4_3_u01_r1_network.node[18].core_layer 	data[18] 	8603
scalar tree_4_3_u01_r1_network.node[18].content_store 	p_hit[18] 	0.27480401247576
scalar tree_4_3_u01_r1_network.node[18].content_store 	hits[18] 	3260
scalar tree_4_3_u01_r1_network.node[18].content_store 	misses[18] 	8603
scalar tree_4_3_u01_r1_network.node[18].content_store 	decision_yes[18] 	262
scalar tree_4_3_u01_r1_network.node[18].content_store 	decision_no[18] 	8341
scalar tree_4_3_u01_r1_network.node[18].content_store 	decision_ratio[18] 	0.030454492618854
scalar tree_4_3_u01_r1_network.node[19].core_layer 	interests[19] 	11879
scalar tree_4_3_u01_r1_network.node[19].core_layer 	data[19] 	8624
scalar tree_4_3_u01_r1_network.node[19].content_store 	p_hit[19] 	0.27401296405421
scalar tree_4_3_u01_r1_network.node[19].content_store 	hits[19] 	3255
scalar tree_4_3_u01_r1_network.node[19].content_store 	misses[19] 	8624
scalar tree_4_3_u01_r1_network.node[19].content_store 	decision_yes[19] 	267
scalar tree_4_3_u01_r1_network.node[19].content_store 	decision_no[19] 	8357
scalar tree_4_3_u01_r1_network.node[19].content_store 	decision_ratio[19] 	0.030960111317254
scalar tree_4_3_u01_r1_network.node[20].core_layer 	interests[20] 	12180
scalar tree_4_3_u01_r1_network.node[20].core_layer 	data[20] 	8983
scalar tree_4_3_u01_r1_network.node[20].content_store 	p_hit[20] 	0.26247947454844
scalar tree_4_3_u01_r1_network.node[20].content_store 	hits[20] 	3197
scalar tree_4_3_u01_r1_network.node[20].content_store 	misses[20] 	8983
scalar tree_4_3_u01_r1_network.node[20].content_store 	decision_yes[20] 	294
scalar tree_4_3_u01_r1_network.node[20].content_store 	decision_no[20] 	8689
scalar tree_4_3_u01_r1_network.node[20].content_store 	decision_ratio[20] 	0.03272848714238
scalar tree_4_3_u01_r1_network.node[21].core_layer 	interests[21] 	11988
scalar tree_4_3_u01_r1_network.node[21].core_layer 	data[21] 	8699
scalar tree_4_3_u01_r1_network.node[21].content_store 	p_hit[21] 	0.27435769102436
scalar tree_4_3_u01_r1_network.node[21].content_store 	hits[21] 	3289
scalar tree_4_3_u01_r1_network.node[21].content_store 	misses[21] 	8699
scalar tree_4_3_u01_r1_network.node[21].content_store 	decision_yes[21] 	278
scalar tree_4_3_u01_r1_network.node[21].content_store 	decision_no[21] 	8421
scalar tree_4_3_u01_r1_network.node[21].content_store 	decision_ratio[21] 	0.03195769628693
scalar tree_4_3_u01_r1_network.node[22].core_layer 	interests[22] 	12026
scalar tree_4_3_u01_r1_network.node[22].core_layer 	data[22] 	8802
scalar tree_4_3_u01_r1_network.node[22].content_store 	p_hit[22] 	0.26808581406952
scalar tree_4_3_u01_r1_network.node[22].content_store 	hits[22] 	3224
scalar tree_4_3_u01_r1_network.node[22].content_store 	misses[22] 	8802
scalar tree_4_3_u01_r1_network.node[22].content_store 	decision_yes[22] 	279
scalar tree_4_3_u01_r1_network.node[22].content_store 	decision_no[22] 	8523
scalar tree_4_3_u01_r1_network.node[22].content_store 	decision_ratio[22] 	0.031697341513292
scalar tree_4_3_u01_r1_network.node[23].core_layer 	interests[23] 	12147
scalar tree_4_3_u01_r1_network.node[23].core_layer 	data[23] 	8915
scalar tree_4_3_u01_r1_network.node[23].content_store 	p_hit[23] 	0.26607392771878
scalar tree_4_3_u01_r1_network.node[23].content_store 	hits[23] 	3232
scalar tree_4_3_u01_r1_network.node[23].content_store 	misses[23] 	8915
scalar tree_4_3_u01_r1_network.node[23].content_store 	decision_yes[23] 	264
scalar tree_4_3_u01_r1_network.node[23].content_store 	decision_no[23] 	8651
scalar tree_4_3_u01_r1_network.node[23].content_store 	decision_ratio[23] 	0.029613011777902
scalar tree_4_3_u01_r1_network.node[24].core_layer 	interests[24] 	11815
scalar tree_4_3_u01_r1_network.node[24].core_layer 	data[24] 	8617
scalar tree_4_3_u01_r1_network.node[24].content_store 	p_hit[24] 	0.27067287346593
scalar tree_4_3_u01_r1_network.node[24].content_store 	hits[24] 	3198
scalar tree_4_3_u01_r1_network.node[24].content_store 	misses[24] 	8617
scalar tree_4_3_u01_r1_network.node[24].content_store 	decision_yes[24] 	270
scalar tree_4_3_u01_r1_network.node[24].content_store 	decision_no[24] 	8347
scalar tree_4_3_u01_r1_network.node[24].content_store 	decision_ratio[24] 	0.03133341069978
scalar tree_4_3_u01_r1_network.node[25].core_layer 	interests[25] 	11834
scalar tree_4_3_u01_r1_network.node[25].core_layer 	data[25] 	8641
scalar tree_4_3_u01_r1_network.node[25].content_store 	p_hit[25] 	0.26973128274463
scalar tree_4_3_u01_r1_network.node[25].content_store 	hits[25] 	3192
scalar tree_4_3_u01_r1_network.node[25].content_store 	misses[25] 	8642
scalar tree_4_3_u01_r1_network.node[25].content_store 	decision_yes[25] 	275
scalar tree_4_3_u01_r1_network.node[25].content_store 	decision_no[25] 	8366
scalar tree_4_3_u01_r1_network.node[25].content_store 	decision_ratio[25] 	0.031825020252286
scalar tree_4_3_u01_r1_network.node[26].core_layer 	interests[26] 	12132
scalar tree_4_3_u01_r1_network.node[26].core_layer 	data[26] 	8872
scalar tree_4_3_u01_r1_network.node[26].content_store 	p_hit[26] 	0.26879327398615
scalar tree_4_3_u01_r1_network.node[26].content_store 	hits[26] 	3261
scalar tree_4_3_u01_r1_network.node[26].content_store 	misses[26] 	8871
scalar tree_4_3_u01_r1_network.node[26].content_store 	decision_yes[26] 	269
scalar tree_4_3_u01_r1_network.node[26].content_store 	decision_no[26] 	8603
scalar tree_4_3_u01_r1_network.node[26].content_store 	decision_ratio[26] 	0.030320108205591
scalar tree_4_3_u01_r1_network.node[27].core_layer 	interests[27] 	12018
scalar tree_4_3_u01_r1_network.node[27].core_layer 	data[27] 	8796
scalar tree_4_3_u01_r1_network.node[27].content_store 	p_hit[27] 	0.26809785322017
scalar tree_4_3_u01_r1_network.node[27].content_store 	hits[27] 	3222
scalar tree_4_3_u01_r1_network.node[27].content_store 	misses[27] 	8796
scalar tree_4_3_u01_r1_network.node[27].content_store 	decision_yes[27] 	279
scalar tree_4_3_u01_r1_network.node[27].content_store 	decision_no[27] 	8517
scalar tree_4_3_u01_r1_network.node[27].content_store 	decision_ratio[27] 	0.031718963165075
scalar tree_4_3_u01_r1_network.node[28].core_layer 	interests[28] 	12038
scalar tree_4_3_u01_r1_network.node[28].core_layer 	data[28] 	8833
scalar tree_4_3_u01_r1_network.node[28].content_store 	p_hit[28] 	0.2662402392424
scalar tree_4_3_u01_r1_network.node[28].content_store 	hits[28] 	3205
scalar tree_4_3_u01_r1_network.node[28].content_store 	misses[28] 	8833
scalar tree_4_3_u01_r1_network.node[28].content_store 	decision_yes[28] 	300
scalar tree_4_3_u01_r1_network.node[28].content_store 	decision_no[28] 	8533
scalar tree_4_3_u01_r1_network.node[28].content_store 	decision_ratio[28] 	0.033963545794181
scalar tree_4_3_u01_r1_network.node[29].core_layer 	interests[29] 	12093
scalar tree_4_3_u01_r1_network.node[29].core_layer 	data[29] 	8894
scalar tree_4_3_u01_r1_network.node[29].content_store 	p_hit[29] 	0.26453320102539
scalar tree_4_3_u01_r1_network.node[29].content_store 	hits[29] 	3199
scalar tree_4_3_u01_r1_network.node[29].content_store 	misses[29] 	8894
scalar tree_4_3_u01_r1_network.node[29].content_store 	decision_yes[29] 	301
scalar tree_4_3_u01_r1_network.node[29].content_store 	decision_no[29] 	8593
scalar tree_4_3_u01_r1_network.node[29].content_store 	decision_ratio[29] 	0.033843040251855
scalar tree_4_3_u01_r1_network.node[30].core_layer 	interests[30] 	12024
scalar tree_4_3_u01_r1_network.node[30].core_layer 	data[30] 	8928
scalar tree_4_3_u01_r1_network.node[30].content_store 	p_hit[30] 	0.25748502994012
scalar tree_4_3_u01_r1_network.node[30].content_store 	hits[30] 	3096
scalar tree_4_3_u01_r1_network.node[30].content_store 	misses[30] 	8928
scalar tree_4_3_u01_r1_network.node[30].content_store 	decision_yes[30] 	288
scalar tree_4_3_u01_r1_network.node[30].content_store 	decision_no[30] 	8640
scalar tree_4_3_u01_r1_network.node[30].content_store 	decision_ratio[30] 	0.032258064516129
scalar tree_4_3_u01_r1_network.node[31].core_layer 	interests[31] 	12168
scalar tree_4_3_u01_r1_network.node[31].core_layer 	data[31] 	8887
scalar tree_4_3_u01_r1_network.node[31].content_store 	p_hit[31] 	0.26972386587771
scalar tree_4_3_u01_r1_network.node[31].content_store 	hits[31] 	3282
scalar tree_4_3_u01_r1_network.node[31].content_store 	misses[31] 	8886
scalar tree_4_3_u01_r1_network.node[31].content_store 	decision_yes[31] 	274
scalar tree_4_3_u01_r1_network.node[31].content_store 	decision_no[31] 	8613
scalar tree_4_3_u01_r1_network.node[31].content_store 	decision_ratio[31] 	0.030831551704737
scalar tree_4_3_u01_r1_network.node[32].core_layer 	interests[32] 	11930
scalar tree_4_3_u01_r1_network.node[32].core_layer 	data[32] 	8728
scalar tree_4_3_u01_r1_network.node[32].content_store 	p_hit[32] 	0.26839899413244
scalar tree_4_3_u01_r1_network.node[32].content_store 	hits[32] 	3202
scalar tree_4_3_u01_r1_network.node[32].content_store 	misses[32] 	8728
scalar tree_4_3_u01_r1_network.node[32].content_store 	decision_yes[32] 	302
scalar tree_4_3_u01_r1_network.node[32].content_store 	decision_no[32] 	8426
scalar tree_4_3_u01_r1_network.node[32].content_store 	decision_ratio[32] 	0.034601283226398
scalar tree_4_3_u01_r1_network.node[33].core_layer 	interests[33] 	12079
scalar tree_4_3_u01_r1_network.node[33].core_layer 	data[33] 	8873
scalar tree_4_3_u01_r1_network.node[33].content_store 	p_hit[33] 	0.26550211110191
scalar tree_4_3_u01_r1_network.node[33].content_store 	hits[33] 	3207
scalar tree_4_3_u01_r1_network.node[33].content_store 	misses[33] 	8872
scalar tree_4_3_u01_r1_network.node[33].content_store 	decision_yes[33] 	292
scalar tree_4_3_u01_r1_network.node[33].content_store 	decision_no[33] 	8581
scalar tree_4_3_u01_r1_network.node[33].content_store 	decision_ratio[33] 	0.032908824523836
scalar tree_4_3_u01_r1_network.node[34].core_layer 	interests[34] 	12040
scalar tree_4_3_u01_r1_network.node[34].core_layer 	data[34] 	8792
scalar tree_4_3_u01_r1_network.node[34].content_store 	p_hit[34] 	0.26976744186047
scalar tree_4_3_u01_r1_network.node[34].content_store 	hits[34] 	3248
scalar tree_4_3_u01_r1_network.node[34].content_store 	misses[34] 	8792
scalar tree_4_3_u01_r1_network.node[34].content_store 	decision_yes[34] 	250
scalar tree_4_3_u01_r1_network.node[34].content_store 	decision_no[34] 	8542
scalar tree_4_3_u01_r1_network.node[34].content_store 	decision_ratio[34] 	0.028434940855323
scalar tree_4_3_u01_r1_network.node[35].core_layer 	interests[35] 	11956
scalar tree_4_3_u01_r1_network.node[35].core_layer 	data[35] 	8866
scalar tree_4_3_u01_r1_network.node[35].content_store 	p_hit[35] 	0.25828036132486
scalar tree_4_3_u01_r1_network.node[35].content_store 	hits[35] 	3088
scalar tree_4_3_u01_r1_network.node[35].content_store 	misses[35] 	8868
scalar tree_4_3_u01_r1_network.node[35].content_store 	decision_yes[35] 	222
scalar tree_4_3_u01_r1_network.node[35].content_store 	decision_no[35] 	8644
scalar tree_4_3_u01_r1_network.node[35].content_store 	decision_ratio[35] 	0.02503947665238
scalar tree_4_3_u01_r1_network.node[36].core_layer 	interests[36] 	11833
scalar tree_4_3_u01_r1_network.node[36].core_layer 	data[36] 	8795
scalar tree_4_3_u01_r1_network.node[36].content_store 	p_hit[36] 	0.25673962646835
scalar tree_4_3_u01_r1_network.node[36].content_store 	hits[36] 	3038
scalar tree_4_3_u01_r1_network.node[36].content_store 	misses[36] 	8795
scalar tree_4_3_u01_r1_network.node[36].content_store 	decision_yes[36] 	217
scalar tree_4_3_u01_r1_network.node[36].content_store 	decision_no[36] 	8578
scalar tree_4_3_u01_r1_network.node[36].content_store 	decision_ratio[36] 	0.024673109721433
scalar tree_4_3_u01_r1_network.node[37].core_layer 	interests[37] 	12009
scalar tree_4_3_u01_r1_network.node[37].core_layer 	data[37] 	8843
scalar tree_4_3_u01_r1_network.node[37].content_store 	p_hit[37] 	0.26371887750854
scalar tree_4_3_u01_r1_network.node[37].content_store 	hits[37] 	3167
scalar tree_4_3_u01_r1_network.node[37].content_store 	misses[37] 	8842
scalar tree_4_3_u01_r1_network.node[37].content_store 	decision_yes[37] 	282
scalar tree_4_3_u01_r1_network.node[37].content_store 	decision_no[37] 	8561
scalar tree_4_3_u01_r1_network.node[37].content_store 	decision_ratio[37] 	0.03188963021599
scalar tree_4_3_u01_r1_network.node[38].core_layer 	interests[38] 	12026
scalar tree_4_3_u01_r1_network.node[38].core_layer 	data[38] 	8910
scalar tree_4_3_u01_r1_network.node[38].content_store 	p_hit[38] 	0.259188425079
scalar tree_4_3_u01_r1_network.node[38].content_store 	hits[38] 	3117
scalar tree_4_3_u01_r1_network.node[38].content_store 	misses[38] 	8909
scalar tree_4_3_u01_r1_network.node[38].content_store 	decision_yes[38] 	224
scalar tree_4_3_u01_r1_network.node[38].content_store 	decision_no[38] 	8686
scalar tree_4_3_u01_r1_network.node[38].content_store 	decision_ratio[38] 	0.025140291806958
scalar tree_4_3_u01_r1_network.node[39].core_layer 	interests[39] 	11967
scalar tree_4_3_u01_r1_network.node[39].core_layer 	data[39] 	8752
scalar tree_4_3_u01_r1_network.node[39].content_store 	p_hit[39] 	0.26865546920699
scalar tree_4_3_u01_r1_network.node[39].content_store 	hits[39] 	3215
scalar tree_4_3_u01_r1_network.node[39].content_store 	misses[39] 	8752
scalar tree_4_3_u01_r1_network.node[39].content_store 	decision_yes[39] 	219
scalar tree_4_3_u01_r1_network.node[39].content_store 	decision_no[39] 	8533
scalar tree_4_3_u01_r1_network.node[39].content_store 	decision_ratio[39] 	0.025022851919561
scalar tree_4_3_u01_r1_network.client[13] 	hdistance[13] 	2.8056730529983
scalar tree_4_3_u01_r1_network.client[13] 	downloads[13] 	12057
scalar tree_4_3_u01_r1_network.client[13] 	avg_time[13] 	0.004243381722
scalar tree_4_3_u01_r1_network.client[14] 	hdistance[14] 	2.8383813306852
scalar tree_4_3_u01_r1_network.client[14] 	downloads[14] 	12084
scalar tree_4_3_u01_r1_network.client[14] 	avg_time[14] 	0.004293773874
scalar tree_4_3_u01_r1_network.client[15] 	hdistance[15] 	2.808907810709
scalar tree_4_3_u01_r1_network.client[15] 	downloads[15] 	12214
scalar tree_4_3_u01_r1_network.client[15] 	avg_time[15] 	0.004248891649
scalar tree_4_3_u01_r1_network.client[16] 	hdistance[16] 	2.8239694148936
scalar tree_4_3_u01_r1_network.client[16] 	downloads[16] 	12032
scalar tree_4_3_u01_r1_network.client[16] 	avg_time[16] 	0.004271273556
scalar tree_4_3_u01_r1_network.client[17] 	hdistance[17] 	2.8232921603227
scalar tree_4_3_u01_r1_network.client[17] 	downloads[17] 	11901
scalar tree_4_3_u01_r1_network.client[17] 	avg_time[17] 	0.004272151449
scalar tree_4_3_u01_r1_network.client[18] 	hdistance[18] 	2.7982803675293
scalar tree_4_3_u01_r1_network.client[18] 	downloads[18] 	11863
scalar tree_4_3_u01_r1_network.client[18] 	avg_time[18] 	0.004233327575
scalar tree_4_3_u01_r1_network.client[19] 	hdistance[19] 	2.7991413418638
scalar tree_4_3_u01_r1_network.client[19] 	downloads[19] 	11879
scalar tree_4_3_u01_r1_network.client[19] 	avg_time[19] 	0.004235370414
scalar tree_4_3_u01_r1_network.client[20] 	hdistance[20] 	2.8403119868637
scalar tree_4_3_u01_r1_network.client[20] 	downloads[20] 	12180
scalar tree_4_3_u01_r1_network.client[20] 	avg_time[20] 	0.00429762263
scalar tree_4_3_u01_r1_network.client[21] 	hdistance[21] 	2.7985485485485
scalar tree_4_3_u01_r1_network.client[21] 	downloads[21] 	11988
scalar tree_4_3_u01_r1_network.client[21] 	avg_time[21] 	0.004234731286
scalar tree_4_3_u01_r1_network.client[22] 	hdistance[22] 	2.8305338433394
scalar tree_4_3_u01_r1_network.client[22] 	downloads[22] 	12026
scalar tree_4_3_u01_r1_network.client[22] 	avg_time[22] 	0.004277562284
scalar tree_4_3_u01_r1_network.client[23] 	hdistance[23] 	2.8395488598008
scalar tree_4_3_u01_r1_network.client[23] 	downloads[23] 	12147
scalar tree_4_3_u01_r1_network.client[23] 	avg_time[23] 	0.004292414835
scalar tree_4_3_u01_r1_network.client[24] 	hdistance[24] 	2.8189589504867
scalar tree_4_3_u01_r1_network.client[24] 	downloads[24] 	11815
scalar tree_4_3_u01_r1_network.client[24] 	avg_time[24] 	0.004262375372
scalar tree_4_3_u01_r1_network.client[25] 	hdistance[25] 	2.8191498352066
scalar tree_4_3_u01_r1_network.client[25] 	downloads[25] 	11833
scalar tree_4_3_u01_r1_network.client[25] 	avg_time[25] 	0.004262652321
scalar tree_4_3_u01_r1_network.client[26] 	hdistance[26] 	2.8253523448446
scalar tree_4_3_u01_r1_network.client[26] 	downloads[26] 	12133
scalar tree_4_3_u01_r1_network.client[26] 	avg_time[26] 	0.00427255436
scalar tree_4_3_u01_r1_network.client[27] 	hdistance[27] 	2.8293393243468
scalar tree_4_3_u01_r1_network.client[27] 	downloads[27] 	12018
scalar tree_4_3_u01_r1_network.client[27] 	avg_time[27] 	0.00427691495
scalar tree_4_3_u01_r1_network.client[28] 	hdistance[28] 	2.8307027745473
scalar tree_4_3_u01_r1_network.client[28] 	downloads[28] 	12038
scalar tree_4_3_u01_r1_network.client[28] 	avg_time[28] 	0.004279777703
scalar tree_4_3_u01_r1_network.client[29] 	hdistance[29] 	2.8385843049698
scalar tree_4_3_u01_r1_network.client[29] 	downloads[29] 	12093
scalar tree_4_3_u01_r1_network.client[29] 	avg_time[29] 	0.004290412936
scalar tree_4_3_u01_r1_network.client[30] 	hdistance[30] 	2.8650199600798
scalar tree_4_3_u01_r1_network.client[30] 	downloads[30] 	12024
scalar tree_4_3_u01_r1_network.client[30] 	avg_time[30] 	0.004332664983
scalar tree_4_3_u01_r1_network.client[31] 	hdistance[31] 	2.8209384501602
scalar tree_4_3_u01_r1_network.client[31] 	downloads[31] 	12169
scalar tree_4_3_u01_r1_network.client[31] 	avg_time[31] 	0.00426554076
scalar tree_4_3_u01_r1_network.client[32] 	hdistance[32] 	2.817770326907
scalar tree_4_3_u01_r1_network.client[32] 	downloads[32] 	11930
scalar tree_4_3_u01_r1_network.client[32] 	avg_time[32] 	0.00426269534
scalar tree_4_3_u01_r1_network.client[33] 	hdistance[33] 	2.8352649006622
scalar tree_4_3_u01_r1_network.client[33] 	downloads[33] 	12080
scalar tree_4_3_u01_r1_network.client[33] 	avg_time[33] 	0.004287745336
scalar tree_4_3_u01_r1_network.client[34] 	hdistance[34] 	2.837292358804
scalar tree_4_3_u01_r1_network.client[34] 	downloads[34] 	12040
scalar tree_4_3_u01_r1_network.client[34] 	avg_time[34] 	0.004282887377
scalar tree_4_3_u01_r1_network.client[35] 	hdistance[35] 	2.8884892086331
scalar tree_4_3_u01_r1_network.client[35] 	downloads[35] 	11954
scalar tree_4_3_u01_r1_network.client[35] 	avg_time[35] 	0.004359083677
scalar tree_4_3_u01_r1_network.client[36] 	hdistance[36] 	2.891912448238
scalar tree_4_3_u01_r1_network.client[36] 	downloads[36] 	11833
scalar tree_4_3_u01_r1_network.client[36] 	avg_time[36] 	0.004367932905
scalar tree_4_3_u01_r1_network.client[37] 	hdistance[37] 	2.8467110741049
scalar tree_4_3_u01_r1_network.client[37] 	downloads[37] 	12010
scalar tree_4_3_u01_r1_network.client[37] 	avg_time[37] 	0.004303410804
scalar tree_4_3_u01_r1_network.client[38] 	hdistance[38] 	2.8794379313212
scalar tree_4_3_u01_r1_network.client[38] 	downloads[38] 	12027
scalar tree_4_3_u01_r1_network.client[38] 	avg_time[38] 	0.004348546089
scalar tree_4_3_u01_r1_network.client[39] 	hdistance[39] 	2.8441547589204
scalar tree_4_3_u01_r1_network.client[39] 	downloads[39] 	11967
scalar tree_4_3_u01_r1_network.client[39] 	avg_time[39] 	0.004294596264
