version 2
run General-178-20160820-05:46:25-14346
attr a 0.9
attr cd fix0.1
attr configname General
attr cr lru
attr datetime 20160820-05:46:25
attr experiment General
attr fsize 1
attr inifile hw5115/scenario_A/SPR-FIX0.1.ini
attr iterationvars "$name=tree_4_3, $un=08, $rep=19, $cd=fix0.1, $cr=lru, $fsize=1, $a=0.9, $sl=spr, $ttl=1000, $variance=0.05"
attr iterationvars2 "$name=tree_4_3, $un=08, $rep=19, $cd=fix0.1, $cr=lru, $fsize=1, $a=0.9, $sl=spr, $ttl=1000, $variance=0.05, $repetition=0"
attr measurement "$name=tree_4_3, $un=08, $rep=19, $cd=fix0.1, $cr=lru, $fsize=1, $a=0.9, $sl=spr, $ttl=1000, $variance=0.05"
attr name tree_4_3
attr network networks.${name}_u${un}_r${rep}_network
attr processid 14346
attr rep 19
attr repetition 0
attr replication #0
attr resultdir results
attr runnumber 178
attr seedset 19
attr sl spr
attr ttl 1000
attr un 08
attr variance 0.05

scalar . 	a 	0.9
scalar . 	fsize 	1
scalar . 	rep 	19
scalar . 	ttl 	1000
scalar . 	un 	08
scalar . 	variance 	0.05
scalar tree_4_3_u08_r19_network.content_distribution 	repo-0 	0
scalar tree_4_3_u08_r19_network.content_distribution 	client-0 	13
scalar tree_4_3_u08_r19_network.content_distribution 	client-1 	14
scalar tree_4_3_u08_r19_network.content_distribution 	client-2 	15
scalar tree_4_3_u08_r19_network.content_distribution 	client-3 	16
scalar tree_4_3_u08_r19_network.content_distribution 	client-4 	17
scalar tree_4_3_u08_r19_network.content_distribution 	client-5 	18
scalar tree_4_3_u08_r19_network.content_distribution 	client-6 	19
scalar tree_4_3_u08_r19_network.content_distribution 	client-7 	20
scalar tree_4_3_u08_r19_network.content_distribution 	client-8 	21
scalar tree_4_3_u08_r19_network.content_distribution 	client-9 	22
scalar tree_4_3_u08_r19_network.content_distribution 	client-10 	23
scalar tree_4_3_u08_r19_network.content_distribution 	client-11 	24
scalar tree_4_3_u08_r19_network.content_distribution 	client-12 	25
scalar tree_4_3_u08_r19_network.content_distribution 	client-13 	26
scalar tree_4_3_u08_r19_network.content_distribution 	client-14 	27
scalar tree_4_3_u08_r19_network.content_distribution 	client-15 	28
scalar tree_4_3_u08_r19_network.content_distribution 	client-16 	29
scalar tree_4_3_u08_r19_network.content_distribution 	client-17 	30
scalar tree_4_3_u08_r19_network.content_distribution 	client-18 	31
scalar tree_4_3_u08_r19_network.content_distribution 	client-19 	32
scalar tree_4_3_u08_r19_network.content_distribution 	client-20 	33
scalar tree_4_3_u08_r19_network.content_distribution 	client-21 	34
scalar tree_4_3_u08_r19_network.content_distribution 	client-22 	35
scalar tree_4_3_u08_r19_network.content_distribution 	client-23 	36
scalar tree_4_3_u08_r19_network.content_distribution 	client-24 	37
scalar tree_4_3_u08_r19_network.content_distribution 	client-25 	38
scalar tree_4_3_u08_r19_network.content_distribution 	client-26 	39
scalar tree_4_3_u08_r19_network.content_distribution 	repo-0_card 	100000
scalar tree_4_3_u08_r19_network.content_distribution 	repo-0_price 	0
scalar tree_4_3_u08_r19_network.statistics 	stabilization_time 	1040.8
scalar tree_4_3_u08_r19_network.statistics 	p_hit 	0.14963709007597
scalar tree_4_3_u08_r19_network.statistics 	interests 	26744.325
scalar tree_4_3_u08_r19_network.statistics 	data 	18659.35
scalar tree_4_3_u08_r19_network.statistics 	hdistance 	3.0424675877642
scalar tree_4_3_u08_r19_network.statistics 	avg_time 	0.004615858947
scalar tree_4_3_u08_r19_network.statistics 	downloads 	323400
scalar tree_4_3_u08_r19_network.statistics 	total_cost 	0
scalar tree_4_3_u08_r19_network.statistics 	total_replicas 	100000
scalar tree_4_3_u08_r19_network.statistics 	inner_hit 	0.26556586270872
scalar tree_4_3_u08_r19_network.node[0].core_layer 	interests[0] 	242019
scalar tree_4_3_u08_r19_network.node[0].core_layer 	repo_load[0] 	237516
scalar tree_4_3_u08_r19_network.node[0].core_layer 	data[0] 	0
scalar tree_4_3_u08_r19_network.node[0].core_layer 	repo_int[0] 	237516
scalar tree_4_3_u08_r19_network.node[0].content_store 	p_hit[0] 	0.018605977216665
scalar tree_4_3_u08_r19_network.node[0].content_store 	hits[0] 	4503
scalar tree_4_3_u08_r19_network.node[0].content_store 	misses[0] 	237516
scalar tree_4_3_u08_r19_network.node[0].content_store 	decision_yes[0] 	23805
scalar tree_4_3_u08_r19_network.node[0].content_store 	decision_no[0] 	213711
scalar tree_4_3_u08_r19_network.node[0].content_store 	decision_ratio[0] 	0.10022482695903
scalar tree_4_3_u08_r19_network.node[1].core_layer 	interests[1] 	82691
scalar tree_4_3_u08_r19_network.node[1].core_layer 	data[1] 	80701
scalar tree_4_3_u08_r19_network.node[1].content_store 	p_hit[1] 	0.024029217206226
scalar tree_4_3_u08_r19_network.node[1].content_store 	hits[1] 	1987
scalar tree_4_3_u08_r19_network.node[1].content_store 	misses[1] 	80704
scalar tree_4_3_u08_r19_network.node[1].content_store 	decision_yes[1] 	8071
scalar tree_4_3_u08_r19_network.node[1].content_store 	decision_no[1] 	72630
scalar tree_4_3_u08_r19_network.node[1].content_store 	decision_ratio[1] 	0.10001115227816
scalar tree_4_3_u08_r19_network.node[2].core_layer 	interests[2] 	128258
scalar tree_4_3_u08_r19_network.node[2].core_layer 	data[2] 	125364
scalar tree_4_3_u08_r19_network.node[2].content_store 	p_hit[2] 	0.022485926803786
scalar tree_4_3_u08_r19_network.node[2].content_store 	hits[2] 	2884
scalar tree_4_3_u08_r19_network.node[2].content_store 	misses[2] 	125374
scalar tree_4_3_u08_r19_network.node[2].content_store 	decision_yes[2] 	12526
scalar tree_4_3_u08_r19_network.node[2].content_store 	decision_no[2] 	112838
scalar tree_4_3_u08_r19_network.node[2].content_store 	decision_ratio[2] 	0.099917041574934
scalar tree_4_3_u08_r19_network.node[3].core_layer 	interests[3] 	36805
scalar tree_4_3_u08_r19_network.node[3].core_layer 	data[3] 	35954
scalar tree_4_3_u08_r19_network.node[3].content_store 	p_hit[3] 	0.023121858443146
scalar tree_4_3_u08_r19_network.node[3].content_store 	hits[3] 	851
scalar tree_4_3_u08_r19_network.node[3].content_store 	misses[3] 	35954
scalar tree_4_3_u08_r19_network.node[3].content_store 	decision_yes[3] 	3564
scalar tree_4_3_u08_r19_network.node[3].content_store 	decision_no[3] 	32390
scalar tree_4_3_u08_r19_network.node[3].content_store 	decision_ratio[3] 	0.099126661845692
scalar tree_4_3_u08_r19_network.node[4].core_layer 	interests[4] 	47319
scalar tree_4_3_u08_r19_network.node[4].core_layer 	data[4] 	45860
scalar tree_4_3_u08_r19_network.node[4].content_store 	p_hit[4] 	0.030812147340392
scalar tree_4_3_u08_r19_network.node[4].content_store 	hits[4] 	1458
scalar tree_4_3_u08_r19_network.node[4].content_store 	misses[4] 	45861
scalar tree_4_3_u08_r19_network.node[4].content_store 	decision_yes[4] 	4677
scalar tree_4_3_u08_r19_network.node[4].content_store 	decision_no[4] 	41183
scalar tree_4_3_u08_r19_network.node[4].content_store 	decision_ratio[4] 	0.10198430004361
scalar tree_4_3_u08_r19_network.node[5].core_layer 	interests[5] 	28547
scalar tree_4_3_u08_r19_network.node[5].core_layer 	data[5] 	27501
scalar tree_4_3_u08_r19_network.node[5].content_store 	p_hit[5] 	0.036676358286335
scalar tree_4_3_u08_r19_network.node[5].content_store 	hits[5] 	1047
scalar tree_4_3_u08_r19_network.node[5].content_store 	misses[5] 	27500
scalar tree_4_3_u08_r19_network.node[5].content_store 	decision_yes[5] 	2820
scalar tree_4_3_u08_r19_network.node[5].content_store 	decision_no[5] 	24681
scalar tree_4_3_u08_r19_network.node[5].content_store 	decision_ratio[5] 	0.10254172575543
scalar tree_4_3_u08_r19_network.node[6].core_layer 	interests[6] 	9753
scalar tree_4_3_u08_r19_network.node[6].core_layer 	data[6] 	9331
scalar tree_4_3_u08_r19_network.node[6].content_store 	p_hit[6] 	0.043268737824259
scalar tree_4_3_u08_r19_network.node[6].content_store 	hits[6] 	422
scalar tree_4_3_u08_r19_network.node[6].content_store 	misses[6] 	9331
scalar tree_4_3_u08_r19_network.node[6].content_store 	decision_yes[6] 	928
scalar tree_4_3_u08_r19_network.node[6].content_store 	decision_no[6] 	8403
scalar tree_4_3_u08_r19_network.node[6].content_store 	decision_ratio[6] 	0.099453434787268
scalar tree_4_3_u08_r19_network.node[7].core_layer 	interests[7] 	47740
scalar tree_4_3_u08_r19_network.node[7].core_layer 	data[7] 	46099
scalar tree_4_3_u08_r19_network.node[7].content_store 	p_hit[7] 	0.034331797235023
scalar tree_4_3_u08_r19_network.node[7].content_store 	hits[7] 	1639
scalar tree_4_3_u08_r19_network.node[7].content_store 	misses[7] 	46101
scalar tree_4_3_u08_r19_network.node[7].content_store 	decision_yes[7] 	4634
scalar tree_4_3_u08_r19_network.node[7].content_store 	decision_no[7] 	41465
scalar tree_4_3_u08_r19_network.node[7].content_store 	decision_ratio[7] 	0.10052278791297
scalar tree_4_3_u08_r19_network.node[8].core_layer 	interests[8] 	28404
scalar tree_4_3_u08_r19_network.node[8].core_layer 	data[8] 	27311
scalar tree_4_3_u08_r19_network.node[8].content_store 	p_hit[8] 	0.03848049570483
scalar tree_4_3_u08_r19_network.node[8].content_store 	hits[8] 	1093
scalar tree_4_3_u08_r19_network.node[8].content_store 	misses[8] 	27311
scalar tree_4_3_u08_r19_network.node[8].content_store 	decision_yes[8] 	2669
scalar tree_4_3_u08_r19_network.node[8].content_store 	decision_no[8] 	24642
scalar tree_4_3_u08_r19_network.node[8].content_store 	decision_ratio[8] 	0.097726190912087
scalar tree_4_3_u08_r19_network.node[9].core_layer 	interests[9] 	9342
scalar tree_4_3_u08_r19_network.node[9].core_layer 	data[9] 	9031
scalar tree_4_3_u08_r19_network.node[9].content_store 	p_hit[9] 	0.033290515949475
scalar tree_4_3_u08_r19_network.node[9].content_store 	hits[9] 	311
scalar tree_4_3_u08_r19_network.node[9].content_store 	misses[9] 	9031
scalar tree_4_3_u08_r19_network.node[9].content_store 	decision_yes[9] 	866
scalar tree_4_3_u08_r19_network.node[9].content_store 	decision_no[9] 	8165
scalar tree_4_3_u08_r19_network.node[9].content_store 	decision_ratio[9] 	0.09589192780423
scalar tree_4_3_u08_r19_network.node[10].core_layer 	interests[10] 	19288
scalar tree_4_3_u08_r19_network.node[10].core_layer 	data[10] 	18574
scalar tree_4_3_u08_r19_network.node[10].content_store 	p_hit[10] 	0.037017834923268
scalar tree_4_3_u08_r19_network.node[10].content_store 	hits[10] 	714
scalar tree_4_3_u08_r19_network.node[10].content_store 	misses[10] 	18574
scalar tree_4_3_u08_r19_network.node[10].content_store 	decision_yes[10] 	1849
scalar tree_4_3_u08_r19_network.node[10].content_store 	decision_no[10] 	16725
scalar tree_4_3_u08_r19_network.node[10].content_store 	decision_ratio[10] 	0.099547754926241
scalar tree_4_3_u08_r19_network.node[11].core_layer 	interests[11] 	47324
scalar tree_4_3_u08_r19_network.node[11].core_layer 	data[11] 	45816
scalar tree_4_3_u08_r19_network.node[11].content_store 	p_hit[11] 	0.031759783619305
scalar tree_4_3_u08_r19_network.node[11].content_store 	hits[11] 	1503
scalar tree_4_3_u08_r19_network.node[11].content_store 	misses[11] 	45821
scalar tree_4_3_u08_r19_network.node[11].content_store 	decision_yes[11] 	4554
scalar tree_4_3_u08_r19_network.node[11].content_store 	decision_no[11] 	41262
scalar tree_4_3_u08_r19_network.node[11].content_store 	decision_ratio[11] 	0.099397590361446
scalar tree_4_3_u08_r19_network.node[12].core_layer 	interests[12] 	18882
scalar tree_4_3_u08_r19_network.node[12].core_layer 	data[12] 	18231
scalar tree_4_3_u08_r19_network.node[12].content_store 	p_hit[12] 	0.034477279949158
scalar tree_4_3_u08_r19_network.node[12].content_store 	hits[12] 	651
scalar tree_4_3_u08_r19_network.node[12].content_store 	misses[12] 	18231
scalar tree_4_3_u08_r19_network.node[12].content_store 	decision_yes[12] 	1843
scalar tree_4_3_u08_r19_network.node[12].content_store 	decision_no[12] 	16388
scalar tree_4_3_u08_r19_network.node[12].content_store 	decision_ratio[12] 	0.10109154736438
scalar tree_4_3_u08_r19_network.node[13].core_layer 	interests[13] 	12084
scalar tree_4_3_u08_r19_network.node[13].core_layer 	data[13] 	9546
scalar tree_4_3_u08_r19_network.node[13].content_store 	p_hit[13] 	0.21002979145978
scalar tree_4_3_u08_r19_network.node[13].content_store 	hits[13] 	2538
scalar tree_4_3_u08_r19_network.node[13].content_store 	misses[13] 	9546
scalar tree_4_3_u08_r19_network.node[13].content_store 	decision_yes[13] 	976
scalar tree_4_3_u08_r19_network.node[13].content_store 	decision_no[13] 	8570
scalar tree_4_3_u08_r19_network.node[13].content_store 	decision_ratio[13] 	0.10224177666038
scalar tree_4_3_u08_r19_network.node[14].core_layer 	interests[14] 	11957
scalar tree_4_3_u08_r19_network.node[14].core_layer 	data[14] 	9430
scalar tree_4_3_u08_r19_network.node[14].content_store 	p_hit[14] 	0.21142427030192
scalar tree_4_3_u08_r19_network.node[14].content_store 	hits[14] 	2528
scalar tree_4_3_u08_r19_network.node[14].content_store 	misses[14] 	9429
scalar tree_4_3_u08_r19_network.node[14].content_store 	decision_yes[14] 	944
scalar tree_4_3_u08_r19_network.node[14].content_store 	decision_no[14] 	8486
scalar tree_4_3_u08_r19_network.node[14].content_store 	decision_ratio[14] 	0.10010604453871
scalar tree_4_3_u08_r19_network.node[15].core_layer 	interests[15] 	11982
scalar tree_4_3_u08_r19_network.node[15].core_layer 	data[15] 	9515
scalar tree_4_3_u08_r19_network.node[15].content_store 	p_hit[15] 	0.20589217159072
scalar tree_4_3_u08_r19_network.node[15].content_store 	hits[15] 	2467
scalar tree_4_3_u08_r19_network.node[15].content_store 	misses[15] 	9515
scalar tree_4_3_u08_r19_network.node[15].content_store 	decision_yes[15] 	971
scalar tree_4_3_u08_r19_network.node[15].content_store 	decision_no[15] 	8544
scalar tree_4_3_u08_r19_network.node[15].content_store 	decision_ratio[15] 	0.10204939569101
scalar tree_4_3_u08_r19_network.node[16].core_layer 	interests[16] 	11947
scalar tree_4_3_u08_r19_network.node[16].core_layer 	data[16] 	9441
scalar tree_4_3_u08_r19_network.node[16].content_store 	p_hit[16] 	0.20975977232778
scalar tree_4_3_u08_r19_network.node[16].content_store 	hits[16] 	2506
scalar tree_4_3_u08_r19_network.node[16].content_store 	misses[16] 	9441
scalar tree_4_3_u08_r19_network.node[16].content_store 	decision_yes[16] 	949
scalar tree_4_3_u08_r19_network.node[16].content_store 	decision_no[16] 	8492
scalar tree_4_3_u08_r19_network.node[16].content_store 	decision_ratio[16] 	0.10051901281644
scalar tree_4_3_u08_r19_network.node[17].core_layer 	interests[17] 	11973
scalar tree_4_3_u08_r19_network.node[17].core_layer 	data[17] 	9468
scalar tree_4_3_u08_r19_network.node[17].content_store 	p_hit[17] 	0.20930426793619
scalar tree_4_3_u08_r19_network.node[17].content_store 	hits[17] 	2506
scalar tree_4_3_u08_r19_network.node[17].content_store 	misses[17] 	9467
scalar tree_4_3_u08_r19_network.node[17].content_store 	decision_yes[17] 	948
scalar tree_4_3_u08_r19_network.node[17].content_store 	decision_no[17] 	8520
scalar tree_4_3_u08_r19_network.node[17].content_store 	decision_ratio[17] 	0.10012674271229
scalar tree_4_3_u08_r19_network.node[18].core_layer 	interests[18] 	12086
scalar tree_4_3_u08_r19_network.node[18].core_layer 	data[18] 	9618
scalar tree_4_3_u08_r19_network.node[18].content_store 	p_hit[18] 	0.204203210326
scalar tree_4_3_u08_r19_network.node[18].content_store 	hits[18] 	2468
scalar tree_4_3_u08_r19_network.node[18].content_store 	misses[18] 	9618
scalar tree_4_3_u08_r19_network.node[18].content_store 	decision_yes[18] 	951
scalar tree_4_3_u08_r19_network.node[18].content_store 	decision_no[18] 	8667
scalar tree_4_3_u08_r19_network.node[18].content_store 	decision_ratio[18] 	0.098877105427324
scalar tree_4_3_u08_r19_network.node[19].core_layer 	interests[19] 	11941
scalar tree_4_3_u08_r19_network.node[19].core_layer 	data[19] 	9388
scalar tree_4_3_u08_r19_network.node[19].content_store 	p_hit[19] 	0.21380118918014
scalar tree_4_3_u08_r19_network.node[19].content_store 	hits[19] 	2553
scalar tree_4_3_u08_r19_network.node[19].content_store 	misses[19] 	9388
scalar tree_4_3_u08_r19_network.node[19].content_store 	decision_yes[19] 	934
scalar tree_4_3_u08_r19_network.node[19].content_store 	decision_no[19] 	8454
scalar tree_4_3_u08_r19_network.node[19].content_store 	decision_ratio[19] 	0.0994887089902
scalar tree_4_3_u08_r19_network.node[20].core_layer 	interests[20] 	11979
scalar tree_4_3_u08_r19_network.node[20].core_layer 	data[20] 	9462
scalar tree_4_3_u08_r19_network.node[20].content_store 	p_hit[20] 	0.21011770598547
scalar tree_4_3_u08_r19_network.node[20].content_store 	hits[20] 	2517
scalar tree_4_3_u08_r19_network.node[20].content_store 	misses[20] 	9462
scalar tree_4_3_u08_r19_network.node[20].content_store 	decision_yes[20] 	946
scalar tree_4_3_u08_r19_network.node[20].content_store 	decision_no[20] 	8516
scalar tree_4_3_u08_r19_network.node[20].content_store 	decision_ratio[20] 	0.0999788628197
scalar tree_4_3_u08_r19_network.node[21].core_layer 	interests[21] 	12115
scalar tree_4_3_u08_r19_network.node[21].core_layer 	data[21] 	9753
scalar tree_4_3_u08_r19_network.node[21].content_store 	p_hit[21] 	0.19496491952125
scalar tree_4_3_u08_r19_network.node[21].content_store 	hits[21] 	2362
scalar tree_4_3_u08_r19_network.node[21].content_store 	misses[21] 	9753
scalar tree_4_3_u08_r19_network.node[21].content_store 	decision_yes[21] 	1019
scalar tree_4_3_u08_r19_network.node[21].content_store 	decision_no[21] 	8734
scalar tree_4_3_u08_r19_network.node[21].content_store 	decision_ratio[21] 	0.10448067261355
scalar tree_4_3_u08_r19_network.node[22].core_layer 	interests[22] 	12054
scalar tree_4_3_u08_r19_network.node[22].core_layer 	data[22] 	9619
scalar tree_4_3_u08_r19_network.node[22].content_store 	p_hit[22] 	0.20200763232122
scalar tree_4_3_u08_r19_network.node[22].content_store 	hits[22] 	2435
scalar tree_4_3_u08_r19_network.node[22].content_store 	misses[22] 	9619
scalar tree_4_3_u08_r19_network.node[22].content_store 	decision_yes[22] 	948
scalar tree_4_3_u08_r19_network.node[22].content_store 	decision_no[22] 	8671
scalar tree_4_3_u08_r19_network.node[22].content_store 	decision_ratio[22] 	0.098554943341304
scalar tree_4_3_u08_r19_network.node[23].core_layer 	interests[23] 	11876
scalar tree_4_3_u08_r19_network.node[23].core_layer 	data[23] 	9502
scalar tree_4_3_u08_r19_network.node[23].content_store 	p_hit[23] 	0.1998989558774
scalar tree_4_3_u08_r19_network.node[23].content_store 	hits[23] 	2374
scalar tree_4_3_u08_r19_network.node[23].content_store 	misses[23] 	9502
scalar tree_4_3_u08_r19_network.node[23].content_store 	decision_yes[23] 	963
scalar tree_4_3_u08_r19_network.node[23].content_store 	decision_no[23] 	8539
scalar tree_4_3_u08_r19_network.node[23].content_store 	decision_ratio[23] 	0.10134708482425
scalar tree_4_3_u08_r19_network.node[24].core_layer 	interests[24] 	11975
scalar tree_4_3_u08_r19_network.node[24].core_layer 	data[24] 	9542
scalar tree_4_3_u08_r19_network.node[24].content_store 	p_hit[24] 	0.20308977035491
scalar tree_4_3_u08_r19_network.node[24].content_store 	hits[24] 	2432
scalar tree_4_3_u08_r19_network.node[24].content_store 	misses[24] 	9543
scalar tree_4_3_u08_r19_network.node[24].content_store 	decision_yes[24] 	925
scalar tree_4_3_u08_r19_network.node[24].content_store 	decision_no[24] 	8617
scalar tree_4_3_u08_r19_network.node[24].content_store 	decision_ratio[24] 	0.096939844896248
scalar tree_4_3_u08_r19_network.node[25].core_layer 	interests[25] 	12022
scalar tree_4_3_u08_r19_network.node[25].core_layer 	data[25] 	9609
scalar tree_4_3_u08_r19_network.node[25].content_store 	p_hit[25] 	0.20071535518217
scalar tree_4_3_u08_r19_network.node[25].content_store 	hits[25] 	2413
scalar tree_4_3_u08_r19_network.node[25].content_store 	misses[25] 	9609
scalar tree_4_3_u08_r19_network.node[25].content_store 	decision_yes[25] 	971
scalar tree_4_3_u08_r19_network.node[25].content_store 	decision_no[25] 	8638
scalar tree_4_3_u08_r19_network.node[25].content_store 	decision_ratio[25] 	0.10105109792902
scalar tree_4_3_u08_r19_network.node[26].core_layer 	interests[26] 	11921
scalar tree_4_3_u08_r19_network.node[26].core_layer 	data[26] 	9425
scalar tree_4_3_u08_r19_network.node[26].content_store 	p_hit[26] 	0.20937840785169
scalar tree_4_3_u08_r19_network.node[26].content_store 	hits[26] 	2496
scalar tree_4_3_u08_r19_network.node[26].content_store 	misses[26] 	9425
scalar tree_4_3_u08_r19_network.node[26].content_store 	decision_yes[26] 	931
scalar tree_4_3_u08_r19_network.node[26].content_store 	decision_no[26] 	8494
scalar tree_4_3_u08_r19_network.node[26].content_store 	decision_ratio[26] 	0.098779840848806
scalar tree_4_3_u08_r19_network.node[27].core_layer 	interests[27] 	11853
scalar tree_4_3_u08_r19_network.node[27].core_layer 	data[27] 	9428
scalar tree_4_3_u08_r19_network.node[27].content_store 	p_hit[27] 	0.20450518855986
scalar tree_4_3_u08_r19_network.node[27].content_store 	hits[27] 	2424
scalar tree_4_3_u08_r19_network.node[27].content_store 	misses[27] 	9429
scalar tree_4_3_u08_r19_network.node[27].content_store 	decision_yes[27] 	975
scalar tree_4_3_u08_r19_network.node[27].content_store 	decision_no[27] 	8453
scalar tree_4_3_u08_r19_network.node[27].content_store 	decision_ratio[27] 	0.10341535850658
scalar tree_4_3_u08_r19_network.node[28].core_layer 	interests[28] 	11988
scalar tree_4_3_u08_r19_network.node[28].core_layer 	data[28] 	9468
scalar tree_4_3_u08_r19_network.node[28].content_store 	p_hit[28] 	0.21012679346013
scalar tree_4_3_u08_r19_network.node[28].content_store 	hits[28] 	2519
scalar tree_4_3_u08_r19_network.node[28].content_store 	misses[28] 	9469
scalar tree_4_3_u08_r19_network.node[28].content_store 	decision_yes[28] 	986
scalar tree_4_3_u08_r19_network.node[28].content_store 	decision_no[28] 	8482
scalar tree_4_3_u08_r19_network.node[28].content_store 	decision_ratio[28] 	0.10414026193494
scalar tree_4_3_u08_r19_network.node[29].core_layer 	interests[29] 	11868
scalar tree_4_3_u08_r19_network.node[29].core_layer 	data[29] 	9551
scalar tree_4_3_u08_r19_network.node[29].content_store 	p_hit[29] 	0.19523087293563
scalar tree_4_3_u08_r19_network.node[29].content_store 	hits[29] 	2317
scalar tree_4_3_u08_r19_network.node[29].content_store 	misses[29] 	9551
scalar tree_4_3_u08_r19_network.node[29].content_store 	decision_yes[29] 	984
scalar tree_4_3_u08_r19_network.node[29].content_store 	decision_no[29] 	8567
scalar tree_4_3_u08_r19_network.node[29].content_store 	decision_ratio[29] 	0.10302586116637
scalar tree_4_3_u08_r19_network.node[30].core_layer 	interests[30] 	11967
scalar tree_4_3_u08_r19_network.node[30].core_layer 	data[30] 	9342
scalar tree_4_3_u08_r19_network.node[30].content_store 	p_hit[30] 	0.21935322135874
scalar tree_4_3_u08_r19_network.node[30].content_store 	hits[30] 	2625
scalar tree_4_3_u08_r19_network.node[30].content_store 	misses[30] 	9342
scalar tree_4_3_u08_r19_network.node[30].content_store 	decision_yes[30] 	917
scalar tree_4_3_u08_r19_network.node[30].content_store 	decision_no[30] 	8425
scalar tree_4_3_u08_r19_network.node[30].content_store 	decision_ratio[30] 	0.098158852494113
scalar tree_4_3_u08_r19_network.node[31].core_layer 	interests[31] 	12018
scalar tree_4_3_u08_r19_network.node[31].core_layer 	data[31] 	9624
scalar tree_4_3_u08_r19_network.node[31].content_store 	p_hit[31] 	0.1992011982027
scalar tree_4_3_u08_r19_network.node[31].content_store 	hits[31] 	2394
scalar tree_4_3_u08_r19_network.node[31].content_store 	misses[31] 	9624
scalar tree_4_3_u08_r19_network.node[31].content_store 	decision_yes[31] 	910
scalar tree_4_3_u08_r19_network.node[31].content_store 	decision_no[31] 	8714
scalar tree_4_3_u08_r19_network.node[31].content_store 	decision_ratio[31] 	0.09455527847049
scalar tree_4_3_u08_r19_network.node[32].core_layer 	interests[32] 	12080
scalar tree_4_3_u08_r19_network.node[32].core_layer 	data[32] 	9512
scalar tree_4_3_u08_r19_network.node[32].content_store 	p_hit[32] 	0.21258278145695
scalar tree_4_3_u08_r19_network.node[32].content_store 	hits[32] 	2568
scalar tree_4_3_u08_r19_network.node[32].content_store 	misses[32] 	9512
scalar tree_4_3_u08_r19_network.node[32].content_store 	decision_yes[32] 	955
scalar tree_4_3_u08_r19_network.node[32].content_store 	decision_no[32] 	8557
scalar tree_4_3_u08_r19_network.node[32].content_store 	decision_ratio[32] 	0.10039949537426
scalar tree_4_3_u08_r19_network.node[33].core_layer 	interests[33] 	12068
scalar tree_4_3_u08_r19_network.node[33].core_layer 	data[33] 	9664
scalar tree_4_3_u08_r19_network.node[33].content_store 	p_hit[33] 	0.19920450778919
scalar tree_4_3_u08_r19_network.node[33].content_store 	hits[33] 	2404
scalar tree_4_3_u08_r19_network.node[33].content_store 	misses[33] 	9664
scalar tree_4_3_u08_r19_network.node[33].content_store 	decision_yes[33] 	940
scalar tree_4_3_u08_r19_network.node[33].content_store 	decision_no[33] 	8724
scalar tree_4_3_u08_r19_network.node[33].content_store 	decision_ratio[33] 	0.09726821192053
scalar tree_4_3_u08_r19_network.node[34].core_layer 	interests[34] 	12000
scalar tree_4_3_u08_r19_network.node[34].core_layer 	data[34] 	9494
scalar tree_4_3_u08_r19_network.node[34].content_store 	p_hit[34] 	0.20875
scalar tree_4_3_u08_r19_network.node[34].content_store 	hits[34] 	2505
scalar tree_4_3_u08_r19_network.node[34].content_store 	misses[34] 	9495
scalar tree_4_3_u08_r19_network.node[34].content_store 	decision_yes[34] 	964
scalar tree_4_3_u08_r19_network.node[34].content_store 	decision_no[34] 	8530
scalar tree_4_3_u08_r19_network.node[34].content_store 	decision_ratio[34] 	0.1015378133558
scalar tree_4_3_u08_r19_network.node[35].core_layer 	interests[35] 	12031
scalar tree_4_3_u08_r19_network.node[35].core_layer 	data[35] 	9507
scalar tree_4_3_u08_r19_network.node[35].content_store 	p_hit[35] 	0.20987449089851
scalar tree_4_3_u08_r19_network.node[35].content_store 	hits[35] 	2525
scalar tree_4_3_u08_r19_network.node[35].content_store 	misses[35] 	9506
scalar tree_4_3_u08_r19_network.node[35].content_store 	decision_yes[35] 	967
scalar tree_4_3_u08_r19_network.node[35].content_store 	decision_no[35] 	8540
scalar tree_4_3_u08_r19_network.node[35].content_store 	decision_ratio[35] 	0.10171452613863
scalar tree_4_3_u08_r19_network.node[36].core_layer 	interests[36] 	11866
scalar tree_4_3_u08_r19_network.node[36].core_layer 	data[36] 	9340
scalar tree_4_3_u08_r19_network.node[36].content_store 	p_hit[36] 	0.21287712792854
scalar tree_4_3_u08_r19_network.node[36].content_store 	hits[36] 	2526
scalar tree_4_3_u08_r19_network.node[36].content_store 	misses[36] 	9340
scalar tree_4_3_u08_r19_network.node[36].content_store 	decision_yes[36] 	901
scalar tree_4_3_u08_r19_network.node[36].content_store 	decision_no[36] 	8439
scalar tree_4_3_u08_r19_network.node[36].content_store 	decision_ratio[36] 	0.096466809421842
scalar tree_4_3_u08_r19_network.node[37].core_layer 	interests[37] 	11824
scalar tree_4_3_u08_r19_network.node[37].core_layer 	data[37] 	9286
scalar tree_4_3_u08_r19_network.node[37].content_store 	p_hit[37] 	0.21464817320704
scalar tree_4_3_u08_r19_network.node[37].content_store 	hits[37] 	2538
scalar tree_4_3_u08_r19_network.node[37].content_store 	misses[37] 	9286
scalar tree_4_3_u08_r19_network.node[37].content_store 	decision_yes[37] 	883
scalar tree_4_3_u08_r19_network.node[37].content_store 	decision_no[37] 	8403
scalar tree_4_3_u08_r19_network.node[37].content_store 	decision_ratio[37] 	0.095089381865173
scalar tree_4_3_u08_r19_network.node[38].core_layer 	interests[38] 	11938
scalar tree_4_3_u08_r19_network.node[38].core_layer 	data[38] 	9471
scalar tree_4_3_u08_r19_network.node[38].content_store 	p_hit[38] 	0.20665103032334
scalar tree_4_3_u08_r19_network.node[38].content_store 	hits[38] 	2467
scalar tree_4_3_u08_r19_network.node[38].content_store 	misses[38] 	9471
scalar tree_4_3_u08_r19_network.node[38].content_store 	decision_yes[38] 	927
scalar tree_4_3_u08_r19_network.node[38].content_store 	decision_no[38] 	8544
scalar tree_4_3_u08_r19_network.node[38].content_store 	decision_ratio[38] 	0.097877732024073
scalar tree_4_3_u08_r19_network.node[39].core_layer 	interests[39] 	11988
scalar tree_4_3_u08_r19_network.node[39].core_layer 	data[39] 	9596
scalar tree_4_3_u08_r19_network.node[39].content_store 	p_hit[39] 	0.19953286619953
scalar tree_4_3_u08_r19_network.node[39].content_store 	hits[39] 	2392
scalar tree_4_3_u08_r19_network.node[39].content_store 	misses[39] 	9596
scalar tree_4_3_u08_r19_network.node[39].content_store 	decision_yes[39] 	988
scalar tree_4_3_u08_r19_network.node[39].content_store 	decision_no[39] 	8608
scalar tree_4_3_u08_r19_network.node[39].content_store 	decision_ratio[39] 	0.10295956648604
scalar tree_4_3_u08_r19_network.client[13] 	hdistance[13] 	3.0345084409136
scalar tree_4_3_u08_r19_network.client[13] 	downloads[13] 	12084
scalar tree_4_3_u08_r19_network.client[13] 	avg_time[13] 	0.004603770528
scalar tree_4_3_u08_r19_network.client[14] 	hdistance[14] 	3.0341194179629
scalar tree_4_3_u08_r19_network.client[14] 	downloads[14] 	11958
scalar tree_4_3_u08_r19_network.client[14] 	avg_time[14] 	0.004603776915
scalar tree_4_3_u08_r19_network.client[15] 	hdistance[15] 	3.0501585711901
scalar tree_4_3_u08_r19_network.client[15] 	downloads[15] 	11982
scalar tree_4_3_u08_r19_network.client[15] 	avg_time[15] 	0.004629646471
scalar tree_4_3_u08_r19_network.client[16] 	hdistance[16] 	3.0334812086716
scalar tree_4_3_u08_r19_network.client[16] 	downloads[16] 	11947
scalar tree_4_3_u08_r19_network.client[16] 	avg_time[16] 	0.004603663209
scalar tree_4_3_u08_r19_network.client[17] 	hdistance[17] 	3.0365792550526
scalar tree_4_3_u08_r19_network.client[17] 	downloads[17] 	11974
scalar tree_4_3_u08_r19_network.client[17] 	avg_time[17] 	0.004605800376
scalar tree_4_3_u08_r19_network.client[18] 	hdistance[18] 	3.0448452755254
scalar tree_4_3_u08_r19_network.client[18] 	downloads[18] 	12086
scalar tree_4_3_u08_r19_network.client[18] 	avg_time[18] 	0.00462170803
scalar tree_4_3_u08_r19_network.client[19] 	hdistance[19] 	3.0200988191944
scalar tree_4_3_u08_r19_network.client[19] 	downloads[19] 	11941
scalar tree_4_3_u08_r19_network.client[19] 	avg_time[19] 	0.00458051791
scalar tree_4_3_u08_r19_network.client[20] 	hdistance[20] 	3.0122714750814
scalar tree_4_3_u08_r19_network.client[20] 	downloads[20] 	11979
scalar tree_4_3_u08_r19_network.client[20] 	avg_time[20] 	0.004573918175
scalar tree_4_3_u08_r19_network.client[21] 	hdistance[21] 	3.0652084193149
scalar tree_4_3_u08_r19_network.client[21] 	downloads[21] 	12115
scalar tree_4_3_u08_r19_network.client[21] 	avg_time[21] 	0.004654392351
scalar tree_4_3_u08_r19_network.client[22] 	hdistance[22] 	3.0561639289862
scalar tree_4_3_u08_r19_network.client[22] 	downloads[22] 	12054
scalar tree_4_3_u08_r19_network.client[22] 	avg_time[22] 	0.004638125381
scalar tree_4_3_u08_r19_network.client[23] 	hdistance[23] 	3.0716571236106
scalar tree_4_3_u08_r19_network.client[23] 	downloads[23] 	11876
scalar tree_4_3_u08_r19_network.client[23] 	avg_time[23] 	0.004661824666
scalar tree_4_3_u08_r19_network.client[24] 	hdistance[24] 	3.0562886253549
scalar tree_4_3_u08_r19_network.client[24] 	downloads[24] 	11974
scalar tree_4_3_u08_r19_network.client[24] 	avg_time[24] 	0.004636355842
scalar tree_4_3_u08_r19_network.client[25] 	hdistance[25] 	3.0620529030111
scalar tree_4_3_u08_r19_network.client[25] 	downloads[25] 	12022
scalar tree_4_3_u08_r19_network.client[25] 	avg_time[25] 	0.004642606649
scalar tree_4_3_u08_r19_network.client[26] 	hdistance[26] 	3.0233201912591
scalar tree_4_3_u08_r19_network.client[26] 	downloads[26] 	11921
scalar tree_4_3_u08_r19_network.client[26] 	avg_time[26] 	0.004587656209
scalar tree_4_3_u08_r19_network.client[27] 	hdistance[27] 	3.0507087411407
scalar tree_4_3_u08_r19_network.client[27] 	downloads[27] 	11852
scalar tree_4_3_u08_r19_network.client[27] 	avg_time[27] 	0.004625488846
scalar tree_4_3_u08_r19_network.client[28] 	hdistance[28] 	3.0305330775006
scalar tree_4_3_u08_r19_network.client[28] 	downloads[28] 	11987
scalar tree_4_3_u08_r19_network.client[28] 	avg_time[28] 	0.004598731157
scalar tree_4_3_u08_r19_network.client[29] 	hdistance[29] 	3.0684192787327
scalar tree_4_3_u08_r19_network.client[29] 	downloads[29] 	11868
scalar tree_4_3_u08_r19_network.client[29] 	avg_time[29] 	0.0046580534
scalar tree_4_3_u08_r19_network.client[30] 	hdistance[30] 	2.998495863625
scalar tree_4_3_u08_r19_network.client[30] 	downloads[30] 	11967
scalar tree_4_3_u08_r19_network.client[30] 	avg_time[30] 	0.004546332774
scalar tree_4_3_u08_r19_network.client[31] 	hdistance[31] 	3.0586620069895
scalar tree_4_3_u08_r19_network.client[31] 	downloads[31] 	12018
scalar tree_4_3_u08_r19_network.client[31] 	avg_time[31] 	0.004645029469
scalar tree_4_3_u08_r19_network.client[32] 	hdistance[32] 	3.0288907284768
scalar tree_4_3_u08_r19_network.client[32] 	downloads[32] 	12080
scalar tree_4_3_u08_r19_network.client[32] 	avg_time[32] 	0.004589787175
scalar tree_4_3_u08_r19_network.client[33] 	hdistance[33] 	3.0700198873053
scalar tree_4_3_u08_r19_network.client[33] 	downloads[33] 	12068
scalar tree_4_3_u08_r19_network.client[33] 	avg_time[33] 	0.004656278017
scalar tree_4_3_u08_r19_network.client[34] 	hdistance[34] 	3.0490040836737
scalar tree_4_3_u08_r19_network.client[34] 	downloads[34] 	11999
scalar tree_4_3_u08_r19_network.client[34] 	avg_time[34] 	0.004620548735
scalar tree_4_3_u08_r19_network.client[35] 	hdistance[35] 	3.040392287234
scalar tree_4_3_u08_r19_network.client[35] 	downloads[35] 	12032
scalar tree_4_3_u08_r19_network.client[35] 	avg_time[35] 	0.004608383299
scalar tree_4_3_u08_r19_network.client[36] 	hdistance[36] 	3.0361537165009
scalar tree_4_3_u08_r19_network.client[36] 	downloads[36] 	11866
scalar tree_4_3_u08_r19_network.client[36] 	avg_time[36] 	0.004601396502
scalar tree_4_3_u08_r19_network.client[37] 	hdistance[37] 	3.0116711772666
scalar tree_4_3_u08_r19_network.client[37] 	downloads[37] 	11824
scalar tree_4_3_u08_r19_network.client[37] 	avg_time[37] 	0.004569009221
scalar tree_4_3_u08_r19_network.client[38] 	hdistance[38] 	3.036186965991
scalar tree_4_3_u08_r19_network.client[38] 	downloads[38] 	11938
scalar tree_4_3_u08_r19_network.client[38] 	avg_time[38] 	0.004609237121
scalar tree_4_3_u08_r19_network.client[39] 	hdistance[39] 	3.0667334000667
scalar tree_4_3_u08_r19_network.client[39] 	downloads[39] 	11988
scalar tree_4_3_u08_r19_network.client[39] 	avg_time[39] 	0.004656153146
