version 2
run General-133-20160819-04:07:33-14109
attr a 0.9
attr cd fix0.01
attr configname General
attr cr lru
attr datetime 20160819-04:07:33
attr experiment General
attr fsize 1
attr inifile hw5115/scenario_A/NRR-FIX0.01.ini
attr iterationvars "$name=tree_4_3, $un=06, $rep=14, $cd=fix0.01, $cr=lru, $fsize=1, $a=0.9, $sl=nrr, $ttl=1000, $variance=0.05"
attr iterationvars2 "$name=tree_4_3, $un=06, $rep=14, $cd=fix0.01, $cr=lru, $fsize=1, $a=0.9, $sl=nrr, $ttl=1000, $variance=0.05, $repetition=0"
attr measurement "$name=tree_4_3, $un=06, $rep=14, $cd=fix0.01, $cr=lru, $fsize=1, $a=0.9, $sl=nrr, $ttl=1000, $variance=0.05"
attr name tree_4_3
attr network networks.${name}_u${un}_r${rep}_network
attr processid 14109
attr rep 14
attr repetition 0
attr replication #0
attr resultdir results
attr runnumber 133
attr seedset 14
attr sl nrr
attr ttl 1000
attr un 06
attr variance 0.05

scalar . 	a 	0.9
scalar . 	fsize 	1
scalar . 	rep 	14
scalar . 	ttl 	1000
scalar . 	un 	06
scalar . 	variance 	0.05
scalar tree_4_3_u06_r14_network.content_distribution 	repo-0 	0
scalar tree_4_3_u06_r14_network.content_distribution 	client-0 	13
scalar tree_4_3_u06_r14_network.content_distribution 	client-1 	14
scalar tree_4_3_u06_r14_network.content_distribution 	client-2 	15
scalar tree_4_3_u06_r14_network.content_distribution 	client-3 	16
scalar tree_4_3_u06_r14_network.content_distribution 	client-4 	17
scalar tree_4_3_u06_r14_network.content_distribution 	client-5 	18
scalar tree_4_3_u06_r14_network.content_distribution 	client-6 	19
scalar tree_4_3_u06_r14_network.content_distribution 	client-7 	20
scalar tree_4_3_u06_r14_network.content_distribution 	client-8 	21
scalar tree_4_3_u06_r14_network.content_distribution 	client-9 	22
scalar tree_4_3_u06_r14_network.content_distribution 	client-10 	23
scalar tree_4_3_u06_r14_network.content_distribution 	client-11 	24
scalar tree_4_3_u06_r14_network.content_distribution 	client-12 	25
scalar tree_4_3_u06_r14_network.content_distribution 	client-13 	26
scalar tree_4_3_u06_r14_network.content_distribution 	client-14 	27
scalar tree_4_3_u06_r14_network.content_distribution 	client-15 	28
scalar tree_4_3_u06_r14_network.content_distribution 	client-16 	29
scalar tree_4_3_u06_r14_network.content_distribution 	client-17 	30
scalar tree_4_3_u06_r14_network.content_distribution 	client-18 	31
scalar tree_4_3_u06_r14_network.content_distribution 	client-19 	32
scalar tree_4_3_u06_r14_network.content_distribution 	client-20 	33
scalar tree_4_3_u06_r14_network.content_distribution 	client-21 	34
scalar tree_4_3_u06_r14_network.content_distribution 	client-22 	35
scalar tree_4_3_u06_r14_network.content_distribution 	client-23 	36
scalar tree_4_3_u06_r14_network.content_distribution 	client-24 	37
scalar tree_4_3_u06_r14_network.content_distribution 	client-25 	38
scalar tree_4_3_u06_r14_network.content_distribution 	client-26 	39
scalar tree_4_3_u06_r14_network.content_distribution 	repo-0_card 	100000
scalar tree_4_3_u06_r14_network.content_distribution 	repo-0_price 	0
scalar tree_4_3_u06_r14_network.statistics 	stabilization_time 	1767.8
scalar tree_4_3_u06_r14_network.statistics 	p_hit 	0.23564123479323
scalar tree_4_3_u06_r14_network.statistics 	interests 	25621.775
scalar tree_4_3_u06_r14_network.statistics 	data 	17544.5
scalar tree_4_3_u06_r14_network.statistics 	hdistance 	2.7072475428487
scalar tree_4_3_u06_r14_network.statistics 	avg_time 	0.004344459124
scalar tree_4_3_u06_r14_network.statistics 	downloads 	323090
scalar tree_4_3_u06_r14_network.statistics 	total_cost 	0
scalar tree_4_3_u06_r14_network.statistics 	total_replicas 	100000
scalar tree_4_3_u06_r14_network.statistics 	inner_hit 	0.46504689095918
scalar tree_4_3_u06_r14_network.node[0].core_layer 	interests[0] 	173958
scalar tree_4_3_u06_r14_network.node[0].core_layer 	repo_load[0] 	172838
scalar tree_4_3_u06_r14_network.node[0].core_layer 	data[0] 	0
scalar tree_4_3_u06_r14_network.node[0].core_layer 	repo_int[0] 	172838
scalar tree_4_3_u06_r14_network.node[0].content_store 	p_hit[0] 	0.0064383356902241
scalar tree_4_3_u06_r14_network.node[0].content_store 	hits[0] 	1120
scalar tree_4_3_u06_r14_network.node[0].content_store 	misses[0] 	172838
scalar tree_4_3_u06_r14_network.node[0].content_store 	decision_yes[0] 	1766
scalar tree_4_3_u06_r14_network.node[0].content_store 	decision_no[0] 	171072
scalar tree_4_3_u06_r14_network.node[0].content_store 	decision_ratio[0] 	0.010217660468184
scalar tree_4_3_u06_r14_network.node[1].core_layer 	interests[1] 	114888
scalar tree_4_3_u06_r14_network.node[1].core_layer 	data[1] 	113089
scalar tree_4_3_u06_r14_network.node[1].content_store 	p_hit[1] 	0.015650024371562
scalar tree_4_3_u06_r14_network.node[1].content_store 	hits[1] 	1798
scalar tree_4_3_u06_r14_network.node[1].content_store 	misses[1] 	113090
scalar tree_4_3_u06_r14_network.node[1].content_store 	decision_yes[1] 	1141
scalar tree_4_3_u06_r14_network.node[1].content_store 	decision_no[1] 	111948
scalar tree_4_3_u06_r14_network.node[1].content_store 	decision_ratio[1] 	0.01008939861525
scalar tree_4_3_u06_r14_network.node[2].core_layer 	interests[2] 	64512
scalar tree_4_3_u06_r14_network.node[2].core_layer 	data[2] 	61411
scalar tree_4_3_u06_r14_network.node[2].content_store 	p_hit[2] 	0.048084077380952
scalar tree_4_3_u06_r14_network.node[2].content_store 	hits[2] 	3102
scalar tree_4_3_u06_r14_network.node[2].content_store 	misses[2] 	61410
scalar tree_4_3_u06_r14_network.node[2].content_store 	decision_yes[2] 	651
scalar tree_4_3_u06_r14_network.node[2].content_store 	decision_no[2] 	60760
scalar tree_4_3_u06_r14_network.node[2].content_store 	decision_ratio[2] 	0.010600706713781
scalar tree_4_3_u06_r14_network.node[3].core_layer 	interests[3] 	33642
scalar tree_4_3_u06_r14_network.node[3].core_layer 	data[3] 	29225
scalar tree_4_3_u06_r14_network.node[3].content_store 	p_hit[3] 	0.13129421556388
scalar tree_4_3_u06_r14_network.node[3].content_store 	hits[3] 	4417
scalar tree_4_3_u06_r14_network.node[3].content_store 	misses[3] 	29225
scalar tree_4_3_u06_r14_network.node[3].content_store 	decision_yes[3] 	309
scalar tree_4_3_u06_r14_network.node[3].content_store 	decision_no[3] 	28916
scalar tree_4_3_u06_r14_network.node[3].content_store 	decision_ratio[3] 	0.010573139435415
scalar tree_4_3_u06_r14_network.node[4].core_layer 	interests[4] 	36183
scalar tree_4_3_u06_r14_network.node[4].core_layer 	data[4] 	33174
scalar tree_4_3_u06_r14_network.node[4].content_store 	p_hit[4] 	0.083132962993671
scalar tree_4_3_u06_r14_network.node[4].content_store 	hits[4] 	3008
scalar tree_4_3_u06_r14_network.node[4].content_store 	misses[4] 	33175
scalar tree_4_3_u06_r14_network.node[4].content_store 	decision_yes[4] 	342
scalar tree_4_3_u06_r14_network.node[4].content_store 	decision_no[4] 	32832
scalar tree_4_3_u06_r14_network.node[4].content_store 	decision_ratio[4] 	0.010309278350515
scalar tree_4_3_u06_r14_network.node[5].core_layer 	interests[5] 	39246
scalar tree_4_3_u06_r14_network.node[5].core_layer 	data[5] 	35382
scalar tree_4_3_u06_r14_network.node[5].content_store 	p_hit[5] 	0.098404932986801
scalar tree_4_3_u06_r14_network.node[5].content_store 	hits[5] 	3862
scalar tree_4_3_u06_r14_network.node[5].content_store 	misses[5] 	35384
scalar tree_4_3_u06_r14_network.node[5].content_store 	decision_yes[5] 	321
scalar tree_4_3_u06_r14_network.node[5].content_store 	decision_no[5] 	35061
scalar tree_4_3_u06_r14_network.node[5].content_store 	decision_ratio[5] 	0.0090724096998474
scalar tree_4_3_u06_r14_network.node[6].core_layer 	interests[6] 	18708
scalar tree_4_3_u06_r14_network.node[6].core_layer 	data[6] 	13414
scalar tree_4_3_u06_r14_network.node[6].content_store 	p_hit[6] 	0.28298054308317
scalar tree_4_3_u06_r14_network.node[6].content_store 	hits[6] 	5294
scalar tree_4_3_u06_r14_network.node[6].content_store 	misses[6] 	13414
scalar tree_4_3_u06_r14_network.node[6].content_store 	decision_yes[6] 	137
scalar tree_4_3_u06_r14_network.node[6].content_store 	decision_no[6] 	13277
scalar tree_4_3_u06_r14_network.node[6].content_store 	decision_ratio[6] 	0.010213210079022
scalar tree_4_3_u06_r14_network.node[7].core_layer 	interests[7] 	38246
scalar tree_4_3_u06_r14_network.node[7].core_layer 	data[7] 	34429
scalar tree_4_3_u06_r14_network.node[7].content_store 	p_hit[7] 	0.099801286409036
scalar tree_4_3_u06_r14_network.node[7].content_store 	hits[7] 	3817
scalar tree_4_3_u06_r14_network.node[7].content_store 	misses[7] 	34429
scalar tree_4_3_u06_r14_network.node[7].content_store 	decision_yes[7] 	332
scalar tree_4_3_u06_r14_network.node[7].content_store 	decision_no[7] 	34097
scalar tree_4_3_u06_r14_network.node[7].content_store 	decision_ratio[7] 	0.0096430334892097
scalar tree_4_3_u06_r14_network.node[8].core_layer 	interests[8] 	38804
scalar tree_4_3_u06_r14_network.node[8].core_layer 	data[8] 	35186
scalar tree_4_3_u06_r14_network.node[8].content_store 	p_hit[8] 	0.093237810534996
scalar tree_4_3_u06_r14_network.node[8].content_store 	hits[8] 	3618
scalar tree_4_3_u06_r14_network.node[8].content_store 	misses[8] 	35186
scalar tree_4_3_u06_r14_network.node[8].content_store 	decision_yes[8] 	321
scalar tree_4_3_u06_r14_network.node[8].content_store 	decision_no[8] 	34865
scalar tree_4_3_u06_r14_network.node[8].content_store 	decision_ratio[8] 	0.0091229466264992
scalar tree_4_3_u06_r14_network.node[9].core_layer 	interests[9] 	16541
scalar tree_4_3_u06_r14_network.node[9].core_layer 	data[9] 	11987
scalar tree_4_3_u06_r14_network.node[9].content_store 	p_hit[9] 	0.27531588174838
scalar tree_4_3_u06_r14_network.node[9].content_store 	hits[9] 	4554
scalar tree_4_3_u06_r14_network.node[9].content_store 	misses[9] 	11987
scalar tree_4_3_u06_r14_network.node[9].content_store 	decision_yes[9] 	107
scalar tree_4_3_u06_r14_network.node[9].content_store 	decision_no[9] 	11880
scalar tree_4_3_u06_r14_network.node[9].content_store 	decision_ratio[9] 	0.008926336864937
scalar tree_4_3_u06_r14_network.node[10].core_layer 	interests[10] 	30324
scalar tree_4_3_u06_r14_network.node[10].core_layer 	data[10] 	27030
scalar tree_4_3_u06_r14_network.node[10].content_store 	p_hit[10] 	0.10862683023348
scalar tree_4_3_u06_r14_network.node[10].content_store 	hits[10] 	3294
scalar tree_4_3_u06_r14_network.node[10].content_store 	misses[10] 	27030
scalar tree_4_3_u06_r14_network.node[10].content_store 	decision_yes[10] 	287
scalar tree_4_3_u06_r14_network.node[10].content_store 	decision_no[10] 	26743
scalar tree_4_3_u06_r14_network.node[10].content_store 	decision_ratio[10] 	0.010617832038476
scalar tree_4_3_u06_r14_network.node[11].core_layer 	interests[11] 	33208
scalar tree_4_3_u06_r14_network.node[11].core_layer 	data[11] 	28905
scalar tree_4_3_u06_r14_network.node[11].content_store 	p_hit[11] 	0.1296073235365
scalar tree_4_3_u06_r14_network.node[11].content_store 	hits[11] 	4304
scalar tree_4_3_u06_r14_network.node[11].content_store 	misses[11] 	28904
scalar tree_4_3_u06_r14_network.node[11].content_store 	decision_yes[11] 	298
scalar tree_4_3_u06_r14_network.node[11].content_store 	decision_no[11] 	28607
scalar tree_4_3_u06_r14_network.node[11].content_store 	decision_ratio[11] 	0.010309635011244
scalar tree_4_3_u06_r14_network.node[12].core_layer 	interests[12] 	29793
scalar tree_4_3_u06_r14_network.node[12].core_layer 	data[12] 	27261
scalar tree_4_3_u06_r14_network.node[12].content_store 	p_hit[12] 	0.084986406202799
scalar tree_4_3_u06_r14_network.node[12].content_store 	hits[12] 	2532
scalar tree_4_3_u06_r14_network.node[12].content_store 	misses[12] 	27261
scalar tree_4_3_u06_r14_network.node[12].content_store 	decision_yes[12] 	287
scalar tree_4_3_u06_r14_network.node[12].content_store 	decision_no[12] 	26974
scalar tree_4_3_u06_r14_network.node[12].content_store 	decision_ratio[12] 	0.010527860313268
scalar tree_4_3_u06_r14_network.node[13].core_layer 	interests[13] 	12807
scalar tree_4_3_u06_r14_network.node[13].core_layer 	data[13] 	9378
scalar tree_4_3_u06_r14_network.node[13].content_store 	p_hit[13] 	0.26774420238932
scalar tree_4_3_u06_r14_network.node[13].content_store 	hits[13] 	3429
scalar tree_4_3_u06_r14_network.node[13].content_store 	misses[13] 	9378
scalar tree_4_3_u06_r14_network.node[13].content_store 	decision_yes[13] 	85
scalar tree_4_3_u06_r14_network.node[13].content_store 	decision_no[13] 	9293
scalar tree_4_3_u06_r14_network.node[13].content_store 	decision_ratio[13] 	0.009063766261463
scalar tree_4_3_u06_r14_network.node[14].core_layer 	interests[14] 	12631
scalar tree_4_3_u06_r14_network.node[14].core_layer 	data[14] 	9199
scalar tree_4_3_u06_r14_network.node[14].content_store 	p_hit[14] 	0.27171245348745
scalar tree_4_3_u06_r14_network.node[14].content_store 	hits[14] 	3432
scalar tree_4_3_u06_r14_network.node[14].content_store 	misses[14] 	9199
scalar tree_4_3_u06_r14_network.node[14].content_store 	decision_yes[14] 	98
scalar tree_4_3_u06_r14_network.node[14].content_store 	decision_no[14] 	9101
scalar tree_4_3_u06_r14_network.node[14].content_store 	decision_ratio[14] 	0.0106533318839
scalar tree_4_3_u06_r14_network.node[15].core_layer 	interests[15] 	13732
scalar tree_4_3_u06_r14_network.node[15].core_layer 	data[15] 	9380
scalar tree_4_3_u06_r14_network.node[15].content_store 	p_hit[15] 	0.31685115059715
scalar tree_4_3_u06_r14_network.node[15].content_store 	hits[15] 	4351
scalar tree_4_3_u06_r14_network.node[15].content_store 	misses[15] 	9381
scalar tree_4_3_u06_r14_network.node[15].content_store 	decision_yes[15] 	102
scalar tree_4_3_u06_r14_network.node[15].content_store 	decision_no[15] 	9278
scalar tree_4_3_u06_r14_network.node[15].content_store 	decision_ratio[15] 	0.010874200426439
scalar tree_4_3_u06_r14_network.node[16].core_layer 	interests[16] 	12887
scalar tree_4_3_u06_r14_network.node[16].core_layer 	data[16] 	9253
scalar tree_4_3_u06_r14_network.node[16].content_store 	p_hit[16] 	0.28198960192442
scalar tree_4_3_u06_r14_network.node[16].content_store 	hits[16] 	3634
scalar tree_4_3_u06_r14_network.node[16].content_store 	misses[16] 	9253
scalar tree_4_3_u06_r14_network.node[16].content_store 	decision_yes[16] 	77
scalar tree_4_3_u06_r14_network.node[16].content_store 	decision_no[16] 	9176
scalar tree_4_3_u06_r14_network.node[16].content_store 	decision_ratio[16] 	0.0083216254187831
scalar tree_4_3_u06_r14_network.node[17].core_layer 	interests[17] 	13338
scalar tree_4_3_u06_r14_network.node[17].core_layer 	data[17] 	9413
scalar tree_4_3_u06_r14_network.node[17].content_store 	p_hit[17] 	0.29427200479832
scalar tree_4_3_u06_r14_network.node[17].content_store 	hits[17] 	3925
scalar tree_4_3_u06_r14_network.node[17].content_store 	misses[17] 	9413
scalar tree_4_3_u06_r14_network.node[17].content_store 	decision_yes[17] 	99
scalar tree_4_3_u06_r14_network.node[17].content_store 	decision_no[17] 	9314
scalar tree_4_3_u06_r14_network.node[17].content_store 	decision_ratio[17] 	0.010517369595241
scalar tree_4_3_u06_r14_network.node[18].core_layer 	interests[18] 	13866
scalar tree_4_3_u06_r14_network.node[18].core_layer 	data[18] 	9249
scalar tree_4_3_u06_r14_network.node[18].content_store 	p_hit[18] 	0.33290062022213
scalar tree_4_3_u06_r14_network.node[18].content_store 	hits[18] 	4616
scalar tree_4_3_u06_r14_network.node[18].content_store 	misses[18] 	9250
scalar tree_4_3_u06_r14_network.node[18].content_store 	decision_yes[18] 	97
scalar tree_4_3_u06_r14_network.node[18].content_store 	decision_no[18] 	9152
scalar tree_4_3_u06_r14_network.node[18].content_store 	decision_ratio[18] 	0.010487620283274
scalar tree_4_3_u06_r14_network.node[19].core_layer 	interests[19] 	13620
scalar tree_4_3_u06_r14_network.node[19].core_layer 	data[19] 	9304
scalar tree_4_3_u06_r14_network.node[19].content_store 	p_hit[19] 	0.31681350954479
scalar tree_4_3_u06_r14_network.node[19].content_store 	hits[19] 	4315
scalar tree_4_3_u06_r14_network.node[19].content_store 	misses[19] 	9305
scalar tree_4_3_u06_r14_network.node[19].content_store 	decision_yes[19] 	110
scalar tree_4_3_u06_r14_network.node[19].content_store 	decision_no[19] 	9194
scalar tree_4_3_u06_r14_network.node[19].content_store 	decision_ratio[19] 	0.011822871883061
scalar tree_4_3_u06_r14_network.node[20].core_layer 	interests[20] 	13818
scalar tree_4_3_u06_r14_network.node[20].core_layer 	data[20] 	9437
scalar tree_4_3_u06_r14_network.node[20].content_store 	p_hit[20] 	0.31705022434506
scalar tree_4_3_u06_r14_network.node[20].content_store 	hits[20] 	4381
scalar tree_4_3_u06_r14_network.node[20].content_store 	misses[20] 	9437
scalar tree_4_3_u06_r14_network.node[20].content_store 	decision_yes[20] 	102
scalar tree_4_3_u06_r14_network.node[20].content_store 	decision_no[20] 	9335
scalar tree_4_3_u06_r14_network.node[20].content_store 	decision_ratio[20] 	0.010808519656671
scalar tree_4_3_u06_r14_network.node[21].core_layer 	interests[21] 	12976
scalar tree_4_3_u06_r14_network.node[21].core_layer 	data[21] 	9341
scalar tree_4_3_u06_r14_network.node[21].content_store 	p_hit[21] 	0.28013255240444
scalar tree_4_3_u06_r14_network.node[21].content_store 	hits[21] 	3635
scalar tree_4_3_u06_r14_network.node[21].content_store 	misses[21] 	9341
scalar tree_4_3_u06_r14_network.node[21].content_store 	decision_yes[21] 	106
scalar tree_4_3_u06_r14_network.node[21].content_store 	decision_no[21] 	9235
scalar tree_4_3_u06_r14_network.node[21].content_store 	decision_ratio[21] 	0.011347821432395
scalar tree_4_3_u06_r14_network.node[22].core_layer 	interests[22] 	12880
scalar tree_4_3_u06_r14_network.node[22].core_layer 	data[22] 	9430
scalar tree_4_3_u06_r14_network.node[22].content_store 	p_hit[22] 	0.26785714285714
scalar tree_4_3_u06_r14_network.node[22].content_store 	hits[22] 	3450
scalar tree_4_3_u06_r14_network.node[22].content_store 	misses[22] 	9430
scalar tree_4_3_u06_r14_network.node[22].content_store 	decision_yes[22] 	88
scalar tree_4_3_u06_r14_network.node[22].content_store 	decision_no[22] 	9342
scalar tree_4_3_u06_r14_network.node[22].content_store 	decision_ratio[22] 	0.0093319194061506
scalar tree_4_3_u06_r14_network.node[23].core_layer 	interests[23] 	13616
scalar tree_4_3_u06_r14_network.node[23].core_layer 	data[23] 	9059
scalar tree_4_3_u06_r14_network.node[23].content_store 	p_hit[23] 	0.33467978848414
scalar tree_4_3_u06_r14_network.node[23].content_store 	hits[23] 	4557
scalar tree_4_3_u06_r14_network.node[23].content_store 	misses[23] 	9059
scalar tree_4_3_u06_r14_network.node[23].content_store 	decision_yes[23] 	79
scalar tree_4_3_u06_r14_network.node[23].content_store 	decision_no[23] 	8980
scalar tree_4_3_u06_r14_network.node[23].content_store 	decision_ratio[23] 	0.0087206093387791
scalar tree_4_3_u06_r14_network.node[24].core_layer 	interests[24] 	13745
scalar tree_4_3_u06_r14_network.node[24].core_layer 	data[24] 	9284
scalar tree_4_3_u06_r14_network.node[24].content_store 	p_hit[24] 	0.32455438341215
scalar tree_4_3_u06_r14_network.node[24].content_store 	hits[24] 	4461
scalar tree_4_3_u06_r14_network.node[24].content_store 	misses[24] 	9284
scalar tree_4_3_u06_r14_network.node[24].content_store 	decision_yes[24] 	93
scalar tree_4_3_u06_r14_network.node[24].content_store 	decision_no[24] 	9191
scalar tree_4_3_u06_r14_network.node[24].content_store 	decision_ratio[24] 	0.010017233950883
scalar tree_4_3_u06_r14_network.node[25].core_layer 	interests[25] 	12938
scalar tree_4_3_u06_r14_network.node[25].core_layer 	data[25] 	9331
scalar tree_4_3_u06_r14_network.node[25].content_store 	p_hit[25] 	0.27879115782965
scalar tree_4_3_u06_r14_network.node[25].content_store 	hits[25] 	3607
scalar tree_4_3_u06_r14_network.node[25].content_store 	misses[25] 	9331
scalar tree_4_3_u06_r14_network.node[25].content_store 	decision_yes[25] 	92
scalar tree_4_3_u06_r14_network.node[25].content_store 	decision_no[25] 	9239
scalar tree_4_3_u06_r14_network.node[25].content_store 	decision_ratio[25] 	0.0098596077590826
scalar tree_4_3_u06_r14_network.node[26].core_layer 	interests[26] 	13026
scalar tree_4_3_u06_r14_network.node[26].core_layer 	data[26] 	9302
scalar tree_4_3_u06_r14_network.node[26].content_store 	p_hit[26] 	0.28588975894365
scalar tree_4_3_u06_r14_network.node[26].content_store 	hits[26] 	3724
scalar tree_4_3_u06_r14_network.node[26].content_store 	misses[26] 	9302
scalar tree_4_3_u06_r14_network.node[26].content_store 	decision_yes[26] 	102
scalar tree_4_3_u06_r14_network.node[26].content_store 	decision_no[26] 	9200
scalar tree_4_3_u06_r14_network.node[26].content_store 	decision_ratio[26] 	0.010965383788433
scalar tree_4_3_u06_r14_network.node[27].core_layer 	interests[27] 	12790
scalar tree_4_3_u06_r14_network.node[27].core_layer 	data[27] 	9204
scalar tree_4_3_u06_r14_network.node[27].content_store 	p_hit[27] 	0.28045347928069
scalar tree_4_3_u06_r14_network.node[27].content_store 	hits[27] 	3587
scalar tree_4_3_u06_r14_network.node[27].content_store 	misses[27] 	9203
scalar tree_4_3_u06_r14_network.node[27].content_store 	decision_yes[27] 	73
scalar tree_4_3_u06_r14_network.node[27].content_store 	decision_no[27] 	9131
scalar tree_4_3_u06_r14_network.node[27].content_store 	decision_ratio[27] 	0.0079313342025206
scalar tree_4_3_u06_r14_network.node[28].core_layer 	interests[28] 	13459
scalar tree_4_3_u06_r14_network.node[28].core_layer 	data[28] 	9334
scalar tree_4_3_u06_r14_network.node[28].content_store 	p_hit[28] 	0.30648636600045
scalar tree_4_3_u06_r14_network.node[28].content_store 	hits[28] 	4125
scalar tree_4_3_u06_r14_network.node[28].content_store 	misses[28] 	9334
scalar tree_4_3_u06_r14_network.node[28].content_store 	decision_yes[28] 	89
scalar tree_4_3_u06_r14_network.node[28].content_store 	decision_no[28] 	9245
scalar tree_4_3_u06_r14_network.node[28].content_store 	decision_ratio[28] 	0.0095350332119134
scalar tree_4_3_u06_r14_network.node[29].core_layer 	interests[29] 	13846
scalar tree_4_3_u06_r14_network.node[29].core_layer 	data[29] 	9484
scalar tree_4_3_u06_r14_network.node[29].content_store 	p_hit[29] 	0.3150368337426
scalar tree_4_3_u06_r14_network.node[29].content_store 	hits[29] 	4362
scalar tree_4_3_u06_r14_network.node[29].content_store 	misses[29] 	9484
scalar tree_4_3_u06_r14_network.node[29].content_store 	decision_yes[29] 	97
scalar tree_4_3_u06_r14_network.node[29].content_store 	decision_no[29] 	9387
scalar tree_4_3_u06_r14_network.node[29].content_store 	decision_ratio[29] 	0.010227752003374
scalar tree_4_3_u06_r14_network.node[30].core_layer 	interests[30] 	13081
scalar tree_4_3_u06_r14_network.node[30].core_layer 	data[30] 	9367
scalar tree_4_3_u06_r14_network.node[30].content_store 	p_hit[30] 	0.28392324745815
scalar tree_4_3_u06_r14_network.node[30].content_store 	hits[30] 	3714
scalar tree_4_3_u06_r14_network.node[30].content_store 	misses[30] 	9367
scalar tree_4_3_u06_r14_network.node[30].content_store 	decision_yes[30] 	82
scalar tree_4_3_u06_r14_network.node[30].content_store 	decision_no[30] 	9285
scalar tree_4_3_u06_r14_network.node[30].content_store 	decision_ratio[30] 	0.0087541368634568
scalar tree_4_3_u06_r14_network.node[31].core_layer 	interests[31] 	13082
scalar tree_4_3_u06_r14_network.node[31].core_layer 	data[31] 	9208
scalar tree_4_3_u06_r14_network.node[31].content_store 	p_hit[31] 	0.29613208989451
scalar tree_4_3_u06_r14_network.node[31].content_store 	hits[31] 	3874
scalar tree_4_3_u06_r14_network.node[31].content_store 	misses[31] 	9208
scalar tree_4_3_u06_r14_network.node[31].content_store 	decision_yes[31] 	91
scalar tree_4_3_u06_r14_network.node[31].content_store 	decision_no[31] 	9117
scalar tree_4_3_u06_r14_network.node[31].content_store 	decision_ratio[31] 	0.0098827106863597
scalar tree_4_3_u06_r14_network.node[32].core_layer 	interests[32] 	14122
scalar tree_4_3_u06_r14_network.node[32].core_layer 	data[32] 	9425
scalar tree_4_3_u06_r14_network.node[32].content_store 	p_hit[32] 	0.3326016145022
scalar tree_4_3_u06_r14_network.node[32].content_store 	hits[32] 	4697
scalar tree_4_3_u06_r14_network.node[32].content_store 	misses[32] 	9425
scalar tree_4_3_u06_r14_network.node[32].content_store 	decision_yes[32] 	103
scalar tree_4_3_u06_r14_network.node[32].content_store 	decision_no[32] 	9322
scalar tree_4_3_u06_r14_network.node[32].content_store 	decision_ratio[32] 	0.010928381962865
scalar tree_4_3_u06_r14_network.node[33].core_layer 	interests[33] 	13000
scalar tree_4_3_u06_r14_network.node[33].core_layer 	data[33] 	9353
scalar tree_4_3_u06_r14_network.node[33].content_store 	p_hit[33] 	0.28053846153846
scalar tree_4_3_u06_r14_network.node[33].content_store 	hits[33] 	3647
scalar tree_4_3_u06_r14_network.node[33].content_store 	misses[33] 	9353
scalar tree_4_3_u06_r14_network.node[33].content_store 	decision_yes[33] 	106
scalar tree_4_3_u06_r14_network.node[33].content_store 	decision_no[33] 	9247
scalar tree_4_3_u06_r14_network.node[33].content_store 	decision_ratio[33] 	0.011333262054956
scalar tree_4_3_u06_r14_network.node[34].core_layer 	interests[34] 	12986
scalar tree_4_3_u06_r14_network.node[34].core_layer 	data[34] 	9226
scalar tree_4_3_u06_r14_network.node[34].content_store 	p_hit[34] 	0.28961959032805
scalar tree_4_3_u06_r14_network.node[34].content_store 	hits[34] 	3761
scalar tree_4_3_u06_r14_network.node[34].content_store 	misses[34] 	9225
scalar tree_4_3_u06_r14_network.node[34].content_store 	decision_yes[34] 	98
scalar tree_4_3_u06_r14_network.node[34].content_store 	decision_no[34] 	9128
scalar tree_4_3_u06_r14_network.node[34].content_store 	decision_ratio[34] 	0.01062215477997
scalar tree_4_3_u06_r14_network.node[35].core_layer 	interests[35] 	13159
scalar tree_4_3_u06_r14_network.node[35].core_layer 	data[35] 	9294
scalar tree_4_3_u06_r14_network.node[35].content_store 	p_hit[35] 	0.29363933429592
scalar tree_4_3_u06_r14_network.node[35].content_store 	hits[35] 	3864
scalar tree_4_3_u06_r14_network.node[35].content_store 	misses[35] 	9295
scalar tree_4_3_u06_r14_network.node[35].content_store 	decision_yes[35] 	86
scalar tree_4_3_u06_r14_network.node[35].content_store 	decision_no[35] 	9208
scalar tree_4_3_u06_r14_network.node[35].content_store 	decision_ratio[35] 	0.00925328168711
scalar tree_4_3_u06_r14_network.node[36].core_layer 	interests[36] 	13084
scalar tree_4_3_u06_r14_network.node[36].core_layer 	data[36] 	9304
scalar tree_4_3_u06_r14_network.node[36].content_store 	p_hit[36] 	0.28890247630694
scalar tree_4_3_u06_r14_network.node[36].content_store 	hits[36] 	3780
scalar tree_4_3_u06_r14_network.node[36].content_store 	misses[36] 	9304
scalar tree_4_3_u06_r14_network.node[36].content_store 	decision_yes[36] 	109
scalar tree_4_3_u06_r14_network.node[36].content_store 	decision_no[36] 	9195
scalar tree_4_3_u06_r14_network.node[36].content_store 	decision_ratio[36] 	0.011715391229579
scalar tree_4_3_u06_r14_network.node[37].core_layer 	interests[37] 	12848
scalar tree_4_3_u06_r14_network.node[37].core_layer 	data[37] 	9367
scalar tree_4_3_u06_r14_network.node[37].content_store 	p_hit[37] 	0.27085927770859
scalar tree_4_3_u06_r14_network.node[37].content_store 	hits[37] 	3480
scalar tree_4_3_u06_r14_network.node[37].content_store 	misses[37] 	9368
scalar tree_4_3_u06_r14_network.node[37].content_store 	decision_yes[37] 	100
scalar tree_4_3_u06_r14_network.node[37].content_store 	decision_no[37] 	9267
scalar tree_4_3_u06_r14_network.node[37].content_store 	decision_ratio[37] 	0.010675776662752
scalar tree_4_3_u06_r14_network.node[38].core_layer 	interests[38] 	12607
scalar tree_4_3_u06_r14_network.node[38].core_layer 	data[38] 	9200
scalar tree_4_3_u06_r14_network.node[38].content_store 	p_hit[38] 	0.27024668834774
scalar tree_4_3_u06_r14_network.node[38].content_store 	hits[38] 	3407
scalar tree_4_3_u06_r14_network.node[38].content_store 	misses[38] 	9200
scalar tree_4_3_u06_r14_network.node[38].content_store 	decision_yes[38] 	95
scalar tree_4_3_u06_r14_network.node[38].content_store 	decision_no[38] 	9105
scalar tree_4_3_u06_r14_network.node[38].content_store 	decision_ratio[38] 	0.010326086956522
scalar tree_4_3_u06_r14_network.node[39].core_layer 	interests[39] 	12874
scalar tree_4_3_u06_r14_network.node[39].core_layer 	data[39] 	9161
scalar tree_4_3_u06_r14_network.node[39].content_store 	p_hit[39] 	0.28841075034954
scalar tree_4_3_u06_r14_network.node[39].content_store 	hits[39] 	3713
scalar tree_4_3_u06_r14_network.node[39].content_store 	misses[39] 	9161
scalar tree_4_3_u06_r14_network.node[39].content_store 	decision_yes[39] 	91
scalar tree_4_3_u06_r14_network.node[39].content_store 	decision_no[39] 	9070
scalar tree_4_3_u06_r14_network.node[39].content_store 	decision_ratio[39] 	0.0099334133828185
scalar tree_4_3_u06_r14_network.client[13] 	hdistance[13] 	2.7862950058072
scalar tree_4_3_u06_r14_network.client[13] 	downloads[13] 	12054
scalar tree_4_3_u06_r14_network.client[13] 	avg_time[13] 	0.004435868899
scalar tree_4_3_u06_r14_network.client[14] 	hdistance[14] 	2.7728653391833
scalar tree_4_3_u06_r14_network.client[14] 	downloads[14] 	11852
scalar tree_4_3_u06_r14_network.client[14] 	avg_time[14] 	0.004414273111
scalar tree_4_3_u06_r14_network.client[15] 	hdistance[15] 	2.6428571428571
scalar tree_4_3_u06_r14_network.client[15] 	downloads[15] 	11984
scalar tree_4_3_u06_r14_network.client[15] 	avg_time[15] 	0.004224836383
scalar tree_4_3_u06_r14_network.client[16] 	hdistance[16] 	2.7591690176968
scalar tree_4_3_u06_r14_network.client[16] 	downloads[16] 	11697
scalar tree_4_3_u06_r14_network.client[16] 	avg_time[16] 	0.004450406399
scalar tree_4_3_u06_r14_network.client[17] 	hdistance[17] 	2.7444904722452
scalar tree_4_3_u06_r14_network.client[17] 	downloads[17] 	12070
scalar tree_4_3_u06_r14_network.client[17] 	avg_time[17] 	0.004419549563
scalar tree_4_3_u06_r14_network.client[18] 	hdistance[18] 	2.5883763227513
scalar tree_4_3_u06_r14_network.client[18] 	downloads[18] 	12096
scalar tree_4_3_u06_r14_network.client[18] 	avg_time[18] 	0.004153540707
scalar tree_4_3_u06_r14_network.client[19] 	hdistance[19] 	2.6220203367228
scalar tree_4_3_u06_r14_network.client[19] 	downloads[19] 	11998
scalar tree_4_3_u06_r14_network.client[19] 	avg_time[19] 	0.004186359867
scalar tree_4_3_u06_r14_network.client[20] 	hdistance[20] 	2.6477661795407
scalar tree_4_3_u06_r14_network.client[20] 	downloads[20] 	11975
scalar tree_4_3_u06_r14_network.client[20] 	avg_time[20] 	0.004261285185
scalar tree_4_3_u06_r14_network.client[21] 	hdistance[21] 	2.7132439228835
scalar tree_4_3_u06_r14_network.client[21] 	downloads[21] 	11930
scalar tree_4_3_u06_r14_network.client[21] 	avg_time[21] 	0.004371665077
scalar tree_4_3_u06_r14_network.client[22] 	hdistance[22] 	2.7729638958858
scalar tree_4_3_u06_r14_network.client[22] 	downloads[22] 	11910
scalar tree_4_3_u06_r14_network.client[22] 	avg_time[22] 	0.004471197687
scalar tree_4_3_u06_r14_network.client[23] 	hdistance[23] 	2.6053162853297
scalar tree_4_3_u06_r14_network.client[23] 	downloads[23] 	11888
scalar tree_4_3_u06_r14_network.client[23] 	avg_time[23] 	0.004169075089
scalar tree_4_3_u06_r14_network.client[24] 	hdistance[24] 	2.621015936255
scalar tree_4_3_u06_r14_network.client[24] 	downloads[24] 	12048
scalar tree_4_3_u06_r14_network.client[24] 	avg_time[24] 	0.004209990336
scalar tree_4_3_u06_r14_network.client[25] 	hdistance[25] 	2.7445529676935
scalar tree_4_3_u06_r14_network.client[25] 	downloads[25] 	11979
scalar tree_4_3_u06_r14_network.client[25] 	avg_time[25] 	0.004370144791
scalar tree_4_3_u06_r14_network.client[26] 	hdistance[26] 	2.7271226998927
scalar tree_4_3_u06_r14_network.client[26] 	downloads[26] 	12119
scalar tree_4_3_u06_r14_network.client[26] 	avg_time[26] 	0.004337690552
scalar tree_4_3_u06_r14_network.client[27] 	hdistance[27] 	2.7373915972047
scalar tree_4_3_u06_r14_network.client[27] 	downloads[27] 	11877
scalar tree_4_3_u06_r14_network.client[27] 	avg_time[27] 	0.00436052581
scalar tree_4_3_u06_r14_network.client[28] 	hdistance[28] 	2.6463496316142
scalar tree_4_3_u06_r14_network.client[28] 	downloads[28] 	11944
scalar tree_4_3_u06_r14_network.client[28] 	avg_time[28] 	0.0042496621
scalar tree_4_3_u06_r14_network.client[29] 	hdistance[29] 	2.6578183326421
scalar tree_4_3_u06_r14_network.client[29] 	downloads[29] 	12055
scalar tree_4_3_u06_r14_network.client[29] 	avg_time[29] 	0.004256819869
scalar tree_4_3_u06_r14_network.client[30] 	hdistance[30] 	2.688535453943
scalar tree_4_3_u06_r14_network.client[30] 	downloads[30] 	12072
scalar tree_4_3_u06_r14_network.client[30] 	avg_time[30] 	0.004340288564
scalar tree_4_3_u06_r14_network.client[31] 	hdistance[31] 	2.7253821097469
scalar tree_4_3_u06_r14_network.client[31] 	downloads[31] 	11973
scalar tree_4_3_u06_r14_network.client[31] 	avg_time[31] 	0.004403738732
scalar tree_4_3_u06_r14_network.client[32] 	hdistance[32] 	2.6484984237597
scalar tree_4_3_u06_r14_network.client[32] 	downloads[32] 	12054
scalar tree_4_3_u06_r14_network.client[32] 	avg_time[32] 	0.00426712822
scalar tree_4_3_u06_r14_network.client[33] 	hdistance[33] 	2.7578806170356
scalar tree_4_3_u06_r14_network.client[33] 	downloads[33] 	11928
scalar tree_4_3_u06_r14_network.client[33] 	avg_time[33] 	0.004459420237
scalar tree_4_3_u06_r14_network.client[34] 	hdistance[34] 	2.7096337646959
scalar tree_4_3_u06_r14_network.client[34] 	downloads[34] 	11823
scalar tree_4_3_u06_r14_network.client[34] 	avg_time[34] 	0.004371814702
scalar tree_4_3_u06_r14_network.client[35] 	hdistance[35] 	2.7190247138829
scalar tree_4_3_u06_r14_network.client[35] 	downloads[35] 	12058
scalar tree_4_3_u06_r14_network.client[35] 	avg_time[35] 	0.004393166072
scalar tree_4_3_u06_r14_network.client[36] 	hdistance[36] 	2.710843373494
scalar tree_4_3_u06_r14_network.client[36] 	downloads[36] 	12035
scalar tree_4_3_u06_r14_network.client[36] 	avg_time[36] 	0.004371912264
scalar tree_4_3_u06_r14_network.client[37] 	hdistance[37] 	2.7957393483709
scalar tree_4_3_u06_r14_network.client[37] 	downloads[37] 	11970
scalar tree_4_3_u06_r14_network.client[37] 	avg_time[37] 	0.004477858329
scalar tree_4_3_u06_r14_network.client[38] 	hdistance[38] 	2.7705862419519
scalar tree_4_3_u06_r14_network.client[38] 	downloads[38] 	11804
scalar tree_4_3_u06_r14_network.client[38] 	avg_time[38] 	0.004434087166
scalar tree_4_3_u06_r14_network.client[39] 	hdistance[39] 	2.7799445238295
scalar tree_4_3_u06_r14_network.client[39] 	downloads[39] 	11897
scalar tree_4_3_u06_r14_network.client[39] 	avg_time[39] 	0.004438090648
