version 2
run General-120-20160819-03:44:20-14109
attr a 0.9
attr cd fix0.01
attr configname General
attr cr lru
attr datetime 20160819-03:44:20
attr experiment General
attr fsize 1
attr inifile hw5115/scenario_A/NRR-FIX0.01.ini
attr iterationvars "$name=tree_4_3, $un=06, $rep=1, $cd=fix0.01, $cr=lru, $fsize=1, $a=0.9, $sl=nrr, $ttl=1000, $variance=0.05"
attr iterationvars2 "$name=tree_4_3, $un=06, $rep=1, $cd=fix0.01, $cr=lru, $fsize=1, $a=0.9, $sl=nrr, $ttl=1000, $variance=0.05, $repetition=0"
attr measurement "$name=tree_4_3, $un=06, $rep=1, $cd=fix0.01, $cr=lru, $fsize=1, $a=0.9, $sl=nrr, $ttl=1000, $variance=0.05"
attr name tree_4_3
attr network networks.${name}_u${un}_r${rep}_network
attr processid 14109
attr rep 1
attr repetition 0
attr replication #0
attr resultdir results
attr runnumber 120
attr seedset 1
attr sl nrr
attr ttl 1000
attr un 06
attr variance 0.05

scalar . 	a 	0.9
scalar . 	fsize 	1
scalar . 	rep 	1
scalar . 	ttl 	1000
scalar . 	un 	06
scalar . 	variance 	0.05
scalar tree_4_3_u06_r1_network.content_distribution 	repo-0 	0
scalar tree_4_3_u06_r1_network.content_distribution 	client-0 	13
scalar tree_4_3_u06_r1_network.content_distribution 	client-1 	14
scalar tree_4_3_u06_r1_network.content_distribution 	client-2 	15
scalar tree_4_3_u06_r1_network.content_distribution 	client-3 	16
scalar tree_4_3_u06_r1_network.content_distribution 	client-4 	17
scalar tree_4_3_u06_r1_network.content_distribution 	client-5 	18
scalar tree_4_3_u06_r1_network.content_distribution 	client-6 	19
scalar tree_4_3_u06_r1_network.content_distribution 	client-7 	20
scalar tree_4_3_u06_r1_network.content_distribution 	client-8 	21
scalar tree_4_3_u06_r1_network.content_distribution 	client-9 	22
scalar tree_4_3_u06_r1_network.content_distribution 	client-10 	23
scalar tree_4_3_u06_r1_network.content_distribution 	client-11 	24
scalar tree_4_3_u06_r1_network.content_distribution 	client-12 	25
scalar tree_4_3_u06_r1_network.content_distribution 	client-13 	26
scalar tree_4_3_u06_r1_network.content_distribution 	client-14 	27
scalar tree_4_3_u06_r1_network.content_distribution 	client-15 	28
scalar tree_4_3_u06_r1_network.content_distribution 	client-16 	29
scalar tree_4_3_u06_r1_network.content_distribution 	client-17 	30
scalar tree_4_3_u06_r1_network.content_distribution 	client-18 	31
scalar tree_4_3_u06_r1_network.content_distribution 	client-19 	32
scalar tree_4_3_u06_r1_network.content_distribution 	client-20 	33
scalar tree_4_3_u06_r1_network.content_distribution 	client-21 	34
scalar tree_4_3_u06_r1_network.content_distribution 	client-22 	35
scalar tree_4_3_u06_r1_network.content_distribution 	client-23 	36
scalar tree_4_3_u06_r1_network.content_distribution 	client-24 	37
scalar tree_4_3_u06_r1_network.content_distribution 	client-25 	38
scalar tree_4_3_u06_r1_network.content_distribution 	client-26 	39
scalar tree_4_3_u06_r1_network.content_distribution 	repo-0_card 	100000
scalar tree_4_3_u06_r1_network.content_distribution 	repo-0_price 	0
scalar tree_4_3_u06_r1_network.statistics 	stabilization_time 	1804.3
scalar tree_4_3_u06_r1_network.statistics 	p_hit 	0.22945621816646
scalar tree_4_3_u06_r1_network.statistics 	interests 	25539.8
scalar tree_4_3_u06_r1_network.statistics 	data 	17435.225
scalar tree_4_3_u06_r1_network.statistics 	hdistance 	2.7090527878231
scalar tree_4_3_u06_r1_network.statistics 	avg_time 	0.004302484056
scalar tree_4_3_u06_r1_network.statistics 	downloads 	324185
scalar tree_4_3_u06_r1_network.statistics 	total_cost 	0
scalar tree_4_3_u06_r1_network.statistics 	total_replicas 	100000
scalar tree_4_3_u06_r1_network.statistics 	inner_hit 	0.44217036568626
scalar tree_4_3_u06_r1_network.node[0].core_layer 	interests[0] 	182256
scalar tree_4_3_u06_r1_network.node[0].core_layer 	repo_load[0] 	180840
scalar tree_4_3_u06_r1_network.node[0].core_layer 	data[0] 	0
scalar tree_4_3_u06_r1_network.node[0].core_layer 	repo_int[0] 	180840
scalar tree_4_3_u06_r1_network.node[0].content_store 	p_hit[0] 	0.0077692915459573
scalar tree_4_3_u06_r1_network.node[0].content_store 	hits[0] 	1416
scalar tree_4_3_u06_r1_network.node[0].content_store 	misses[0] 	180840
scalar tree_4_3_u06_r1_network.node[0].content_store 	decision_yes[0] 	1877
scalar tree_4_3_u06_r1_network.node[0].content_store 	decision_no[0] 	178963
scalar tree_4_3_u06_r1_network.node[0].content_store 	decision_ratio[0] 	0.010379340853793
scalar tree_4_3_u06_r1_network.node[1].core_layer 	interests[1] 	94807
scalar tree_4_3_u06_r1_network.node[1].core_layer 	data[1] 	93429
scalar tree_4_3_u06_r1_network.node[1].content_store 	p_hit[1] 	0.014534791734788
scalar tree_4_3_u06_r1_network.node[1].content_store 	hits[1] 	1378
scalar tree_4_3_u06_r1_network.node[1].content_store 	misses[1] 	93429
scalar tree_4_3_u06_r1_network.node[1].content_store 	decision_yes[1] 	983
scalar tree_4_3_u06_r1_network.node[1].content_store 	decision_no[1] 	92446
scalar tree_4_3_u06_r1_network.node[1].content_store 	decision_ratio[1] 	0.010521358464717
scalar tree_4_3_u06_r1_network.node[2].core_layer 	interests[2] 	66666
scalar tree_4_3_u06_r1_network.node[2].core_layer 	data[2] 	65520
scalar tree_4_3_u06_r1_network.node[2].content_store 	p_hit[2] 	0.017190171901719
scalar tree_4_3_u06_r1_network.node[2].content_store 	hits[2] 	1146
scalar tree_4_3_u06_r1_network.node[2].content_store 	misses[2] 	65520
scalar tree_4_3_u06_r1_network.node[2].content_store 	decision_yes[2] 	672
scalar tree_4_3_u06_r1_network.node[2].content_store 	decision_no[2] 	64848
scalar tree_4_3_u06_r1_network.node[2].content_store 	decision_ratio[2] 	0.01025641025641
scalar tree_4_3_u06_r1_network.node[3].core_layer 	interests[3] 	48664
scalar tree_4_3_u06_r1_network.node[3].core_layer 	data[3] 	44941
scalar tree_4_3_u06_r1_network.node[3].content_store 	p_hit[3] 	0.076463093868157
scalar tree_4_3_u06_r1_network.node[3].content_store 	hits[3] 	3721
scalar tree_4_3_u06_r1_network.node[3].content_store 	misses[3] 	44943
scalar tree_4_3_u06_r1_network.node[3].content_store 	decision_yes[3] 	471
scalar tree_4_3_u06_r1_network.node[3].content_store 	decision_no[3] 	44470
scalar tree_4_3_u06_r1_network.node[3].content_store 	decision_ratio[3] 	0.01048040764558
scalar tree_4_3_u06_r1_network.node[4].core_layer 	interests[4] 	44966
scalar tree_4_3_u06_r1_network.node[4].core_layer 	data[4] 	42006
scalar tree_4_3_u06_r1_network.node[4].content_store 	p_hit[4] 	0.06580527509674
scalar tree_4_3_u06_r1_network.node[4].content_store 	hits[4] 	2959
scalar tree_4_3_u06_r1_network.node[4].content_store 	misses[4] 	42007
scalar tree_4_3_u06_r1_network.node[4].content_store 	decision_yes[4] 	436
scalar tree_4_3_u06_r1_network.node[4].content_store 	decision_no[4] 	41570
scalar tree_4_3_u06_r1_network.node[4].content_store 	decision_ratio[4] 	0.010379469599581
scalar tree_4_3_u06_r1_network.node[5].core_layer 	interests[5] 	28324
scalar tree_4_3_u06_r1_network.node[5].core_layer 	data[5] 	24973
scalar tree_4_3_u06_r1_network.node[5].content_store 	p_hit[5] 	0.1183095607965
scalar tree_4_3_u06_r1_network.node[5].content_store 	hits[5] 	3351
scalar tree_4_3_u06_r1_network.node[5].content_store 	misses[5] 	24973
scalar tree_4_3_u06_r1_network.node[5].content_store 	decision_yes[5] 	230
scalar tree_4_3_u06_r1_network.node[5].content_store 	decision_no[5] 	24743
scalar tree_4_3_u06_r1_network.node[5].content_store 	decision_ratio[5] 	0.0092099467424819
scalar tree_4_3_u06_r1_network.node[6].core_layer 	interests[6] 	17530
scalar tree_4_3_u06_r1_network.node[6].core_layer 	data[6] 	13254
scalar tree_4_3_u06_r1_network.node[6].content_store 	p_hit[6] 	0.24392470051341
scalar tree_4_3_u06_r1_network.node[6].content_store 	hits[6] 	4276
scalar tree_4_3_u06_r1_network.node[6].content_store 	misses[6] 	13254
scalar tree_4_3_u06_r1_network.node[6].content_store 	decision_yes[6] 	115
scalar tree_4_3_u06_r1_network.node[6].content_store 	decision_no[6] 	13139
scalar tree_4_3_u06_r1_network.node[6].content_store 	decision_ratio[6] 	0.0086766259242493
scalar tree_4_3_u06_r1_network.node[7].core_layer 	interests[7] 	34589
scalar tree_4_3_u06_r1_network.node[7].core_layer 	data[7] 	32216
scalar tree_4_3_u06_r1_network.node[7].content_store 	p_hit[7] 	0.06860562606609
scalar tree_4_3_u06_r1_network.node[7].content_store 	hits[7] 	2373
scalar tree_4_3_u06_r1_network.node[7].content_store 	misses[7] 	32216
scalar tree_4_3_u06_r1_network.node[7].content_store 	decision_yes[7] 	320
scalar tree_4_3_u06_r1_network.node[7].content_store 	decision_no[7] 	31896
scalar tree_4_3_u06_r1_network.node[7].content_store 	decision_ratio[7] 	0.0099329525701515
scalar tree_4_3_u06_r1_network.node[8].core_layer 	interests[8] 	21330
scalar tree_4_3_u06_r1_network.node[8].core_layer 	data[8] 	18107
scalar tree_4_3_u06_r1_network.node[8].content_store 	p_hit[8] 	0.15110173464604
scalar tree_4_3_u06_r1_network.node[8].content_store 	hits[8] 	3223
scalar tree_4_3_u06_r1_network.node[8].content_store 	misses[8] 	18107
scalar tree_4_3_u06_r1_network.node[8].content_store 	decision_yes[8] 	180
scalar tree_4_3_u06_r1_network.node[8].content_store 	decision_no[8] 	17927
scalar tree_4_3_u06_r1_network.node[8].content_store 	decision_ratio[8] 	0.0099409068316121
scalar tree_4_3_u06_r1_network.node[9].core_layer 	interests[9] 	34193
scalar tree_4_3_u06_r1_network.node[9].core_layer 	data[9] 	30203
scalar tree_4_3_u06_r1_network.node[9].content_store 	p_hit[9] 	0.11669055069751
scalar tree_4_3_u06_r1_network.node[9].content_store 	hits[9] 	3990
scalar tree_4_3_u06_r1_network.node[9].content_store 	misses[9] 	30203
scalar tree_4_3_u06_r1_network.node[9].content_store 	decision_yes[9] 	309
scalar tree_4_3_u06_r1_network.node[9].content_store 	decision_no[9] 	29894
scalar tree_4_3_u06_r1_network.node[9].content_store 	decision_ratio[9] 	0.010230771777638
scalar tree_4_3_u06_r1_network.node[10].core_layer 	interests[10] 	39842
scalar tree_4_3_u06_r1_network.node[10].core_layer 	data[10] 	36331
scalar tree_4_3_u06_r1_network.node[10].content_store 	p_hit[10] 	0.088097987048843
scalar tree_4_3_u06_r1_network.node[10].content_store 	hits[10] 	3510
scalar tree_4_3_u06_r1_network.node[10].content_store 	misses[10] 	36332
scalar tree_4_3_u06_r1_network.node[10].content_store 	decision_yes[10] 	335
scalar tree_4_3_u06_r1_network.node[10].content_store 	decision_no[10] 	35996
scalar tree_4_3_u06_r1_network.node[10].content_store 	decision_ratio[10] 	0.0092207756461424
scalar tree_4_3_u06_r1_network.node[11].core_layer 	interests[11] 	30370
scalar tree_4_3_u06_r1_network.node[11].core_layer 	data[11] 	26483
scalar tree_4_3_u06_r1_network.node[11].content_store 	p_hit[11] 	0.1279881461969
scalar tree_4_3_u06_r1_network.node[11].content_store 	hits[11] 	3887
scalar tree_4_3_u06_r1_network.node[11].content_store 	misses[11] 	26483
scalar tree_4_3_u06_r1_network.node[11].content_store 	decision_yes[11] 	277
scalar tree_4_3_u06_r1_network.node[11].content_store 	decision_no[11] 	26206
scalar tree_4_3_u06_r1_network.node[11].content_store 	decision_ratio[11] 	0.010459540082317
scalar tree_4_3_u06_r1_network.node[12].core_layer 	interests[12] 	21891
scalar tree_4_3_u06_r1_network.node[12].core_layer 	data[12] 	18543
scalar tree_4_3_u06_r1_network.node[12].content_store 	p_hit[12] 	0.15293956420447
scalar tree_4_3_u06_r1_network.node[12].content_store 	hits[12] 	3348
scalar tree_4_3_u06_r1_network.node[12].content_store 	misses[12] 	18543
scalar tree_4_3_u06_r1_network.node[12].content_store 	decision_yes[12] 	171
scalar tree_4_3_u06_r1_network.node[12].content_store 	decision_no[12] 	18372
scalar tree_4_3_u06_r1_network.node[12].content_store 	decision_ratio[12] 	0.0092218087688076
scalar tree_4_3_u06_r1_network.node[13].core_layer 	interests[13] 	12830
scalar tree_4_3_u06_r1_network.node[13].core_layer 	data[13] 	9098
scalar tree_4_3_u06_r1_network.node[13].content_store 	p_hit[13] 	0.2908807482463
scalar tree_4_3_u06_r1_network.node[13].content_store 	hits[13] 	3732
scalar tree_4_3_u06_r1_network.node[13].content_store 	misses[13] 	9098
scalar tree_4_3_u06_r1_network.node[13].content_store 	decision_yes[13] 	86
scalar tree_4_3_u06_r1_network.node[13].content_store 	decision_no[13] 	9012
scalar tree_4_3_u06_r1_network.node[13].content_store 	decision_ratio[13] 	0.0094526269509782
scalar tree_4_3_u06_r1_network.node[14].core_layer 	interests[14] 	13517
scalar tree_4_3_u06_r1_network.node[14].core_layer 	data[14] 	9422
scalar tree_4_3_u06_r1_network.node[14].content_store 	p_hit[14] 	0.30295183842569
scalar tree_4_3_u06_r1_network.node[14].content_store 	hits[14] 	4095
scalar tree_4_3_u06_r1_network.node[14].content_store 	misses[14] 	9422
scalar tree_4_3_u06_r1_network.node[14].content_store 	decision_yes[14] 	99
scalar tree_4_3_u06_r1_network.node[14].content_store 	decision_no[14] 	9323
scalar tree_4_3_u06_r1_network.node[14].content_store 	decision_ratio[14] 	0.010507323285927
scalar tree_4_3_u06_r1_network.node[15].core_layer 	interests[15] 	12921
scalar tree_4_3_u06_r1_network.node[15].core_layer 	data[15] 	9332
scalar tree_4_3_u06_r1_network.node[15].content_store 	p_hit[15] 	0.27776487887934
scalar tree_4_3_u06_r1_network.node[15].content_store 	hits[15] 	3589
scalar tree_4_3_u06_r1_network.node[15].content_store 	misses[15] 	9332
scalar tree_4_3_u06_r1_network.node[15].content_store 	decision_yes[15] 	101
scalar tree_4_3_u06_r1_network.node[15].content_store 	decision_no[15] 	9231
scalar tree_4_3_u06_r1_network.node[15].content_store 	decision_ratio[15] 	0.010822974710673
scalar tree_4_3_u06_r1_network.node[16].core_layer 	interests[16] 	13174
scalar tree_4_3_u06_r1_network.node[16].core_layer 	data[16] 	9157
scalar tree_4_3_u06_r1_network.node[16].content_store 	p_hit[16] 	0.304918779414
scalar tree_4_3_u06_r1_network.node[16].content_store 	hits[16] 	4017
scalar tree_4_3_u06_r1_network.node[16].content_store 	misses[16] 	9157
scalar tree_4_3_u06_r1_network.node[16].content_store 	decision_yes[16] 	84
scalar tree_4_3_u06_r1_network.node[16].content_store 	decision_no[16] 	9073
scalar tree_4_3_u06_r1_network.node[16].content_store 	decision_ratio[16] 	0.009173310036038
scalar tree_4_3_u06_r1_network.node[17].core_layer 	interests[17] 	12984
scalar tree_4_3_u06_r1_network.node[17].core_layer 	data[17] 	9338
scalar tree_4_3_u06_r1_network.node[17].content_store 	p_hit[17] 	0.28080714725816
scalar tree_4_3_u06_r1_network.node[17].content_store 	hits[17] 	3646
scalar tree_4_3_u06_r1_network.node[17].content_store 	misses[17] 	9338
scalar tree_4_3_u06_r1_network.node[17].content_store 	decision_yes[17] 	97
scalar tree_4_3_u06_r1_network.node[17].content_store 	decision_no[17] 	9241
scalar tree_4_3_u06_r1_network.node[17].content_store 	decision_ratio[17] 	0.010387663311202
scalar tree_4_3_u06_r1_network.node[18].core_layer 	interests[18] 	13321
scalar tree_4_3_u06_r1_network.node[18].core_layer 	data[18] 	9214
scalar tree_4_3_u06_r1_network.node[18].content_store 	p_hit[18] 	0.3083101869229
scalar tree_4_3_u06_r1_network.node[18].content_store 	hits[18] 	4107
scalar tree_4_3_u06_r1_network.node[18].content_store 	misses[18] 	9214
scalar tree_4_3_u06_r1_network.node[18].content_store 	decision_yes[18] 	92
scalar tree_4_3_u06_r1_network.node[18].content_store 	decision_no[18] 	9122
scalar tree_4_3_u06_r1_network.node[18].content_store 	decision_ratio[18] 	0.0099848057304102
scalar tree_4_3_u06_r1_network.node[19].core_layer 	interests[19] 	13860
scalar tree_4_3_u06_r1_network.node[19].core_layer 	data[19] 	9506
scalar tree_4_3_u06_r1_network.node[19].content_store 	p_hit[19] 	0.31414141414141
scalar tree_4_3_u06_r1_network.node[19].content_store 	hits[19] 	4354
scalar tree_4_3_u06_r1_network.node[19].content_store 	misses[19] 	9506
scalar tree_4_3_u06_r1_network.node[19].content_store 	decision_yes[19] 	91
scalar tree_4_3_u06_r1_network.node[19].content_store 	decision_no[19] 	9415
scalar tree_4_3_u06_r1_network.node[19].content_store 	decision_ratio[19] 	0.0095729013254786
scalar tree_4_3_u06_r1_network.node[20].core_layer 	interests[20] 	13676
scalar tree_4_3_u06_r1_network.node[20].core_layer 	data[20] 	9261
scalar tree_4_3_u06_r1_network.node[20].content_store 	p_hit[20] 	0.32282831237204
scalar tree_4_3_u06_r1_network.node[20].content_store 	hits[20] 	4415
scalar tree_4_3_u06_r1_network.node[20].content_store 	misses[20] 	9261
scalar tree_4_3_u06_r1_network.node[20].content_store 	decision_yes[20] 	77
scalar tree_4_3_u06_r1_network.node[20].content_store 	decision_no[20] 	9184
scalar tree_4_3_u06_r1_network.node[20].content_store 	decision_ratio[20] 	0.0083144368858655
scalar tree_4_3_u06_r1_network.node[21].core_layer 	interests[21] 	13013
scalar tree_4_3_u06_r1_network.node[21].core_layer 	data[21] 	9361
scalar tree_4_3_u06_r1_network.node[21].content_store 	p_hit[21] 	0.28071928071928
scalar tree_4_3_u06_r1_network.node[21].content_store 	hits[21] 	3653
scalar tree_4_3_u06_r1_network.node[21].content_store 	misses[21] 	9360
scalar tree_4_3_u06_r1_network.node[21].content_store 	decision_yes[21] 	91
scalar tree_4_3_u06_r1_network.node[21].content_store 	decision_no[21] 	9270
scalar tree_4_3_u06_r1_network.node[21].content_store 	decision_ratio[21] 	0.0097211836342271
scalar tree_4_3_u06_r1_network.node[22].core_layer 	interests[22] 	12340
scalar tree_4_3_u06_r1_network.node[22].core_layer 	data[22] 	9023
scalar tree_4_3_u06_r1_network.node[22].content_store 	p_hit[22] 	0.26880064829822
scalar tree_4_3_u06_r1_network.node[22].content_store 	hits[22] 	3317
scalar tree_4_3_u06_r1_network.node[22].content_store 	misses[22] 	9023
scalar tree_4_3_u06_r1_network.node[22].content_store 	decision_yes[22] 	91
scalar tree_4_3_u06_r1_network.node[22].content_store 	decision_no[22] 	8932
scalar tree_4_3_u06_r1_network.node[22].content_store 	decision_ratio[22] 	0.010085337470908
scalar tree_4_3_u06_r1_network.node[23].core_layer 	interests[23] 	13102
scalar tree_4_3_u06_r1_network.node[23].core_layer 	data[23] 	9382
scalar tree_4_3_u06_r1_network.node[23].content_store 	p_hit[23] 	0.2839261181499
scalar tree_4_3_u06_r1_network.node[23].content_store 	hits[23] 	3720
scalar tree_4_3_u06_r1_network.node[23].content_store 	misses[23] 	9382
scalar tree_4_3_u06_r1_network.node[23].content_store 	decision_yes[23] 	102
scalar tree_4_3_u06_r1_network.node[23].content_store 	decision_no[23] 	9280
scalar tree_4_3_u06_r1_network.node[23].content_store 	decision_ratio[23] 	0.010871882327862
scalar tree_4_3_u06_r1_network.node[24].core_layer 	interests[24] 	13739
scalar tree_4_3_u06_r1_network.node[24].core_layer 	data[24] 	9257
scalar tree_4_3_u06_r1_network.node[24].content_store 	p_hit[24] 	0.32622461605648
scalar tree_4_3_u06_r1_network.node[24].content_store 	hits[24] 	4482
scalar tree_4_3_u06_r1_network.node[24].content_store 	misses[24] 	9257
scalar tree_4_3_u06_r1_network.node[24].content_store 	decision_yes[24] 	92
scalar tree_4_3_u06_r1_network.node[24].content_store 	decision_no[24] 	9165
scalar tree_4_3_u06_r1_network.node[24].content_store 	decision_ratio[24] 	0.0099384249756941
scalar tree_4_3_u06_r1_network.node[25].core_layer 	interests[25] 	13137
scalar tree_4_3_u06_r1_network.node[25].core_layer 	data[25] 	9362
scalar tree_4_3_u06_r1_network.node[25].content_store 	p_hit[25] 	0.28743244271904
scalar tree_4_3_u06_r1_network.node[25].content_store 	hits[25] 	3776
scalar tree_4_3_u06_r1_network.node[25].content_store 	misses[25] 	9361
scalar tree_4_3_u06_r1_network.node[25].content_store 	decision_yes[25] 	87
scalar tree_4_3_u06_r1_network.node[25].content_store 	decision_no[25] 	9275
scalar tree_4_3_u06_r1_network.node[25].content_store 	decision_ratio[25] 	0.0092928861354411
scalar tree_4_3_u06_r1_network.node[26].core_layer 	interests[26] 	12794
scalar tree_4_3_u06_r1_network.node[26].core_layer 	data[26] 	9451
scalar tree_4_3_u06_r1_network.node[26].content_store 	p_hit[26] 	0.26121619509145
scalar tree_4_3_u06_r1_network.node[26].content_store 	hits[26] 	3342
scalar tree_4_3_u06_r1_network.node[26].content_store 	misses[26] 	9452
scalar tree_4_3_u06_r1_network.node[26].content_store 	decision_yes[26] 	82
scalar tree_4_3_u06_r1_network.node[26].content_store 	decision_no[26] 	9369
scalar tree_4_3_u06_r1_network.node[26].content_store 	decision_ratio[26] 	0.0086763305470321
scalar tree_4_3_u06_r1_network.node[27].core_layer 	interests[27] 	12681
scalar tree_4_3_u06_r1_network.node[27].core_layer 	data[27] 	9188
scalar tree_4_3_u06_r1_network.node[27].content_store 	p_hit[27] 	0.27545146281839
scalar tree_4_3_u06_r1_network.node[27].content_store 	hits[27] 	3493
scalar tree_4_3_u06_r1_network.node[27].content_store 	misses[27] 	9188
scalar tree_4_3_u06_r1_network.node[27].content_store 	decision_yes[27] 	106
scalar tree_4_3_u06_r1_network.node[27].content_store 	decision_no[27] 	9082
scalar tree_4_3_u06_r1_network.node[27].content_store 	decision_ratio[27] 	0.011536787113626
scalar tree_4_3_u06_r1_network.node[28].core_layer 	interests[28] 	13398
scalar tree_4_3_u06_r1_network.node[28].core_layer 	data[28] 	9344
scalar tree_4_3_u06_r1_network.node[28].content_store 	p_hit[28] 	0.30258247499627
scalar tree_4_3_u06_r1_network.node[28].content_store 	hits[28] 	4054
scalar tree_4_3_u06_r1_network.node[28].content_store 	misses[28] 	9344
scalar tree_4_3_u06_r1_network.node[28].content_store 	decision_yes[28] 	92
scalar tree_4_3_u06_r1_network.node[28].content_store 	decision_no[28] 	9252
scalar tree_4_3_u06_r1_network.node[28].content_store 	decision_ratio[28] 	0.0098458904109589
scalar tree_4_3_u06_r1_network.node[29].core_layer 	interests[29] 	13274
scalar tree_4_3_u06_r1_network.node[29].core_layer 	data[29] 	9427
scalar tree_4_3_u06_r1_network.node[29].content_store 	p_hit[29] 	0.28981467530511
scalar tree_4_3_u06_r1_network.node[29].content_store 	hits[29] 	3847
scalar tree_4_3_u06_r1_network.node[29].content_store 	misses[29] 	9427
scalar tree_4_3_u06_r1_network.node[29].content_store 	decision_yes[29] 	112
scalar tree_4_3_u06_r1_network.node[29].content_store 	decision_no[29] 	9315
scalar tree_4_3_u06_r1_network.node[29].content_store 	decision_ratio[29] 	0.011880768006789
scalar tree_4_3_u06_r1_network.node[30].core_layer 	interests[30] 	13324
scalar tree_4_3_u06_r1_network.node[30].core_layer 	data[30] 	9254
scalar tree_4_3_u06_r1_network.node[30].content_store 	p_hit[30] 	0.30546382467727
scalar tree_4_3_u06_r1_network.node[30].content_store 	hits[30] 	4070
scalar tree_4_3_u06_r1_network.node[30].content_store 	misses[30] 	9254
scalar tree_4_3_u06_r1_network.node[30].content_store 	decision_yes[30] 	86
scalar tree_4_3_u06_r1_network.node[30].content_store 	decision_no[30] 	9168
scalar tree_4_3_u06_r1_network.node[30].content_store 	decision_ratio[30] 	0.0092932785822347
scalar tree_4_3_u06_r1_network.node[31].core_layer 	interests[31] 	13191
scalar tree_4_3_u06_r1_network.node[31].core_layer 	data[31] 	9505
scalar tree_4_3_u06_r1_network.node[31].content_store 	p_hit[31] 	0.27943294670609
scalar tree_4_3_u06_r1_network.node[31].content_store 	hits[31] 	3686
scalar tree_4_3_u06_r1_network.node[31].content_store 	misses[31] 	9505
scalar tree_4_3_u06_r1_network.node[31].content_store 	decision_yes[31] 	100
scalar tree_4_3_u06_r1_network.node[31].content_store 	decision_no[31] 	9405
scalar tree_4_3_u06_r1_network.node[31].content_store 	decision_ratio[31] 	0.010520778537612
scalar tree_4_3_u06_r1_network.node[32].core_layer 	interests[32] 	13623
scalar tree_4_3_u06_r1_network.node[32].core_layer 	data[32] 	9085
scalar tree_4_3_u06_r1_network.node[32].content_store 	p_hit[32] 	0.33311311752184
scalar tree_4_3_u06_r1_network.node[32].content_store 	hits[32] 	4538
scalar tree_4_3_u06_r1_network.node[32].content_store 	misses[32] 	9085
scalar tree_4_3_u06_r1_network.node[32].content_store 	decision_yes[32] 	92
scalar tree_4_3_u06_r1_network.node[32].content_store 	decision_no[32] 	8993
scalar tree_4_3_u06_r1_network.node[32].content_store 	decision_ratio[32] 	0.010126582278481
scalar tree_4_3_u06_r1_network.node[33].core_layer 	interests[33] 	13199
scalar tree_4_3_u06_r1_network.node[33].core_layer 	data[33] 	9409
scalar tree_4_3_u06_r1_network.node[33].content_store 	p_hit[33] 	0.28714296537616
scalar tree_4_3_u06_r1_network.node[33].content_store 	hits[33] 	3790
scalar tree_4_3_u06_r1_network.node[33].content_store 	misses[33] 	9409
scalar tree_4_3_u06_r1_network.node[33].content_store 	decision_yes[33] 	81
scalar tree_4_3_u06_r1_network.node[33].content_store 	decision_no[33] 	9328
scalar tree_4_3_u06_r1_network.node[33].content_store 	decision_ratio[33] 	0.008608778828781
scalar tree_4_3_u06_r1_network.node[34].core_layer 	interests[34] 	14003
scalar tree_4_3_u06_r1_network.node[34].core_layer 	data[34] 	9603
scalar tree_4_3_u06_r1_network.node[34].content_store 	p_hit[34] 	0.31421838177533
scalar tree_4_3_u06_r1_network.node[34].content_store 	hits[34] 	4400
scalar tree_4_3_u06_r1_network.node[34].content_store 	misses[34] 	9603
scalar tree_4_3_u06_r1_network.node[34].content_store 	decision_yes[34] 	84
scalar tree_4_3_u06_r1_network.node[34].content_store 	decision_no[34] 	9519
scalar tree_4_3_u06_r1_network.node[34].content_store 	decision_ratio[34] 	0.0087472664792252
scalar tree_4_3_u06_r1_network.node[35].core_layer 	interests[35] 	12858
scalar tree_4_3_u06_r1_network.node[35].core_layer 	data[35] 	9375
scalar tree_4_3_u06_r1_network.node[35].content_store 	p_hit[35] 	0.27088194120392
scalar tree_4_3_u06_r1_network.node[35].content_store 	hits[35] 	3483
scalar tree_4_3_u06_r1_network.node[35].content_store 	misses[35] 	9375
scalar tree_4_3_u06_r1_network.node[35].content_store 	decision_yes[35] 	99
scalar tree_4_3_u06_r1_network.node[35].content_store 	decision_no[35] 	9276
scalar tree_4_3_u06_r1_network.node[35].content_store 	decision_ratio[35] 	0.01056
scalar tree_4_3_u06_r1_network.node[36].core_layer 	interests[36] 	13264
scalar tree_4_3_u06_r1_network.node[36].core_layer 	data[36] 	9189
scalar tree_4_3_u06_r1_network.node[36].content_store 	p_hit[36] 	0.30722255729795
scalar tree_4_3_u06_r1_network.node[36].content_store 	hits[36] 	4075
scalar tree_4_3_u06_r1_network.node[36].content_store 	misses[36] 	9189
scalar tree_4_3_u06_r1_network.node[36].content_store 	decision_yes[36] 	81
scalar tree_4_3_u06_r1_network.node[36].content_store 	decision_no[36] 	9108
scalar tree_4_3_u06_r1_network.node[36].content_store 	decision_ratio[36] 	0.0088148873653281
scalar tree_4_3_u06_r1_network.node[37].core_layer 	interests[37] 	12859
scalar tree_4_3_u06_r1_network.node[37].core_layer 	data[37] 	9302
scalar tree_4_3_u06_r1_network.node[37].content_store 	p_hit[37] 	0.27661559996889
scalar tree_4_3_u06_r1_network.node[37].content_store 	hits[37] 	3557
scalar tree_4_3_u06_r1_network.node[37].content_store 	misses[37] 	9302
scalar tree_4_3_u06_r1_network.node[37].content_store 	decision_yes[37] 	89
scalar tree_4_3_u06_r1_network.node[37].content_store 	decision_no[37] 	9213
scalar tree_4_3_u06_r1_network.node[37].content_store 	decision_ratio[37] 	0.0095678348742206
scalar tree_4_3_u06_r1_network.node[38].core_layer 	interests[38] 	13289
scalar tree_4_3_u06_r1_network.node[38].core_layer 	data[38] 	9144
scalar tree_4_3_u06_r1_network.node[38].content_store 	p_hit[38] 	0.31183685755136
scalar tree_4_3_u06_r1_network.node[38].content_store 	hits[38] 	4144
scalar tree_4_3_u06_r1_network.node[38].content_store 	misses[38] 	9145
scalar tree_4_3_u06_r1_network.node[38].content_store 	decision_yes[38] 	92
scalar tree_4_3_u06_r1_network.node[38].content_store 	decision_no[38] 	9052
scalar tree_4_3_u06_r1_network.node[38].content_store 	decision_ratio[38] 	0.010061242344707
scalar tree_4_3_u06_r1_network.node[39].core_layer 	interests[39] 	12793
scalar tree_4_3_u06_r1_network.node[39].core_layer 	data[39] 	9414
scalar tree_4_3_u06_r1_network.node[39].content_store 	p_hit[39] 	0.26412882044868
scalar tree_4_3_u06_r1_network.node[39].content_store 	hits[39] 	3379
scalar tree_4_3_u06_r1_network.node[39].content_store 	misses[39] 	9414
scalar tree_4_3_u06_r1_network.node[39].content_store 	decision_yes[39] 	95
scalar tree_4_3_u06_r1_network.node[39].content_store 	decision_no[39] 	9319
scalar tree_4_3_u06_r1_network.node[39].content_store 	decision_ratio[39] 	0.01009135330359
scalar tree_4_3_u06_r1_network.client[13] 	hdistance[13] 	2.7371639165759
scalar tree_4_3_u06_r1_network.client[13] 	downloads[13] 	11939
scalar tree_4_3_u06_r1_network.client[13] 	avg_time[13] 	0.004325819933
scalar tree_4_3_u06_r1_network.client[14] 	hdistance[14] 	2.6592629154327
scalar tree_4_3_u06_r1_network.client[14] 	downloads[14] 	12156
scalar tree_4_3_u06_r1_network.client[14] 	avg_time[14] 	0.004188545841
scalar tree_4_3_u06_r1_network.client[15] 	hdistance[15] 	2.760905622823
scalar tree_4_3_u06_r1_network.client[15] 	downloads[15] 	12058
scalar tree_4_3_u06_r1_network.client[15] 	avg_time[15] 	0.004374273833
scalar tree_4_3_u06_r1_network.client[16] 	hdistance[16] 	2.6893506056528
scalar tree_4_3_u06_r1_network.client[16] 	downloads[16] 	11888
scalar tree_4_3_u06_r1_network.client[16] 	avg_time[16] 	0.004220219107
scalar tree_4_3_u06_r1_network.client[17] 	hdistance[17] 	2.737212382056
scalar tree_4_3_u06_r1_network.client[17] 	downloads[17] 	12082
scalar tree_4_3_u06_r1_network.client[17] 	avg_time[17] 	0.004336365096
scalar tree_4_3_u06_r1_network.client[18] 	hdistance[18] 	2.6380486982897
scalar tree_4_3_u06_r1_network.client[18] 	downloads[18] 	11869
scalar tree_4_3_u06_r1_network.client[18] 	avg_time[18] 	0.004211472295
scalar tree_4_3_u06_r1_network.client[19] 	hdistance[19] 	2.6672778796466
scalar tree_4_3_u06_r1_network.client[19] 	downloads[19] 	11998
scalar tree_4_3_u06_r1_network.client[19] 	avg_time[19] 	0.004260207014
scalar tree_4_3_u06_r1_network.client[20] 	hdistance[20] 	2.6387525987526
scalar tree_4_3_u06_r1_network.client[20] 	downloads[20] 	12025
scalar tree_4_3_u06_r1_network.client[20] 	avg_time[20] 	0.004198583273
scalar tree_4_3_u06_r1_network.client[21] 	hdistance[21] 	2.7473377703827
scalar tree_4_3_u06_r1_network.client[21] 	downloads[21] 	12020
scalar tree_4_3_u06_r1_network.client[21] 	avg_time[21] 	0.004421461175
scalar tree_4_3_u06_r1_network.client[22] 	hdistance[22] 	2.7457784532253
scalar tree_4_3_u06_r1_network.client[22] 	downloads[22] 	11844
scalar tree_4_3_u06_r1_network.client[22] 	avg_time[22] 	0.004307156749
scalar tree_4_3_u06_r1_network.client[23] 	hdistance[23] 	2.7107492939026
scalar tree_4_3_u06_r1_network.client[23] 	downloads[23] 	12038
scalar tree_4_3_u06_r1_network.client[23] 	avg_time[23] 	0.004224286752
scalar tree_4_3_u06_r1_network.client[24] 	hdistance[24] 	2.6693929173693
scalar tree_4_3_u06_r1_network.client[24] 	downloads[24] 	11860
scalar tree_4_3_u06_r1_network.client[24] 	avg_time[24] 	0.004259187578
scalar tree_4_3_u06_r1_network.client[25] 	hdistance[25] 	2.7057746713264
scalar tree_4_3_u06_r1_network.client[25] 	downloads[25] 	12018
scalar tree_4_3_u06_r1_network.client[25] 	avg_time[25] 	0.0042120123
scalar tree_4_3_u06_r1_network.client[26] 	hdistance[26] 	2.7540822187577
scalar tree_4_3_u06_r1_network.client[26] 	downloads[26] 	12187
scalar tree_4_3_u06_r1_network.client[26] 	avg_time[26] 	0.004318204872
scalar tree_4_3_u06_r1_network.client[27] 	hdistance[27] 	2.7381700860357
scalar tree_4_3_u06_r1_network.client[27] 	downloads[27] 	12088
scalar tree_4_3_u06_r1_network.client[27] 	avg_time[27] 	0.00429450396
scalar tree_4_3_u06_r1_network.client[28] 	hdistance[28] 	2.7355777223608
scalar tree_4_3_u06_r1_network.client[28] 	downloads[28] 	12030
scalar tree_4_3_u06_r1_network.client[28] 	avg_time[28] 	0.004391884384
scalar tree_4_3_u06_r1_network.client[29] 	hdistance[29] 	2.741201000834
scalar tree_4_3_u06_r1_network.client[29] 	downloads[29] 	11990
scalar tree_4_3_u06_r1_network.client[29] 	avg_time[29] 	0.004403166267
scalar tree_4_3_u06_r1_network.client[30] 	hdistance[30] 	2.7190235690236
scalar tree_4_3_u06_r1_network.client[30] 	downloads[30] 	11880
scalar tree_4_3_u06_r1_network.client[30] 	avg_time[30] 	0.004363465047
scalar tree_4_3_u06_r1_network.client[31] 	hdistance[31] 	2.7764234429788
scalar tree_4_3_u06_r1_network.client[31] 	downloads[31] 	11978
scalar tree_4_3_u06_r1_network.client[31] 	avg_time[31] 	0.004472863942
scalar tree_4_3_u06_r1_network.client[32] 	hdistance[32] 	2.6415621823111
scalar tree_4_3_u06_r1_network.client[32] 	downloads[32] 	11804
scalar tree_4_3_u06_r1_network.client[32] 	avg_time[32] 	0.004222633443
scalar tree_4_3_u06_r1_network.client[33] 	hdistance[33] 	2.7399585921325
scalar tree_4_3_u06_r1_network.client[33] 	downloads[33] 	12075
scalar tree_4_3_u06_r1_network.client[33] 	avg_time[33] 	0.004398340671
scalar tree_4_3_u06_r1_network.client[34] 	hdistance[34] 	2.6453918186299
scalar tree_4_3_u06_r1_network.client[34] 	downloads[34] 	12174
scalar tree_4_3_u06_r1_network.client[34] 	avg_time[34] 	0.00423932286
scalar tree_4_3_u06_r1_network.client[35] 	hdistance[35] 	2.7351945155695
scalar tree_4_3_u06_r1_network.client[35] 	downloads[35] 	12107
scalar tree_4_3_u06_r1_network.client[35] 	avg_time[35] 	0.004355163401
scalar tree_4_3_u06_r1_network.client[36] 	hdistance[36] 	2.6475450901804
scalar tree_4_3_u06_r1_network.client[36] 	downloads[36] 	11976
scalar tree_4_3_u06_r1_network.client[36] 	avg_time[36] 	0.004194886776
scalar tree_4_3_u06_r1_network.client[37] 	hdistance[37] 	2.7299354625186
scalar tree_4_3_u06_r1_network.client[37] 	downloads[37] 	12086
scalar tree_4_3_u06_r1_network.client[37] 	avg_time[37] 	0.004348995824
scalar tree_4_3_u06_r1_network.client[38] 	hdistance[38] 	2.6562213517793
scalar tree_4_3_u06_r1_network.client[38] 	downloads[38] 	11999
scalar tree_4_3_u06_r1_network.client[38] 	avg_time[38] 	0.004196522336
scalar tree_4_3_u06_r1_network.client[39] 	hdistance[39] 	2.7771304926764
scalar tree_4_3_u06_r1_network.client[39] 	downloads[39] 	12016
scalar tree_4_3_u06_r1_network.client[39] 	avg_time[39] 	0.004427524808
