version 2
run General-134-20160819-04:09:18-14109
attr a 0.9
attr cd fix0.01
attr configname General
attr cr lru
attr datetime 20160819-04:09:18
attr experiment General
attr fsize 1
attr inifile hw5115/scenario_A/NRR-FIX0.01.ini
attr iterationvars "$name=tree_4_3, $un=06, $rep=15, $cd=fix0.01, $cr=lru, $fsize=1, $a=0.9, $sl=nrr, $ttl=1000, $variance=0.05"
attr iterationvars2 "$name=tree_4_3, $un=06, $rep=15, $cd=fix0.01, $cr=lru, $fsize=1, $a=0.9, $sl=nrr, $ttl=1000, $variance=0.05, $repetition=0"
attr measurement "$name=tree_4_3, $un=06, $rep=15, $cd=fix0.01, $cr=lru, $fsize=1, $a=0.9, $sl=nrr, $ttl=1000, $variance=0.05"
attr name tree_4_3
attr network networks.${name}_u${un}_r${rep}_network
attr processid 14109
attr rep 15
attr repetition 0
attr replication #0
attr resultdir results
attr runnumber 134
attr seedset 15
attr sl nrr
attr ttl 1000
attr un 06
attr variance 0.05

scalar . 	a 	0.9
scalar . 	fsize 	1
scalar . 	rep 	15
scalar . 	ttl 	1000
scalar . 	un 	06
scalar . 	variance 	0.05
scalar tree_4_3_u06_r15_network.content_distribution 	repo-0 	0
scalar tree_4_3_u06_r15_network.content_distribution 	client-0 	13
scalar tree_4_3_u06_r15_network.content_distribution 	client-1 	14
scalar tree_4_3_u06_r15_network.content_distribution 	client-2 	15
scalar tree_4_3_u06_r15_network.content_distribution 	client-3 	16
scalar tree_4_3_u06_r15_network.content_distribution 	client-4 	17
scalar tree_4_3_u06_r15_network.content_distribution 	client-5 	18
scalar tree_4_3_u06_r15_network.content_distribution 	client-6 	19
scalar tree_4_3_u06_r15_network.content_distribution 	client-7 	20
scalar tree_4_3_u06_r15_network.content_distribution 	client-8 	21
scalar tree_4_3_u06_r15_network.content_distribution 	client-9 	22
scalar tree_4_3_u06_r15_network.content_distribution 	client-10 	23
scalar tree_4_3_u06_r15_network.content_distribution 	client-11 	24
scalar tree_4_3_u06_r15_network.content_distribution 	client-12 	25
scalar tree_4_3_u06_r15_network.content_distribution 	client-13 	26
scalar tree_4_3_u06_r15_network.content_distribution 	client-14 	27
scalar tree_4_3_u06_r15_network.content_distribution 	client-15 	28
scalar tree_4_3_u06_r15_network.content_distribution 	client-16 	29
scalar tree_4_3_u06_r15_network.content_distribution 	client-17 	30
scalar tree_4_3_u06_r15_network.content_distribution 	client-18 	31
scalar tree_4_3_u06_r15_network.content_distribution 	client-19 	32
scalar tree_4_3_u06_r15_network.content_distribution 	client-20 	33
scalar tree_4_3_u06_r15_network.content_distribution 	client-21 	34
scalar tree_4_3_u06_r15_network.content_distribution 	client-22 	35
scalar tree_4_3_u06_r15_network.content_distribution 	client-23 	36
scalar tree_4_3_u06_r15_network.content_distribution 	client-24 	37
scalar tree_4_3_u06_r15_network.content_distribution 	client-25 	38
scalar tree_4_3_u06_r15_network.content_distribution 	client-26 	39
scalar tree_4_3_u06_r15_network.content_distribution 	repo-0_card 	100000
scalar tree_4_3_u06_r15_network.content_distribution 	repo-0_price 	0
scalar tree_4_3_u06_r15_network.statistics 	stabilization_time 	1836.5
scalar tree_4_3_u06_r15_network.statistics 	p_hit 	0.23333769272124
scalar tree_4_3_u06_r15_network.statistics 	interests 	25693.7
scalar tree_4_3_u06_r15_network.statistics 	data 	17578.95
scalar tree_4_3_u06_r15_network.statistics 	hdistance 	2.7058472330611
scalar tree_4_3_u06_r15_network.statistics 	avg_time 	0.004332529329
scalar tree_4_3_u06_r15_network.statistics 	downloads 	324586
scalar tree_4_3_u06_r15_network.statistics 	total_cost 	0
scalar tree_4_3_u06_r15_network.statistics 	total_replicas 	100000
scalar tree_4_3_u06_r15_network.statistics 	inner_hit 	0.46045424017056
scalar tree_4_3_u06_r15_network.node[0].core_layer 	interests[0] 	176386
scalar tree_4_3_u06_r15_network.node[0].core_layer 	repo_load[0] 	175129
scalar tree_4_3_u06_r15_network.node[0].core_layer 	data[0] 	0
scalar tree_4_3_u06_r15_network.node[0].core_layer 	repo_int[0] 	175129
scalar tree_4_3_u06_r15_network.node[0].content_store 	p_hit[0] 	0.0071264159287018
scalar tree_4_3_u06_r15_network.node[0].content_store 	hits[0] 	1257
scalar tree_4_3_u06_r15_network.node[0].content_store 	misses[0] 	175129
scalar tree_4_3_u06_r15_network.node[0].content_store 	decision_yes[0] 	1664
scalar tree_4_3_u06_r15_network.node[0].content_store 	decision_no[0] 	173465
scalar tree_4_3_u06_r15_network.node[0].content_store 	decision_ratio[0] 	0.009501567416019
scalar tree_4_3_u06_r15_network.node[1].core_layer 	interests[1] 	124524
scalar tree_4_3_u06_r15_network.node[1].core_layer 	data[1] 	122976
scalar tree_4_3_u06_r15_network.node[1].content_store 	p_hit[1] 	0.012415277376249
scalar tree_4_3_u06_r15_network.node[1].content_store 	hits[1] 	1546
scalar tree_4_3_u06_r15_network.node[1].content_store 	misses[1] 	122978
scalar tree_4_3_u06_r15_network.node[1].content_store 	decision_yes[1] 	1178
scalar tree_4_3_u06_r15_network.node[1].content_store 	decision_no[1] 	121798
scalar tree_4_3_u06_r15_network.node[1].content_store 	decision_ratio[1] 	0.0095791048659901
scalar tree_4_3_u06_r15_network.node[2].core_layer 	interests[2] 	40244
scalar tree_4_3_u06_r15_network.node[2].core_layer 	data[2] 	37953
scalar tree_4_3_u06_r15_network.node[2].content_store 	p_hit[2] 	0.056927740781234
scalar tree_4_3_u06_r15_network.node[2].content_store 	hits[2] 	2291
scalar tree_4_3_u06_r15_network.node[2].content_store 	misses[2] 	37953
scalar tree_4_3_u06_r15_network.node[2].content_store 	decision_yes[2] 	386
scalar tree_4_3_u06_r15_network.node[2].content_store 	decision_no[2] 	37567
scalar tree_4_3_u06_r15_network.node[2].content_store 	decision_ratio[2] 	0.010170474007325
scalar tree_4_3_u06_r15_network.node[3].core_layer 	interests[3] 	47414
scalar tree_4_3_u06_r15_network.node[3].core_layer 	data[3] 	43318
scalar tree_4_3_u06_r15_network.node[3].content_store 	p_hit[3] 	0.086366895853545
scalar tree_4_3_u06_r15_network.node[3].content_store 	hits[3] 	4095
scalar tree_4_3_u06_r15_network.node[3].content_store 	misses[3] 	43319
scalar tree_4_3_u06_r15_network.node[3].content_store 	decision_yes[3] 	421
scalar tree_4_3_u06_r15_network.node[3].content_store 	decision_no[3] 	42896
scalar tree_4_3_u06_r15_network.node[3].content_store 	decision_ratio[3] 	0.0097190479488423
scalar tree_4_3_u06_r15_network.node[4].core_layer 	interests[4] 	46760
scalar tree_4_3_u06_r15_network.node[4].core_layer 	data[4] 	43177
scalar tree_4_3_u06_r15_network.node[4].content_store 	p_hit[4] 	0.076603934987169
scalar tree_4_3_u06_r15_network.node[4].content_store 	hits[4] 	3582
scalar tree_4_3_u06_r15_network.node[4].content_store 	misses[4] 	43178
scalar tree_4_3_u06_r15_network.node[4].content_store 	decision_yes[4] 	436
scalar tree_4_3_u06_r15_network.node[4].content_store 	decision_no[4] 	42741
scalar tree_4_3_u06_r15_network.node[4].content_store 	decision_ratio[4] 	0.010097968825995
scalar tree_4_3_u06_r15_network.node[5].core_layer 	interests[5] 	21571
scalar tree_4_3_u06_r15_network.node[5].core_layer 	data[5] 	18344
scalar tree_4_3_u06_r15_network.node[5].content_store 	p_hit[5] 	0.1495989986556
scalar tree_4_3_u06_r15_network.node[5].content_store 	hits[5] 	3227
scalar tree_4_3_u06_r15_network.node[5].content_store 	misses[5] 	18344
scalar tree_4_3_u06_r15_network.node[5].content_store 	decision_yes[5] 	182
scalar tree_4_3_u06_r15_network.node[5].content_store 	decision_no[5] 	18162
scalar tree_4_3_u06_r15_network.node[5].content_store 	decision_ratio[5] 	0.009921500218055
scalar tree_4_3_u06_r15_network.node[6].core_layer 	interests[6] 	25691
scalar tree_4_3_u06_r15_network.node[6].core_layer 	data[6] 	21332
scalar tree_4_3_u06_r15_network.node[6].content_store 	p_hit[6] 	0.16967031256082
scalar tree_4_3_u06_r15_network.node[6].content_store 	hits[6] 	4359
scalar tree_4_3_u06_r15_network.node[6].content_store 	misses[6] 	21332
scalar tree_4_3_u06_r15_network.node[6].content_store 	decision_yes[6] 	234
scalar tree_4_3_u06_r15_network.node[6].content_store 	decision_no[6] 	21098
scalar tree_4_3_u06_r15_network.node[6].content_store 	decision_ratio[6] 	0.010969435589724
scalar tree_4_3_u06_r15_network.node[7].core_layer 	interests[7] 	39396
scalar tree_4_3_u06_r15_network.node[7].core_layer 	data[7] 	35712
scalar tree_4_3_u06_r15_network.node[7].content_store 	p_hit[7] 	0.0934866483907
scalar tree_4_3_u06_r15_network.node[7].content_store 	hits[7] 	3683
scalar tree_4_3_u06_r15_network.node[7].content_store 	misses[7] 	35713
scalar tree_4_3_u06_r15_network.node[7].content_store 	decision_yes[7] 	370
scalar tree_4_3_u06_r15_network.node[7].content_store 	decision_no[7] 	35342
scalar tree_4_3_u06_r15_network.node[7].content_store 	decision_ratio[7] 	0.010360663082437
scalar tree_4_3_u06_r15_network.node[8].core_layer 	interests[8] 	28388
scalar tree_4_3_u06_r15_network.node[8].core_layer 	data[8] 	25580
scalar tree_4_3_u06_r15_network.node[8].content_store 	p_hit[8] 	0.098915034521629
scalar tree_4_3_u06_r15_network.node[8].content_store 	hits[8] 	2808
scalar tree_4_3_u06_r15_network.node[8].content_store 	misses[8] 	25580
scalar tree_4_3_u06_r15_network.node[8].content_store 	decision_yes[8] 	274
scalar tree_4_3_u06_r15_network.node[8].content_store 	decision_no[8] 	25306
scalar tree_4_3_u06_r15_network.node[8].content_store 	decision_ratio[8] 	0.010711493354183
scalar tree_4_3_u06_r15_network.node[9].core_layer 	interests[9] 	25619
scalar tree_4_3_u06_r15_network.node[9].core_layer 	data[9] 	21386
scalar tree_4_3_u06_r15_network.node[9].content_store 	p_hit[9] 	0.16518989812249
scalar tree_4_3_u06_r15_network.node[9].content_store 	hits[9] 	4232
scalar tree_4_3_u06_r15_network.node[9].content_store 	misses[9] 	21387
scalar tree_4_3_u06_r15_network.node[9].content_store 	decision_yes[9] 	237
scalar tree_4_3_u06_r15_network.node[9].content_store 	decision_no[9] 	21149
scalar tree_4_3_u06_r15_network.node[9].content_store 	decision_ratio[9] 	0.011082016272328
scalar tree_4_3_u06_r15_network.node[10].core_layer 	interests[10] 	39308
scalar tree_4_3_u06_r15_network.node[10].core_layer 	data[10] 	35408
scalar tree_4_3_u06_r15_network.node[10].content_store 	p_hit[10] 	0.099216444489671
scalar tree_4_3_u06_r15_network.node[10].content_store 	hits[10] 	3900
scalar tree_4_3_u06_r15_network.node[10].content_store 	misses[10] 	35408
scalar tree_4_3_u06_r15_network.node[10].content_store 	decision_yes[10] 	355
scalar tree_4_3_u06_r15_network.node[10].content_store 	decision_no[10] 	35053
scalar tree_4_3_u06_r15_network.node[10].content_store 	decision_ratio[10] 	0.010025982828739
scalar tree_4_3_u06_r15_network.node[11].core_layer 	interests[11] 	30921
scalar tree_4_3_u06_r15_network.node[11].core_layer 	data[11] 	27050
scalar tree_4_3_u06_r15_network.node[11].content_store 	p_hit[11] 	0.1251900003234
scalar tree_4_3_u06_r15_network.node[11].content_store 	hits[11] 	3871
scalar tree_4_3_u06_r15_network.node[11].content_store 	misses[11] 	27050
scalar tree_4_3_u06_r15_network.node[11].content_store 	decision_yes[11] 	304
scalar tree_4_3_u06_r15_network.node[11].content_store 	decision_no[11] 	26746
scalar tree_4_3_u06_r15_network.node[11].content_store 	decision_ratio[11] 	0.011238447319778
scalar tree_4_3_u06_r15_network.node[12].core_layer 	interests[12] 	22217
scalar tree_4_3_u06_r15_network.node[12].core_layer 	data[12] 	18913
scalar tree_4_3_u06_r15_network.node[12].content_store 	p_hit[12] 	0.1486699374353
scalar tree_4_3_u06_r15_network.node[12].content_store 	hits[12] 	3303
scalar tree_4_3_u06_r15_network.node[12].content_store 	misses[12] 	18914
scalar tree_4_3_u06_r15_network.node[12].content_store 	decision_yes[12] 	198
scalar tree_4_3_u06_r15_network.node[12].content_store 	decision_no[12] 	18715
scalar tree_4_3_u06_r15_network.node[12].content_store 	decision_ratio[12] 	0.010468989583884
scalar tree_4_3_u06_r15_network.node[13].core_layer 	interests[13] 	13230
scalar tree_4_3_u06_r15_network.node[13].core_layer 	data[13] 	9340
scalar tree_4_3_u06_r15_network.node[13].content_store 	p_hit[13] 	0.29402872260015
scalar tree_4_3_u06_r15_network.node[13].content_store 	hits[13] 	3890
scalar tree_4_3_u06_r15_network.node[13].content_store 	misses[13] 	9340
scalar tree_4_3_u06_r15_network.node[13].content_store 	decision_yes[13] 	87
scalar tree_4_3_u06_r15_network.node[13].content_store 	decision_no[13] 	9253
scalar tree_4_3_u06_r15_network.node[13].content_store 	decision_ratio[13] 	0.0093147751605996
scalar tree_4_3_u06_r15_network.node[14].core_layer 	interests[14] 	13281
scalar tree_4_3_u06_r15_network.node[14].core_layer 	data[14] 	9293
scalar tree_4_3_u06_r15_network.node[14].content_store 	p_hit[14] 	0.30020329794443
scalar tree_4_3_u06_r15_network.node[14].content_store 	hits[14] 	3987
scalar tree_4_3_u06_r15_network.node[14].content_store 	misses[14] 	9294
scalar tree_4_3_u06_r15_network.node[14].content_store 	decision_yes[14] 	84
scalar tree_4_3_u06_r15_network.node[14].content_store 	decision_no[14] 	9209
scalar tree_4_3_u06_r15_network.node[14].content_store 	decision_ratio[14] 	0.0090390616593135
scalar tree_4_3_u06_r15_network.node[15].core_layer 	interests[15] 	13034
scalar tree_4_3_u06_r15_network.node[15].core_layer 	data[15] 	9257
scalar tree_4_3_u06_r15_network.node[15].content_store 	p_hit[15] 	0.2897038514654
scalar tree_4_3_u06_r15_network.node[15].content_store 	hits[15] 	3776
scalar tree_4_3_u06_r15_network.node[15].content_store 	misses[15] 	9258
scalar tree_4_3_u06_r15_network.node[15].content_store 	decision_yes[15] 	104
scalar tree_4_3_u06_r15_network.node[15].content_store 	decision_no[15] 	9153
scalar tree_4_3_u06_r15_network.node[15].content_store 	decision_ratio[15] 	0.011234741276872
scalar tree_4_3_u06_r15_network.node[16].core_layer 	interests[16] 	13808
scalar tree_4_3_u06_r15_network.node[16].core_layer 	data[16] 	9103
scalar tree_4_3_u06_r15_network.node[16].content_store 	p_hit[16] 	0.34074449594438
scalar tree_4_3_u06_r15_network.node[16].content_store 	hits[16] 	4705
scalar tree_4_3_u06_r15_network.node[16].content_store 	misses[16] 	9103
scalar tree_4_3_u06_r15_network.node[16].content_store 	decision_yes[16] 	81
scalar tree_4_3_u06_r15_network.node[16].content_store 	decision_no[16] 	9022
scalar tree_4_3_u06_r15_network.node[16].content_store 	decision_ratio[16] 	0.0088981654399648
scalar tree_4_3_u06_r15_network.node[17].core_layer 	interests[17] 	12928
scalar tree_4_3_u06_r15_network.node[17].core_layer 	data[17] 	9402
scalar tree_4_3_u06_r15_network.node[17].content_store 	p_hit[17] 	0.27274133663366
scalar tree_4_3_u06_r15_network.node[17].content_store 	hits[17] 	3526
scalar tree_4_3_u06_r15_network.node[17].content_store 	misses[17] 	9402
scalar tree_4_3_u06_r15_network.node[17].content_store 	decision_yes[17] 	97
scalar tree_4_3_u06_r15_network.node[17].content_store 	decision_no[17] 	9305
scalar tree_4_3_u06_r15_network.node[17].content_store 	decision_ratio[17] 	0.010316953839609
scalar tree_4_3_u06_r15_network.node[18].core_layer 	interests[18] 	13709
scalar tree_4_3_u06_r15_network.node[18].core_layer 	data[18] 	9285
scalar tree_4_3_u06_r15_network.node[18].content_store 	p_hit[18] 	0.32270771026333
scalar tree_4_3_u06_r15_network.node[18].content_store 	hits[18] 	4424
scalar tree_4_3_u06_r15_network.node[18].content_store 	misses[18] 	9285
scalar tree_4_3_u06_r15_network.node[18].content_store 	decision_yes[18] 	64
scalar tree_4_3_u06_r15_network.node[18].content_store 	decision_no[18] 	9221
scalar tree_4_3_u06_r15_network.node[18].content_store 	decision_ratio[18] 	0.0068928379106085
scalar tree_4_3_u06_r15_network.node[19].core_layer 	interests[19] 	14225
scalar tree_4_3_u06_r15_network.node[19].core_layer 	data[19] 	9504
scalar tree_4_3_u06_r15_network.node[19].content_store 	p_hit[19] 	0.33188049209139
scalar tree_4_3_u06_r15_network.node[19].content_store 	hits[19] 	4721
scalar tree_4_3_u06_r15_network.node[19].content_store 	misses[19] 	9504
scalar tree_4_3_u06_r15_network.node[19].content_store 	decision_yes[19] 	84
scalar tree_4_3_u06_r15_network.node[19].content_store 	decision_no[19] 	9420
scalar tree_4_3_u06_r15_network.node[19].content_store 	decision_ratio[19] 	0.0088383838383838
scalar tree_4_3_u06_r15_network.node[20].core_layer 	interests[20] 	13179
scalar tree_4_3_u06_r15_network.node[20].core_layer 	data[20] 	9426
scalar tree_4_3_u06_r15_network.node[20].content_store 	p_hit[20] 	0.28477122695197
scalar tree_4_3_u06_r15_network.node[20].content_store 	hits[20] 	3753
scalar tree_4_3_u06_r15_network.node[20].content_store 	misses[20] 	9426
scalar tree_4_3_u06_r15_network.node[20].content_store 	decision_yes[20] 	103
scalar tree_4_3_u06_r15_network.node[20].content_store 	decision_no[20] 	9323
scalar tree_4_3_u06_r15_network.node[20].content_store 	decision_ratio[20] 	0.010927222575854
scalar tree_4_3_u06_r15_network.node[21].core_layer 	interests[21] 	13287
scalar tree_4_3_u06_r15_network.node[21].core_layer 	data[21] 	9453
scalar tree_4_3_u06_r15_network.node[21].content_store 	p_hit[21] 	0.28855272070445
scalar tree_4_3_u06_r15_network.node[21].content_store 	hits[21] 	3834
scalar tree_4_3_u06_r15_network.node[21].content_store 	misses[21] 	9453
scalar tree_4_3_u06_r15_network.node[21].content_store 	decision_yes[21] 	105
scalar tree_4_3_u06_r15_network.node[21].content_store 	decision_no[21] 	9348
scalar tree_4_3_u06_r15_network.node[21].content_store 	decision_ratio[21] 	0.011107584893685
scalar tree_4_3_u06_r15_network.node[22].core_layer 	interests[22] 	13060
scalar tree_4_3_u06_r15_network.node[22].core_layer 	data[22] 	9535
scalar tree_4_3_u06_r15_network.node[22].content_store 	p_hit[22] 	0.26990811638591
scalar tree_4_3_u06_r15_network.node[22].content_store 	hits[22] 	3525
scalar tree_4_3_u06_r15_network.node[22].content_store 	misses[22] 	9535
scalar tree_4_3_u06_r15_network.node[22].content_store 	decision_yes[22] 	95
scalar tree_4_3_u06_r15_network.node[22].content_store 	decision_no[22] 	9440
scalar tree_4_3_u06_r15_network.node[22].content_store 	decision_ratio[22] 	0.0099632931305716
scalar tree_4_3_u06_r15_network.node[23].core_layer 	interests[23] 	13758
scalar tree_4_3_u06_r15_network.node[23].core_layer 	data[23] 	9375
scalar tree_4_3_u06_r15_network.node[23].content_store 	p_hit[23] 	0.318578281727
scalar tree_4_3_u06_r15_network.node[23].content_store 	hits[23] 	4383
scalar tree_4_3_u06_r15_network.node[23].content_store 	misses[23] 	9375
scalar tree_4_3_u06_r15_network.node[23].content_store 	decision_yes[23] 	96
scalar tree_4_3_u06_r15_network.node[23].content_store 	decision_no[23] 	9279
scalar tree_4_3_u06_r15_network.node[23].content_store 	decision_ratio[23] 	0.01024
scalar tree_4_3_u06_r15_network.node[24].core_layer 	interests[24] 	13371
scalar tree_4_3_u06_r15_network.node[24].core_layer 	data[24] 	9448
scalar tree_4_3_u06_r15_network.node[24].content_store 	p_hit[24] 	0.2933961558597
scalar tree_4_3_u06_r15_network.node[24].content_store 	hits[24] 	3923
scalar tree_4_3_u06_r15_network.node[24].content_store 	misses[24] 	9448
scalar tree_4_3_u06_r15_network.node[24].content_store 	decision_yes[24] 	77
scalar tree_4_3_u06_r15_network.node[24].content_store 	decision_no[24] 	9371
scalar tree_4_3_u06_r15_network.node[24].content_store 	decision_ratio[24] 	0.0081498729889924
scalar tree_4_3_u06_r15_network.node[25].core_layer 	interests[25] 	12853
scalar tree_4_3_u06_r15_network.node[25].core_layer 	data[25] 	9252
scalar tree_4_3_u06_r15_network.node[25].content_store 	p_hit[25] 	0.28016805415078
scalar tree_4_3_u06_r15_network.node[25].content_store 	hits[25] 	3601
scalar tree_4_3_u06_r15_network.node[25].content_store 	misses[25] 	9252
scalar tree_4_3_u06_r15_network.node[25].content_store 	decision_yes[25] 	98
scalar tree_4_3_u06_r15_network.node[25].content_store 	decision_no[25] 	9154
scalar tree_4_3_u06_r15_network.node[25].content_store 	decision_ratio[25] 	0.010592304366623
scalar tree_4_3_u06_r15_network.node[26].core_layer 	interests[26] 	12588
scalar tree_4_3_u06_r15_network.node[26].core_layer 	data[26] 	9187
scalar tree_4_3_u06_r15_network.node[26].content_store 	p_hit[26] 	0.27017794725135
scalar tree_4_3_u06_r15_network.node[26].content_store 	hits[26] 	3401
scalar tree_4_3_u06_r15_network.node[26].content_store 	misses[26] 	9187
scalar tree_4_3_u06_r15_network.node[26].content_store 	decision_yes[26] 	102
scalar tree_4_3_u06_r15_network.node[26].content_store 	decision_no[26] 	9085
scalar tree_4_3_u06_r15_network.node[26].content_store 	decision_ratio[26] 	0.011102645041907
scalar tree_4_3_u06_r15_network.node[27].core_layer 	interests[27] 	13870
scalar tree_4_3_u06_r15_network.node[27].core_layer 	data[27] 	9343
scalar tree_4_3_u06_r15_network.node[27].content_store 	p_hit[27] 	0.32638788752704
scalar tree_4_3_u06_r15_network.node[27].content_store 	hits[27] 	4527
scalar tree_4_3_u06_r15_network.node[27].content_store 	misses[27] 	9343
scalar tree_4_3_u06_r15_network.node[27].content_store 	decision_yes[27] 	87
scalar tree_4_3_u06_r15_network.node[27].content_store 	decision_no[27] 	9256
scalar tree_4_3_u06_r15_network.node[27].content_store 	decision_ratio[27] 	0.0093117842234828
scalar tree_4_3_u06_r15_network.node[28].core_layer 	interests[28] 	13908
scalar tree_4_3_u06_r15_network.node[28].core_layer 	data[28] 	9433
scalar tree_4_3_u06_r15_network.node[28].content_store 	p_hit[28] 	0.32175726200748
scalar tree_4_3_u06_r15_network.node[28].content_store 	hits[28] 	4475
scalar tree_4_3_u06_r15_network.node[28].content_store 	misses[28] 	9433
scalar tree_4_3_u06_r15_network.node[28].content_store 	decision_yes[28] 	87
scalar tree_4_3_u06_r15_network.node[28].content_store 	decision_no[28] 	9346
scalar tree_4_3_u06_r15_network.node[28].content_store 	decision_ratio[28] 	0.0092229407399555
scalar tree_4_3_u06_r15_network.node[29].core_layer 	interests[29] 	12846
scalar tree_4_3_u06_r15_network.node[29].core_layer 	data[29] 	9215
scalar tree_4_3_u06_r15_network.node[29].content_store 	p_hit[29] 	0.28265607971353
scalar tree_4_3_u06_r15_network.node[29].content_store 	hits[29] 	3631
scalar tree_4_3_u06_r15_network.node[29].content_store 	misses[29] 	9215
scalar tree_4_3_u06_r15_network.node[29].content_store 	decision_yes[29] 	70
scalar tree_4_3_u06_r15_network.node[29].content_store 	decision_no[29] 	9145
scalar tree_4_3_u06_r15_network.node[29].content_store 	decision_ratio[29] 	0.0075963103635377
scalar tree_4_3_u06_r15_network.node[30].core_layer 	interests[30] 	13348
scalar tree_4_3_u06_r15_network.node[30].core_layer 	data[30] 	9421
scalar tree_4_3_u06_r15_network.node[30].content_store 	p_hit[30] 	0.29420137848367
scalar tree_4_3_u06_r15_network.node[30].content_store 	hits[30] 	3927
scalar tree_4_3_u06_r15_network.node[30].content_store 	misses[30] 	9421
scalar tree_4_3_u06_r15_network.node[30].content_store 	decision_yes[30] 	95
scalar tree_4_3_u06_r15_network.node[30].content_store 	decision_no[30] 	9326
scalar tree_4_3_u06_r15_network.node[30].content_store 	decision_ratio[30] 	0.010083855217068
scalar tree_4_3_u06_r15_network.node[31].core_layer 	interests[31] 	13197
scalar tree_4_3_u06_r15_network.node[31].core_layer 	data[31] 	9596
scalar tree_4_3_u06_r15_network.node[31].content_store 	p_hit[31] 	0.272865045086
scalar tree_4_3_u06_r15_network.node[31].content_store 	hits[31] 	3601
scalar tree_4_3_u06_r15_network.node[31].content_store 	misses[31] 	9596
scalar tree_4_3_u06_r15_network.node[31].content_store 	decision_yes[31] 	87
scalar tree_4_3_u06_r15_network.node[31].content_store 	decision_no[31] 	9509
scalar tree_4_3_u06_r15_network.node[31].content_store 	decision_ratio[31] 	0.0090662776156732
scalar tree_4_3_u06_r15_network.node[32].core_layer 	interests[32] 	13709
scalar tree_4_3_u06_r15_network.node[32].core_layer 	data[32] 	9237
scalar tree_4_3_u06_r15_network.node[32].content_store 	p_hit[32] 	0.32620905974178
scalar tree_4_3_u06_r15_network.node[32].content_store 	hits[32] 	4472
scalar tree_4_3_u06_r15_network.node[32].content_store 	misses[32] 	9237
scalar tree_4_3_u06_r15_network.node[32].content_store 	decision_yes[32] 	86
scalar tree_4_3_u06_r15_network.node[32].content_store 	decision_no[32] 	9151
scalar tree_4_3_u06_r15_network.node[32].content_store 	decision_ratio[32] 	0.0093103821587095
scalar tree_4_3_u06_r15_network.node[33].core_layer 	interests[33] 	13560
scalar tree_4_3_u06_r15_network.node[33].core_layer 	data[33] 	9285
scalar tree_4_3_u06_r15_network.node[33].content_store 	p_hit[33] 	0.31526548672566
scalar tree_4_3_u06_r15_network.node[33].content_store 	hits[33] 	4275
scalar tree_4_3_u06_r15_network.node[33].content_store 	misses[33] 	9285
scalar tree_4_3_u06_r15_network.node[33].content_store 	decision_yes[33] 	99
scalar tree_4_3_u06_r15_network.node[33].content_store 	decision_no[33] 	9186
scalar tree_4_3_u06_r15_network.node[33].content_store 	decision_ratio[33] 	0.010662358642973
scalar tree_4_3_u06_r15_network.node[34].core_layer 	interests[34] 	13693
scalar tree_4_3_u06_r15_network.node[34].core_layer 	data[34] 	9381
scalar tree_4_3_u06_r15_network.node[34].content_store 	p_hit[34] 	0.31490542613014
scalar tree_4_3_u06_r15_network.node[34].content_store 	hits[34] 	4312
scalar tree_4_3_u06_r15_network.node[34].content_store 	misses[34] 	9381
scalar tree_4_3_u06_r15_network.node[34].content_store 	decision_yes[34] 	78
scalar tree_4_3_u06_r15_network.node[34].content_store 	decision_no[34] 	9303
scalar tree_4_3_u06_r15_network.node[34].content_store 	decision_ratio[34] 	0.0083146786056924
scalar tree_4_3_u06_r15_network.node[35].core_layer 	interests[35] 	12838
scalar tree_4_3_u06_r15_network.node[35].core_layer 	data[35] 	9277
scalar tree_4_3_u06_r15_network.node[35].content_store 	p_hit[35] 	0.27737965415174
scalar tree_4_3_u06_r15_network.node[35].content_store 	hits[35] 	3561
scalar tree_4_3_u06_r15_network.node[35].content_store 	misses[35] 	9277
scalar tree_4_3_u06_r15_network.node[35].content_store 	decision_yes[35] 	87
scalar tree_4_3_u06_r15_network.node[35].content_store 	decision_no[35] 	9190
scalar tree_4_3_u06_r15_network.node[35].content_store 	decision_ratio[35] 	0.0093780316912795
scalar tree_4_3_u06_r15_network.node[36].core_layer 	interests[36] 	12732
scalar tree_4_3_u06_r15_network.node[36].core_layer 	data[36] 	9213
scalar tree_4_3_u06_r15_network.node[36].content_store 	p_hit[36] 	0.27639019792648
scalar tree_4_3_u06_r15_network.node[36].content_store 	hits[36] 	3519
scalar tree_4_3_u06_r15_network.node[36].content_store 	misses[36] 	9213
scalar tree_4_3_u06_r15_network.node[36].content_store 	decision_yes[36] 	81
scalar tree_4_3_u06_r15_network.node[36].content_store 	decision_no[36] 	9132
scalar tree_4_3_u06_r15_network.node[36].content_store 	decision_ratio[36] 	0.0087919244545751
scalar tree_4_3_u06_r15_network.node[37].core_layer 	interests[37] 	12724
scalar tree_4_3_u06_r15_network.node[37].core_layer 	data[37] 	9347
scalar tree_4_3_u06_r15_network.node[37].content_store 	p_hit[37] 	0.2653253693807
scalar tree_4_3_u06_r15_network.node[37].content_store 	hits[37] 	3376
scalar tree_4_3_u06_r15_network.node[37].content_store 	misses[37] 	9348
scalar tree_4_3_u06_r15_network.node[37].content_store 	decision_yes[37] 	92
scalar tree_4_3_u06_r15_network.node[37].content_store 	decision_no[37] 	9255
scalar tree_4_3_u06_r15_network.node[37].content_store 	decision_ratio[37] 	0.0098427302877929
scalar tree_4_3_u06_r15_network.node[38].core_layer 	interests[38] 	13709
scalar tree_4_3_u06_r15_network.node[38].core_layer 	data[38] 	9110
scalar tree_4_3_u06_r15_network.node[38].content_store 	p_hit[38] 	0.33547304690349
scalar tree_4_3_u06_r15_network.node[38].content_store 	hits[38] 	4599
scalar tree_4_3_u06_r15_network.node[38].content_store 	misses[38] 	9110
scalar tree_4_3_u06_r15_network.node[38].content_store 	decision_yes[38] 	87
scalar tree_4_3_u06_r15_network.node[38].content_store 	decision_no[38] 	9023
scalar tree_4_3_u06_r15_network.node[38].content_store 	decision_ratio[38] 	0.009549945115258
scalar tree_4_3_u06_r15_network.node[39].core_layer 	interests[39] 	12864
scalar tree_4_3_u06_r15_network.node[39].core_layer 	data[39] 	9291
scalar tree_4_3_u06_r15_network.node[39].content_store 	p_hit[39] 	0.27775186567164
scalar tree_4_3_u06_r15_network.node[39].content_store 	hits[39] 	3573
scalar tree_4_3_u06_r15_network.node[39].content_store 	misses[39] 	9291
scalar tree_4_3_u06_r15_network.node[39].content_store 	decision_yes[39] 	83
scalar tree_4_3_u06_r15_network.node[39].content_store 	decision_no[39] 	9208
scalar tree_4_3_u06_r15_network.node[39].content_store 	decision_ratio[39] 	0.0089333763857497
scalar tree_4_3_u06_r15_network.client[13] 	hdistance[13] 	2.7172870140612
scalar tree_4_3_u06_r15_network.client[13] 	downloads[13] 	12090
scalar tree_4_3_u06_r15_network.client[13] 	avg_time[13] 	0.004327351118
scalar tree_4_3_u06_r15_network.client[14] 	hdistance[14] 	2.7000738734302
scalar tree_4_3_u06_r15_network.client[14] 	downloads[14] 	12183
scalar tree_4_3_u06_r15_network.client[14] 	avg_time[14] 	0.004304027172
scalar tree_4_3_u06_r15_network.client[15] 	hdistance[15] 	2.748162992652
scalar tree_4_3_u06_r15_network.client[15] 	downloads[15] 	11976
scalar tree_4_3_u06_r15_network.client[15] 	avg_time[15] 	0.004373683682
scalar tree_4_3_u06_r15_network.client[16] 	hdistance[16] 	2.6339374792152
scalar tree_4_3_u06_r15_network.client[16] 	downloads[16] 	12028
scalar tree_4_3_u06_r15_network.client[16] 	avg_time[16] 	0.004193877927
scalar tree_4_3_u06_r15_network.client[17] 	hdistance[17] 	2.7520019813424
scalar tree_4_3_u06_r15_network.client[17] 	downloads[17] 	12113
scalar tree_4_3_u06_r15_network.client[17] 	avg_time[17] 	0.004445633891
scalar tree_4_3_u06_r15_network.client[18] 	hdistance[18] 	2.655971778935
scalar tree_4_3_u06_r15_network.client[18] 	downloads[18] 	11906
scalar tree_4_3_u06_r15_network.client[18] 	avg_time[18] 	0.004280863821
scalar tree_4_3_u06_r15_network.client[19] 	hdistance[19] 	2.6531286115239
scalar tree_4_3_u06_r15_network.client[19] 	downloads[19] 	12114
scalar tree_4_3_u06_r15_network.client[19] 	avg_time[19] 	0.004253918074
scalar tree_4_3_u06_r15_network.client[20] 	hdistance[20] 	2.7411471321696
scalar tree_4_3_u06_r15_network.client[20] 	downloads[20] 	12030
scalar tree_4_3_u06_r15_network.client[20] 	avg_time[20] 	0.004422440899
scalar tree_4_3_u06_r15_network.client[21] 	hdistance[21] 	2.7332508250825
scalar tree_4_3_u06_r15_network.client[21] 	downloads[21] 	12120
scalar tree_4_3_u06_r15_network.client[21] 	avg_time[21] 	0.004420623999
scalar tree_4_3_u06_r15_network.client[22] 	hdistance[22] 	2.779471798717
scalar tree_4_3_u06_r15_network.client[22] 	downloads[22] 	12003
scalar tree_4_3_u06_r15_network.client[22] 	avg_time[22] 	0.004484440964
scalar tree_4_3_u06_r15_network.client[23] 	hdistance[23] 	2.662345217319
scalar tree_4_3_u06_r15_network.client[23] 	downloads[23] 	12033
scalar tree_4_3_u06_r15_network.client[23] 	avg_time[23] 	0.004261112245
scalar tree_4_3_u06_r15_network.client[24] 	hdistance[24] 	2.7343442622951
scalar tree_4_3_u06_r15_network.client[24] 	downloads[24] 	12200
scalar tree_4_3_u06_r15_network.client[24] 	avg_time[24] 	0.004403111682
scalar tree_4_3_u06_r15_network.client[25] 	hdistance[25] 	2.7299553645231
scalar tree_4_3_u06_r15_network.client[25] 	downloads[25] 	12098
scalar tree_4_3_u06_r15_network.client[25] 	avg_time[25] 	0.00432137244
scalar tree_4_3_u06_r15_network.client[26] 	hdistance[26] 	2.7268549465241
scalar tree_4_3_u06_r15_network.client[26] 	downloads[26] 	11968
scalar tree_4_3_u06_r15_network.client[26] 	avg_time[26] 	0.004307149426
scalar tree_4_3_u06_r15_network.client[27] 	hdistance[27] 	2.6602649006623
scalar tree_4_3_u06_r15_network.client[27] 	downloads[27] 	12080
scalar tree_4_3_u06_r15_network.client[27] 	avg_time[27] 	0.00426092415
scalar tree_4_3_u06_r15_network.client[28] 	hdistance[28] 	2.6534808819886
scalar tree_4_3_u06_r15_network.client[28] 	downloads[28] 	12109
scalar tree_4_3_u06_r15_network.client[28] 	avg_time[28] 	0.004262457487
scalar tree_4_3_u06_r15_network.client[29] 	hdistance[29] 	2.7297915607524
scalar tree_4_3_u06_r15_network.client[29] 	downloads[29] 	11802
scalar tree_4_3_u06_r15_network.client[29] 	avg_time[29] 	0.004392811855
scalar tree_4_3_u06_r15_network.client[30] 	hdistance[30] 	2.7199702798646
scalar tree_4_3_u06_r15_network.client[30] 	downloads[30] 	12113
scalar tree_4_3_u06_r15_network.client[30] 	avg_time[30] 	0.004387679628
scalar tree_4_3_u06_r15_network.client[31] 	hdistance[31] 	2.7741935483871
scalar tree_4_3_u06_r15_network.client[31] 	downloads[31] 	12121
scalar tree_4_3_u06_r15_network.client[31] 	avg_time[31] 	0.004484940431
scalar tree_4_3_u06_r15_network.client[32] 	hdistance[32] 	2.6493506493506
scalar tree_4_3_u06_r15_network.client[32] 	downloads[32] 	11935
scalar tree_4_3_u06_r15_network.client[32] 	avg_time[32] 	0.004236779583
scalar tree_4_3_u06_r15_network.client[33] 	hdistance[33] 	2.6364095655103
scalar tree_4_3_u06_r15_network.client[33] 	downloads[33] 	11876
scalar tree_4_3_u06_r15_network.client[33] 	avg_time[33] 	0.004235766649
scalar tree_4_3_u06_r15_network.client[34] 	hdistance[34] 	2.6410726182545
scalar tree_4_3_u06_r15_network.client[34] 	downloads[34] 	12008
scalar tree_4_3_u06_r15_network.client[34] 	avg_time[34] 	0.004235673231
scalar tree_4_3_u06_r15_network.client[35] 	hdistance[35] 	2.7405723905724
scalar tree_4_3_u06_r15_network.client[35] 	downloads[35] 	11880
scalar tree_4_3_u06_r15_network.client[35] 	avg_time[35] 	0.004362286617
scalar tree_4_3_u06_r15_network.client[36] 	hdistance[36] 	2.7277605433051
scalar tree_4_3_u06_r15_network.client[36] 	downloads[36] 	11927
scalar tree_4_3_u06_r15_network.client[36] 	avg_time[36] 	0.004349370729
scalar tree_4_3_u06_r15_network.client[37] 	hdistance[37] 	2.7657973921765
scalar tree_4_3_u06_r15_network.client[37] 	downloads[37] 	11964
scalar tree_4_3_u06_r15_network.client[37] 	avg_time[37] 	0.004403363043
scalar tree_4_3_u06_r15_network.client[38] 	hdistance[38] 	2.6445374633738
scalar tree_4_3_u06_r15_network.client[38] 	downloads[38] 	11945
scalar tree_4_3_u06_r15_network.client[38] 	avg_time[38] 	0.004180323523
scalar tree_4_3_u06_r15_network.client[39] 	hdistance[39] 	2.746740220662
scalar tree_4_3_u06_r15_network.client[39] 	downloads[39] 	11964
scalar tree_4_3_u06_r15_network.client[39] 	avg_time[39] 	0.004386307618
