version 2
run General-71-20160819-21:07:13-9589
attr a 0.9
attr cd fix0.01
attr configname General
attr cr lru
attr datetime 20160819-21:07:13
attr experiment General
attr fsize 1
attr inifile hw5115/scenario_A/SPR-FIX0.01.ini
attr iterationvars "$name=tree_4_3, $un=03, $rep=12, $cd=fix0.01, $cr=lru, $fsize=1, $a=0.9, $sl=spr, $ttl=1000, $variance=0.05"
attr iterationvars2 "$name=tree_4_3, $un=03, $rep=12, $cd=fix0.01, $cr=lru, $fsize=1, $a=0.9, $sl=spr, $ttl=1000, $variance=0.05, $repetition=0"
attr measurement "$name=tree_4_3, $un=03, $rep=12, $cd=fix0.01, $cr=lru, $fsize=1, $a=0.9, $sl=spr, $ttl=1000, $variance=0.05"
attr name tree_4_3
attr network networks.${name}_u${un}_r${rep}_network
attr processid 9589
attr rep 12
attr repetition 0
attr replication #0
attr resultdir results
attr runnumber 71
attr seedset 12
attr sl spr
attr ttl 1000
attr un 03
attr variance 0.05

scalar . 	a 	0.9
scalar . 	fsize 	1
scalar . 	rep 	12
scalar . 	ttl 	1000
scalar . 	un 	03
scalar . 	variance 	0.05
scalar tree_4_3_u03_r12_network.content_distribution 	repo-0 	0
scalar tree_4_3_u03_r12_network.content_distribution 	client-0 	13
scalar tree_4_3_u03_r12_network.content_distribution 	client-1 	14
scalar tree_4_3_u03_r12_network.content_distribution 	client-2 	15
scalar tree_4_3_u03_r12_network.content_distribution 	client-3 	16
scalar tree_4_3_u03_r12_network.content_distribution 	client-4 	17
scalar tree_4_3_u03_r12_network.content_distribution 	client-5 	18
scalar tree_4_3_u03_r12_network.content_distribution 	client-6 	19
scalar tree_4_3_u03_r12_network.content_distribution 	client-7 	20
scalar tree_4_3_u03_r12_network.content_distribution 	client-8 	21
scalar tree_4_3_u03_r12_network.content_distribution 	client-9 	22
scalar tree_4_3_u03_r12_network.content_distribution 	client-10 	23
scalar tree_4_3_u03_r12_network.content_distribution 	client-11 	24
scalar tree_4_3_u03_r12_network.content_distribution 	client-12 	25
scalar tree_4_3_u03_r12_network.content_distribution 	client-13 	26
scalar tree_4_3_u03_r12_network.content_distribution 	client-14 	27
scalar tree_4_3_u03_r12_network.content_distribution 	client-15 	28
scalar tree_4_3_u03_r12_network.content_distribution 	client-16 	29
scalar tree_4_3_u03_r12_network.content_distribution 	client-17 	30
scalar tree_4_3_u03_r12_network.content_distribution 	client-18 	31
scalar tree_4_3_u03_r12_network.content_distribution 	client-19 	32
scalar tree_4_3_u03_r12_network.content_distribution 	client-20 	33
scalar tree_4_3_u03_r12_network.content_distribution 	client-21 	34
scalar tree_4_3_u03_r12_network.content_distribution 	client-22 	35
scalar tree_4_3_u03_r12_network.content_distribution 	client-23 	36
scalar tree_4_3_u03_r12_network.content_distribution 	client-24 	37
scalar tree_4_3_u03_r12_network.content_distribution 	client-25 	38
scalar tree_4_3_u03_r12_network.content_distribution 	client-26 	39
scalar tree_4_3_u03_r12_network.content_distribution 	repo-0_card 	100000
scalar tree_4_3_u03_r12_network.content_distribution 	repo-0_price 	0
scalar tree_4_3_u03_r12_network.statistics 	stabilization_time 	2231
scalar tree_4_3_u03_r12_network.statistics 	p_hit 	0.17689614544423
scalar tree_4_3_u03_r12_network.statistics 	interests 	25721.625
scalar tree_4_3_u03_r12_network.statistics 	data 	17619.15
scalar tree_4_3_u03_r12_network.statistics 	hdistance 	2.8559970258895
scalar tree_4_3_u03_r12_network.statistics 	avg_time 	0.00434922644
scalar tree_4_3_u03_r12_network.statistics 	downloads 	324089
scalar tree_4_3_u03_r12_network.statistics 	total_cost 	0
scalar tree_4_3_u03_r12_network.statistics 	total_replicas 	100000
scalar tree_4_3_u03_r12_network.statistics 	inner_hit 	0.31866863731876
scalar tree_4_3_u03_r12_network.node[0].core_layer 	interests[0] 	225371
scalar tree_4_3_u03_r12_network.node[0].core_layer 	repo_load[0] 	220812
scalar tree_4_3_u03_r12_network.node[0].core_layer 	data[0] 	0
scalar tree_4_3_u03_r12_network.node[0].core_layer 	repo_int[0] 	220812
scalar tree_4_3_u03_r12_network.node[0].content_store 	p_hit[0] 	0.020228867068079
scalar tree_4_3_u03_r12_network.node[0].content_store 	hits[0] 	4559
scalar tree_4_3_u03_r12_network.node[0].content_store 	misses[0] 	220812
scalar tree_4_3_u03_r12_network.node[0].content_store 	decision_yes[0] 	2274
scalar tree_4_3_u03_r12_network.node[0].content_store 	decision_no[0] 	218538
scalar tree_4_3_u03_r12_network.node[0].content_store 	decision_ratio[0] 	0.010298353350361
scalar tree_4_3_u03_r12_network.node[1].core_layer 	interests[1] 	76842
scalar tree_4_3_u03_r12_network.node[1].core_layer 	data[1] 	74516
scalar tree_4_3_u03_r12_network.node[1].content_store 	p_hit[1] 	0.030269904479321
scalar tree_4_3_u03_r12_network.node[1].content_store 	hits[1] 	2326
scalar tree_4_3_u03_r12_network.node[1].content_store 	misses[1] 	74516
scalar tree_4_3_u03_r12_network.node[1].content_store 	decision_yes[1] 	712
scalar tree_4_3_u03_r12_network.node[1].content_store 	decision_no[1] 	73804
scalar tree_4_3_u03_r12_network.node[1].content_store 	decision_ratio[1] 	0.0095549949004241
scalar tree_4_3_u03_r12_network.node[2].core_layer 	interests[2] 	77794
scalar tree_4_3_u03_r12_network.node[2].core_layer 	data[2] 	75258
scalar tree_4_3_u03_r12_network.node[2].content_store 	p_hit[2] 	0.032598915083425
scalar tree_4_3_u03_r12_network.node[2].content_store 	hits[2] 	2536
scalar tree_4_3_u03_r12_network.node[2].content_store 	misses[2] 	75258
scalar tree_4_3_u03_r12_network.node[2].content_store 	decision_yes[2] 	725
scalar tree_4_3_u03_r12_network.node[2].content_store 	decision_no[2] 	74533
scalar tree_4_3_u03_r12_network.node[2].content_store 	decision_ratio[2] 	0.0096335273326424
scalar tree_4_3_u03_r12_network.node[3].core_layer 	interests[3] 	78026
scalar tree_4_3_u03_r12_network.node[3].core_layer 	data[3] 	75597
scalar tree_4_3_u03_r12_network.node[3].content_store 	p_hit[3] 	0.031130648758106
scalar tree_4_3_u03_r12_network.node[3].content_store 	hits[3] 	2429
scalar tree_4_3_u03_r12_network.node[3].content_store 	misses[3] 	75597
scalar tree_4_3_u03_r12_network.node[3].content_store 	decision_yes[3] 	723
scalar tree_4_3_u03_r12_network.node[3].content_store 	decision_no[3] 	74874
scalar tree_4_3_u03_r12_network.node[3].content_store 	decision_ratio[3] 	0.0095638715822056
scalar tree_4_3_u03_r12_network.node[4].core_layer 	interests[4] 	27231
scalar tree_4_3_u03_r12_network.node[4].core_layer 	data[4] 	25662
scalar tree_4_3_u03_r12_network.node[4].content_store 	p_hit[4] 	0.057544710073078
scalar tree_4_3_u03_r12_network.node[4].content_store 	hits[4] 	1567
scalar tree_4_3_u03_r12_network.node[4].content_store 	misses[4] 	25664
scalar tree_4_3_u03_r12_network.node[4].content_store 	decision_yes[4] 	271
scalar tree_4_3_u03_r12_network.node[4].content_store 	decision_no[4] 	25391
scalar tree_4_3_u03_r12_network.node[4].content_store 	decision_ratio[4] 	0.010560361624191
scalar tree_4_3_u03_r12_network.node[5].core_layer 	interests[5] 	27004
scalar tree_4_3_u03_r12_network.node[5].core_layer 	data[5] 	25482
scalar tree_4_3_u03_r12_network.node[5].content_store 	p_hit[5] 	0.056362020441416
scalar tree_4_3_u03_r12_network.node[5].content_store 	hits[5] 	1522
scalar tree_4_3_u03_r12_network.node[5].content_store 	misses[5] 	25482
scalar tree_4_3_u03_r12_network.node[5].content_store 	decision_yes[5] 	256
scalar tree_4_3_u03_r12_network.node[5].content_store 	decision_no[5] 	25226
scalar tree_4_3_u03_r12_network.node[5].content_store 	decision_ratio[5] 	0.010046307197237
scalar tree_4_3_u03_r12_network.node[6].core_layer 	interests[6] 	27469
scalar tree_4_3_u03_r12_network.node[6].core_layer 	data[6] 	25698
scalar tree_4_3_u03_r12_network.node[6].content_store 	p_hit[6] 	0.064436273617532
scalar tree_4_3_u03_r12_network.node[6].content_store 	hits[6] 	1770
scalar tree_4_3_u03_r12_network.node[6].content_store 	misses[6] 	25699
scalar tree_4_3_u03_r12_network.node[6].content_store 	decision_yes[6] 	241
scalar tree_4_3_u03_r12_network.node[6].content_store 	decision_no[6] 	25457
scalar tree_4_3_u03_r12_network.node[6].content_store 	decision_ratio[6] 	0.0093781617246478
scalar tree_4_3_u03_r12_network.node[7].core_layer 	interests[7] 	36481
scalar tree_4_3_u03_r12_network.node[7].core_layer 	data[7] 	34359
scalar tree_4_3_u03_r12_network.node[7].content_store 	p_hit[7] 	0.058167265151723
scalar tree_4_3_u03_r12_network.node[7].content_store 	hits[7] 	2122
scalar tree_4_3_u03_r12_network.node[7].content_store 	misses[7] 	34359
scalar tree_4_3_u03_r12_network.node[7].content_store 	decision_yes[7] 	342
scalar tree_4_3_u03_r12_network.node[7].content_store 	decision_no[7] 	34017
scalar tree_4_3_u03_r12_network.node[7].content_store 	decision_ratio[7] 	0.0099537239151314
scalar tree_4_3_u03_r12_network.node[8].core_layer 	interests[8] 	18505
scalar tree_4_3_u03_r12_network.node[8].core_layer 	data[8] 	17324
scalar tree_4_3_u03_r12_network.node[8].content_store 	p_hit[8] 	0.063820589029992
scalar tree_4_3_u03_r12_network.node[8].content_store 	hits[8] 	1181
scalar tree_4_3_u03_r12_network.node[8].content_store 	misses[8] 	17324
scalar tree_4_3_u03_r12_network.node[8].content_store 	decision_yes[8] 	168
scalar tree_4_3_u03_r12_network.node[8].content_store 	decision_no[8] 	17156
scalar tree_4_3_u03_r12_network.node[8].content_store 	decision_ratio[8] 	0.0096975294389287
scalar tree_4_3_u03_r12_network.node[9].core_layer 	interests[9] 	27498
scalar tree_4_3_u03_r12_network.node[9].core_layer 	data[9] 	26110
scalar tree_4_3_u03_r12_network.node[9].content_store 	p_hit[9] 	0.050403665721143
scalar tree_4_3_u03_r12_network.node[9].content_store 	hits[9] 	1386
scalar tree_4_3_u03_r12_network.node[9].content_store 	misses[9] 	26112
scalar tree_4_3_u03_r12_network.node[9].content_store 	decision_yes[9] 	251
scalar tree_4_3_u03_r12_network.node[9].content_store 	decision_no[9] 	25859
scalar tree_4_3_u03_r12_network.node[9].content_store 	decision_ratio[9] 	0.0096131750287246
scalar tree_4_3_u03_r12_network.node[10].core_layer 	interests[10] 	36828
scalar tree_4_3_u03_r12_network.node[10].core_layer 	data[10] 	34855
scalar tree_4_3_u03_r12_network.node[10].content_store 	p_hit[10] 	0.053519061583578
scalar tree_4_3_u03_r12_network.node[10].content_store 	hits[10] 	1971
scalar tree_4_3_u03_r12_network.node[10].content_store 	misses[10] 	34857
scalar tree_4_3_u03_r12_network.node[10].content_store 	decision_yes[10] 	354
scalar tree_4_3_u03_r12_network.node[10].content_store 	decision_no[10] 	34501
scalar tree_4_3_u03_r12_network.node[10].content_store 	decision_ratio[10] 	0.010156362071439
scalar tree_4_3_u03_r12_network.node[11].core_layer 	interests[11] 	36595
scalar tree_4_3_u03_r12_network.node[11].core_layer 	data[11] 	34575
scalar tree_4_3_u03_r12_network.node[11].content_store 	p_hit[11] 	0.055144145375051
scalar tree_4_3_u03_r12_network.node[11].content_store 	hits[11] 	2018
scalar tree_4_3_u03_r12_network.node[11].content_store 	misses[11] 	34577
scalar tree_4_3_u03_r12_network.node[11].content_store 	decision_yes[11] 	357
scalar tree_4_3_u03_r12_network.node[11].content_store 	decision_no[11] 	34218
scalar tree_4_3_u03_r12_network.node[11].content_store 	decision_ratio[11] 	0.010325379609544
scalar tree_4_3_u03_r12_network.node[12].core_layer 	interests[12] 	9124
scalar tree_4_3_u03_r12_network.node[12].core_layer 	data[12] 	8596
scalar tree_4_3_u03_r12_network.node[12].content_store 	p_hit[12] 	0.057869355545813
scalar tree_4_3_u03_r12_network.node[12].content_store 	hits[12] 	528
scalar tree_4_3_u03_r12_network.node[12].content_store 	misses[12] 	8596
scalar tree_4_3_u03_r12_network.node[12].content_store 	decision_yes[12] 	78
scalar tree_4_3_u03_r12_network.node[12].content_store 	decision_no[12] 	8518
scalar tree_4_3_u03_r12_network.node[12].content_store 	decision_ratio[12] 	0.0090739879013495
scalar tree_4_3_u03_r12_network.node[13].core_layer 	interests[13] 	12113
scalar tree_4_3_u03_r12_network.node[13].core_layer 	data[13] 	9280
scalar tree_4_3_u03_r12_network.node[13].content_store 	p_hit[13] 	0.23388095434657
scalar tree_4_3_u03_r12_network.node[13].content_store 	hits[13] 	2833
scalar tree_4_3_u03_r12_network.node[13].content_store 	misses[13] 	9280
scalar tree_4_3_u03_r12_network.node[13].content_store 	decision_yes[13] 	82
scalar tree_4_3_u03_r12_network.node[13].content_store 	decision_no[13] 	9198
scalar tree_4_3_u03_r12_network.node[13].content_store 	decision_ratio[13] 	0.0088362068965517
scalar tree_4_3_u03_r12_network.node[14].core_layer 	interests[14] 	11976
scalar tree_4_3_u03_r12_network.node[14].core_layer 	data[14] 	9008
scalar tree_4_3_u03_r12_network.node[14].content_store 	p_hit[14] 	0.24782899131597
scalar tree_4_3_u03_r12_network.node[14].content_store 	hits[14] 	2968
scalar tree_4_3_u03_r12_network.node[14].content_store 	misses[14] 	9008
scalar tree_4_3_u03_r12_network.node[14].content_store 	decision_yes[14] 	85
scalar tree_4_3_u03_r12_network.node[14].content_store 	decision_no[14] 	8923
scalar tree_4_3_u03_r12_network.node[14].content_store 	decision_ratio[14] 	0.0094360568383659
scalar tree_4_3_u03_r12_network.node[15].core_layer 	interests[15] 	11713
scalar tree_4_3_u03_r12_network.node[15].core_layer 	data[15] 	8943
scalar tree_4_3_u03_r12_network.node[15].content_store 	p_hit[15] 	0.2364893707846
scalar tree_4_3_u03_r12_network.node[15].content_store 	hits[15] 	2770
scalar tree_4_3_u03_r12_network.node[15].content_store 	misses[15] 	8943
scalar tree_4_3_u03_r12_network.node[15].content_store 	decision_yes[15] 	84
scalar tree_4_3_u03_r12_network.node[15].content_store 	decision_no[15] 	8859
scalar tree_4_3_u03_r12_network.node[15].content_store 	decision_ratio[15] 	0.0093928212009393
scalar tree_4_3_u03_r12_network.node[16].core_layer 	interests[16] 	11890
scalar tree_4_3_u03_r12_network.node[16].core_layer 	data[16] 	9136
scalar tree_4_3_u03_r12_network.node[16].content_store 	p_hit[16] 	0.23153910849453
scalar tree_4_3_u03_r12_network.node[16].content_store 	hits[16] 	2753
scalar tree_4_3_u03_r12_network.node[16].content_store 	misses[16] 	9137
scalar tree_4_3_u03_r12_network.node[16].content_store 	decision_yes[16] 	93
scalar tree_4_3_u03_r12_network.node[16].content_store 	decision_no[16] 	9043
scalar tree_4_3_u03_r12_network.node[16].content_store 	decision_ratio[16] 	0.010179509632224
scalar tree_4_3_u03_r12_network.node[17].core_layer 	interests[17] 	11904
scalar tree_4_3_u03_r12_network.node[17].core_layer 	data[17] 	8972
scalar tree_4_3_u03_r12_network.node[17].content_store 	p_hit[17] 	0.24621975806452
scalar tree_4_3_u03_r12_network.node[17].content_store 	hits[17] 	2931
scalar tree_4_3_u03_r12_network.node[17].content_store 	misses[17] 	8973
scalar tree_4_3_u03_r12_network.node[17].content_store 	decision_yes[17] 	86
scalar tree_4_3_u03_r12_network.node[17].content_store 	decision_no[17] 	8886
scalar tree_4_3_u03_r12_network.node[17].content_store 	decision_ratio[17] 	0.009585376727597
scalar tree_4_3_u03_r12_network.node[18].core_layer 	interests[18] 	11909
scalar tree_4_3_u03_r12_network.node[18].core_layer 	data[18] 	8896
scalar tree_4_3_u03_r12_network.node[18].content_store 	p_hit[18] 	0.25300193131245
scalar tree_4_3_u03_r12_network.node[18].content_store 	hits[18] 	3013
scalar tree_4_3_u03_r12_network.node[18].content_store 	misses[18] 	8896
scalar tree_4_3_u03_r12_network.node[18].content_store 	decision_yes[18] 	95
scalar tree_4_3_u03_r12_network.node[18].content_store 	decision_no[18] 	8801
scalar tree_4_3_u03_r12_network.node[18].content_store 	decision_ratio[18] 	0.010678956834532
scalar tree_4_3_u03_r12_network.node[19].core_layer 	interests[19] 	12169
scalar tree_4_3_u03_r12_network.node[19].core_layer 	data[19] 	9226
scalar tree_4_3_u03_r12_network.node[19].content_store 	p_hit[19] 	0.24184402991207
scalar tree_4_3_u03_r12_network.node[19].content_store 	hits[19] 	2943
scalar tree_4_3_u03_r12_network.node[19].content_store 	misses[19] 	9226
scalar tree_4_3_u03_r12_network.node[19].content_store 	decision_yes[19] 	83
scalar tree_4_3_u03_r12_network.node[19].content_store 	decision_no[19] 	9143
scalar tree_4_3_u03_r12_network.node[19].content_store 	decision_ratio[19] 	0.0089963147626274
scalar tree_4_3_u03_r12_network.node[20].core_layer 	interests[20] 	11948
scalar tree_4_3_u03_r12_network.node[20].core_layer 	data[20] 	9100
scalar tree_4_3_u03_r12_network.node[20].content_store 	p_hit[20] 	0.23828255775025
scalar tree_4_3_u03_r12_network.node[20].content_store 	hits[20] 	2847
scalar tree_4_3_u03_r12_network.node[20].content_store 	misses[20] 	9101
scalar tree_4_3_u03_r12_network.node[20].content_store 	decision_yes[20] 	83
scalar tree_4_3_u03_r12_network.node[20].content_store 	decision_no[20] 	9017
scalar tree_4_3_u03_r12_network.node[20].content_store 	decision_ratio[20] 	0.0091208791208791
scalar tree_4_3_u03_r12_network.node[21].core_layer 	interests[21] 	11879
scalar tree_4_3_u03_r12_network.node[21].core_layer 	data[21] 	9143
scalar tree_4_3_u03_r12_network.node[21].content_store 	p_hit[21] 	0.23023823554171
scalar tree_4_3_u03_r12_network.node[21].content_store 	hits[21] 	2735
scalar tree_4_3_u03_r12_network.node[21].content_store 	misses[21] 	9144
scalar tree_4_3_u03_r12_network.node[21].content_store 	decision_yes[21] 	108
scalar tree_4_3_u03_r12_network.node[21].content_store 	decision_no[21] 	9035
scalar tree_4_3_u03_r12_network.node[21].content_store 	decision_ratio[21] 	0.011812315432571
scalar tree_4_3_u03_r12_network.node[22].core_layer 	interests[22] 	12056
scalar tree_4_3_u03_r12_network.node[22].core_layer 	data[22] 	9166
scalar tree_4_3_u03_r12_network.node[22].content_store 	p_hit[22] 	0.23971466489715
scalar tree_4_3_u03_r12_network.node[22].content_store 	hits[22] 	2890
scalar tree_4_3_u03_r12_network.node[22].content_store 	misses[22] 	9166
scalar tree_4_3_u03_r12_network.node[22].content_store 	decision_yes[22] 	91
scalar tree_4_3_u03_r12_network.node[22].content_store 	decision_no[22] 	9075
scalar tree_4_3_u03_r12_network.node[22].content_store 	decision_ratio[22] 	0.0099279947632555
scalar tree_4_3_u03_r12_network.node[23].core_layer 	interests[23] 	11957
scalar tree_4_3_u03_r12_network.node[23].core_layer 	data[23] 	9135
scalar tree_4_3_u03_r12_network.node[23].content_store 	p_hit[23] 	0.23601237768671
scalar tree_4_3_u03_r12_network.node[23].content_store 	hits[23] 	2822
scalar tree_4_3_u03_r12_network.node[23].content_store 	misses[23] 	9135
scalar tree_4_3_u03_r12_network.node[23].content_store 	decision_yes[23] 	89
scalar tree_4_3_u03_r12_network.node[23].content_store 	decision_no[23] 	9046
scalar tree_4_3_u03_r12_network.node[23].content_store 	decision_ratio[23] 	0.0097427476737822
scalar tree_4_3_u03_r12_network.node[24].core_layer 	interests[24] 	12140
scalar tree_4_3_u03_r12_network.node[24].core_layer 	data[24] 	9105
scalar tree_4_3_u03_r12_network.node[24].content_store 	p_hit[24] 	0.25
scalar tree_4_3_u03_r12_network.node[24].content_store 	hits[24] 	3035
scalar tree_4_3_u03_r12_network.node[24].content_store 	misses[24] 	9105
scalar tree_4_3_u03_r12_network.node[24].content_store 	decision_yes[24] 	96
scalar tree_4_3_u03_r12_network.node[24].content_store 	decision_no[24] 	9009
scalar tree_4_3_u03_r12_network.node[24].content_store 	decision_ratio[24] 	0.010543657331137
scalar tree_4_3_u03_r12_network.node[25].core_layer 	interests[25] 	11928
scalar tree_4_3_u03_r12_network.node[25].core_layer 	data[25] 	9075
scalar tree_4_3_u03_r12_network.node[25].content_store 	p_hit[25] 	0.23918511066398
scalar tree_4_3_u03_r12_network.node[25].content_store 	hits[25] 	2853
scalar tree_4_3_u03_r12_network.node[25].content_store 	misses[25] 	9075
scalar tree_4_3_u03_r12_network.node[25].content_store 	decision_yes[25] 	103
scalar tree_4_3_u03_r12_network.node[25].content_store 	decision_no[25] 	8972
scalar tree_4_3_u03_r12_network.node[25].content_store 	decision_ratio[25] 	0.011349862258953
scalar tree_4_3_u03_r12_network.node[26].core_layer 	interests[26] 	12094
scalar tree_4_3_u03_r12_network.node[26].core_layer 	data[26] 	9288
scalar tree_4_3_u03_r12_network.node[26].content_store 	p_hit[26] 	0.23201587564081
scalar tree_4_3_u03_r12_network.node[26].content_store 	hits[26] 	2806
scalar tree_4_3_u03_r12_network.node[26].content_store 	misses[26] 	9288
scalar tree_4_3_u03_r12_network.node[26].content_store 	decision_yes[26] 	92
scalar tree_4_3_u03_r12_network.node[26].content_store 	decision_no[26] 	9196
scalar tree_4_3_u03_r12_network.node[26].content_store 	decision_ratio[26] 	0.0099052540913006
scalar tree_4_3_u03_r12_network.node[27].core_layer 	interests[27] 	12074
scalar tree_4_3_u03_r12_network.node[27].core_layer 	data[27] 	9217
scalar tree_4_3_u03_r12_network.node[27].content_store 	p_hit[27] 	0.23662415106841
scalar tree_4_3_u03_r12_network.node[27].content_store 	hits[27] 	2857
scalar tree_4_3_u03_r12_network.node[27].content_store 	misses[27] 	9217
scalar tree_4_3_u03_r12_network.node[27].content_store 	decision_yes[27] 	90
scalar tree_4_3_u03_r12_network.node[27].content_store 	decision_no[27] 	9127
scalar tree_4_3_u03_r12_network.node[27].content_store 	decision_ratio[27] 	0.0097645654768363
scalar tree_4_3_u03_r12_network.node[28].core_layer 	interests[28] 	12114
scalar tree_4_3_u03_r12_network.node[28].core_layer 	data[28] 	9124
scalar tree_4_3_u03_r12_network.node[28].content_store 	p_hit[28] 	0.24682185900611
scalar tree_4_3_u03_r12_network.node[28].content_store 	hits[28] 	2990
scalar tree_4_3_u03_r12_network.node[28].content_store 	misses[28] 	9124
scalar tree_4_3_u03_r12_network.node[28].content_store 	decision_yes[28] 	105
scalar tree_4_3_u03_r12_network.node[28].content_store 	decision_no[28] 	9019
scalar tree_4_3_u03_r12_network.node[28].content_store 	decision_ratio[28] 	0.011508110477861
scalar tree_4_3_u03_r12_network.node[29].core_layer 	interests[29] 	12049
scalar tree_4_3_u03_r12_network.node[29].core_layer 	data[29] 	9189
scalar tree_4_3_u03_r12_network.node[29].content_store 	p_hit[29] 	0.23728110216615
scalar tree_4_3_u03_r12_network.node[29].content_store 	hits[29] 	2859
scalar tree_4_3_u03_r12_network.node[29].content_store 	misses[29] 	9190
scalar tree_4_3_u03_r12_network.node[29].content_store 	decision_yes[29] 	93
scalar tree_4_3_u03_r12_network.node[29].content_store 	decision_no[29] 	9096
scalar tree_4_3_u03_r12_network.node[29].content_store 	decision_ratio[29] 	0.010120796604636
scalar tree_4_3_u03_r12_network.node[30].core_layer 	interests[30] 	11947
scalar tree_4_3_u03_r12_network.node[30].core_layer 	data[30] 	9184
scalar tree_4_3_u03_r12_network.node[30].content_store 	p_hit[30] 	0.23127144889931
scalar tree_4_3_u03_r12_network.node[30].content_store 	hits[30] 	2763
scalar tree_4_3_u03_r12_network.node[30].content_store 	misses[30] 	9184
scalar tree_4_3_u03_r12_network.node[30].content_store 	decision_yes[30] 	88
scalar tree_4_3_u03_r12_network.node[30].content_store 	decision_no[30] 	9096
scalar tree_4_3_u03_r12_network.node[30].content_store 	decision_ratio[30] 	0.009581881533101
scalar tree_4_3_u03_r12_network.node[31].core_layer 	interests[31] 	12115
scalar tree_4_3_u03_r12_network.node[31].core_layer 	data[31] 	9255
scalar tree_4_3_u03_r12_network.node[31].content_store 	p_hit[31] 	0.23598844407759
scalar tree_4_3_u03_r12_network.node[31].content_store 	hits[31] 	2859
scalar tree_4_3_u03_r12_network.node[31].content_store 	misses[31] 	9256
scalar tree_4_3_u03_r12_network.node[31].content_store 	decision_yes[31] 	79
scalar tree_4_3_u03_r12_network.node[31].content_store 	decision_no[31] 	9176
scalar tree_4_3_u03_r12_network.node[31].content_store 	decision_ratio[31] 	0.0085359265262021
scalar tree_4_3_u03_r12_network.node[32].core_layer 	interests[32] 	12049
scalar tree_4_3_u03_r12_network.node[32].core_layer 	data[32] 	9118
scalar tree_4_3_u03_r12_network.node[32].content_store 	p_hit[32] 	0.24325670180098
scalar tree_4_3_u03_r12_network.node[32].content_store 	hits[32] 	2931
scalar tree_4_3_u03_r12_network.node[32].content_store 	misses[32] 	9118
scalar tree_4_3_u03_r12_network.node[32].content_store 	decision_yes[32] 	87
scalar tree_4_3_u03_r12_network.node[32].content_store 	decision_no[32] 	9031
scalar tree_4_3_u03_r12_network.node[32].content_store 	decision_ratio[32] 	0.0095415661329239
scalar tree_4_3_u03_r12_network.node[33].core_layer 	interests[33] 	11941
scalar tree_4_3_u03_r12_network.node[33].core_layer 	data[33] 	9055
scalar tree_4_3_u03_r12_network.node[33].content_store 	p_hit[33] 	0.24168830081233
scalar tree_4_3_u03_r12_network.node[33].content_store 	hits[33] 	2886
scalar tree_4_3_u03_r12_network.node[33].content_store 	misses[33] 	9055
scalar tree_4_3_u03_r12_network.node[33].content_store 	decision_yes[33] 	107
scalar tree_4_3_u03_r12_network.node[33].content_store 	decision_no[33] 	8948
scalar tree_4_3_u03_r12_network.node[33].content_store 	decision_ratio[33] 	0.011816675869685
scalar tree_4_3_u03_r12_network.node[34].core_layer 	interests[34] 	12041
scalar tree_4_3_u03_r12_network.node[34].core_layer 	data[34] 	9205
scalar tree_4_3_u03_r12_network.node[34].content_store 	p_hit[34] 	0.23536251141932
scalar tree_4_3_u03_r12_network.node[34].content_store 	hits[34] 	2834
scalar tree_4_3_u03_r12_network.node[34].content_store 	misses[34] 	9207
scalar tree_4_3_u03_r12_network.node[34].content_store 	decision_yes[34] 	104
scalar tree_4_3_u03_r12_network.node[34].content_store 	decision_no[34] 	9101
scalar tree_4_3_u03_r12_network.node[34].content_store 	decision_ratio[34] 	0.011298207495926
scalar tree_4_3_u03_r12_network.node[35].core_layer 	interests[35] 	12070
scalar tree_4_3_u03_r12_network.node[35].core_layer 	data[35] 	9179
scalar tree_4_3_u03_r12_network.node[35].content_store 	p_hit[35] 	0.23951946975973
scalar tree_4_3_u03_r12_network.node[35].content_store 	hits[35] 	2891
scalar tree_4_3_u03_r12_network.node[35].content_store 	misses[35] 	9179
scalar tree_4_3_u03_r12_network.node[35].content_store 	decision_yes[35] 	87
scalar tree_4_3_u03_r12_network.node[35].content_store 	decision_no[35] 	9092
scalar tree_4_3_u03_r12_network.node[35].content_store 	decision_ratio[35] 	0.0094781566619457
scalar tree_4_3_u03_r12_network.node[36].core_layer 	interests[36] 	11934
scalar tree_4_3_u03_r12_network.node[36].core_layer 	data[36] 	8936
scalar tree_4_3_u03_r12_network.node[36].content_store 	p_hit[36] 	0.2512150159209
scalar tree_4_3_u03_r12_network.node[36].content_store 	hits[36] 	2998
scalar tree_4_3_u03_r12_network.node[36].content_store 	misses[36] 	8936
scalar tree_4_3_u03_r12_network.node[36].content_store 	decision_yes[36] 	107
scalar tree_4_3_u03_r12_network.node[36].content_store 	decision_no[36] 	8829
scalar tree_4_3_u03_r12_network.node[36].content_store 	decision_ratio[36] 	0.011974037600716
scalar tree_4_3_u03_r12_network.node[37].core_layer 	interests[37] 	12083
scalar tree_4_3_u03_r12_network.node[37].core_layer 	data[37] 	9400
scalar tree_4_3_u03_r12_network.node[37].content_store 	p_hit[37] 	0.22204750475875
scalar tree_4_3_u03_r12_network.node[37].content_store 	hits[37] 	2683
scalar tree_4_3_u03_r12_network.node[37].content_store 	misses[37] 	9400
scalar tree_4_3_u03_r12_network.node[37].content_store 	decision_yes[37] 	91
scalar tree_4_3_u03_r12_network.node[37].content_store 	decision_no[37] 	9309
scalar tree_4_3_u03_r12_network.node[37].content_store 	decision_ratio[37] 	0.0096808510638298
scalar tree_4_3_u03_r12_network.node[38].core_layer 	interests[38] 	12020
scalar tree_4_3_u03_r12_network.node[38].core_layer 	data[38] 	9275
scalar tree_4_3_u03_r12_network.node[38].content_store 	p_hit[38] 	0.2283693843594
scalar tree_4_3_u03_r12_network.node[38].content_store 	hits[38] 	2745
scalar tree_4_3_u03_r12_network.node[38].content_store 	misses[38] 	9275
scalar tree_4_3_u03_r12_network.node[38].content_store 	decision_yes[38] 	101
scalar tree_4_3_u03_r12_network.node[38].content_store 	decision_no[38] 	9174
scalar tree_4_3_u03_r12_network.node[38].content_store 	decision_ratio[38] 	0.01088948787062
scalar tree_4_3_u03_r12_network.node[39].core_layer 	interests[39] 	11984
scalar tree_4_3_u03_r12_network.node[39].core_layer 	data[39] 	9124
scalar tree_4_3_u03_r12_network.node[39].content_store 	p_hit[39] 	0.23865153538051
scalar tree_4_3_u03_r12_network.node[39].content_store 	hits[39] 	2860
scalar tree_4_3_u03_r12_network.node[39].content_store 	misses[39] 	9124
scalar tree_4_3_u03_r12_network.node[39].content_store 	decision_yes[39] 	101
scalar tree_4_3_u03_r12_network.node[39].content_store 	decision_no[39] 	9023
scalar tree_4_3_u03_r12_network.node[39].content_store 	decision_ratio[39] 	0.01106970626918
scalar tree_4_3_u03_r12_network.client[13] 	hdistance[13] 	2.8535457772641
scalar tree_4_3_u03_r12_network.client[13] 	downloads[13] 	12113
scalar tree_4_3_u03_r12_network.client[13] 	avg_time[13] 	0.004348754469
scalar tree_4_3_u03_r12_network.client[14] 	hdistance[14] 	2.8430193720775
scalar tree_4_3_u03_r12_network.client[14] 	downloads[14] 	11976
scalar tree_4_3_u03_r12_network.client[14] 	avg_time[14] 	0.004321190525
scalar tree_4_3_u03_r12_network.client[15] 	hdistance[15] 	2.8661316485956
scalar tree_4_3_u03_r12_network.client[15] 	downloads[15] 	11713
scalar tree_4_3_u03_r12_network.client[15] 	avg_time[15] 	0.004363354008
scalar tree_4_3_u03_r12_network.client[16] 	hdistance[16] 	2.8644124821263
scalar tree_4_3_u03_r12_network.client[16] 	downloads[16] 	11889
scalar tree_4_3_u03_r12_network.client[16] 	avg_time[16] 	0.004365502765
scalar tree_4_3_u03_r12_network.client[17] 	hdistance[17] 	2.8161807947576
scalar tree_4_3_u03_r12_network.client[17] 	downloads[17] 	11903
scalar tree_4_3_u03_r12_network.client[17] 	avg_time[17] 	0.004294843686
scalar tree_4_3_u03_r12_network.client[18] 	hdistance[18] 	2.82945671341
scalar tree_4_3_u03_r12_network.client[18] 	downloads[18] 	11909
scalar tree_4_3_u03_r12_network.client[18] 	avg_time[18] 	0.00430514435
scalar tree_4_3_u03_r12_network.client[19] 	hdistance[19] 	2.8423863916509
scalar tree_4_3_u03_r12_network.client[19] 	downloads[19] 	12169
scalar tree_4_3_u03_r12_network.client[19] 	avg_time[19] 	0.004325681838
scalar tree_4_3_u03_r12_network.client[20] 	hdistance[20] 	2.8548589604085
scalar tree_4_3_u03_r12_network.client[20] 	downloads[20] 	11947
scalar tree_4_3_u03_r12_network.client[20] 	avg_time[20] 	0.004345690498
scalar tree_4_3_u03_r12_network.client[21] 	hdistance[21] 	2.8578885334231
scalar tree_4_3_u03_r12_network.client[21] 	downloads[21] 	11878
scalar tree_4_3_u03_r12_network.client[21] 	avg_time[21] 	0.004355684981
scalar tree_4_3_u03_r12_network.client[22] 	hdistance[22] 	2.8432315859323
scalar tree_4_3_u03_r12_network.client[22] 	downloads[22] 	12056
scalar tree_4_3_u03_r12_network.client[22] 	avg_time[22] 	0.00433377272
scalar tree_4_3_u03_r12_network.client[23] 	hdistance[23] 	2.8607510245045
scalar tree_4_3_u03_r12_network.client[23] 	downloads[23] 	11957
scalar tree_4_3_u03_r12_network.client[23] 	avg_time[23] 	0.004358448123
scalar tree_4_3_u03_r12_network.client[24] 	hdistance[24] 	2.8308072487644
scalar tree_4_3_u03_r12_network.client[24] 	downloads[24] 	12140
scalar tree_4_3_u03_r12_network.client[24] 	avg_time[24] 	0.004310211171
scalar tree_4_3_u03_r12_network.client[25] 	hdistance[25] 	2.8376928236083
scalar tree_4_3_u03_r12_network.client[25] 	downloads[25] 	11928
scalar tree_4_3_u03_r12_network.client[25] 	avg_time[25] 	0.004325785041
scalar tree_4_3_u03_r12_network.client[26] 	hdistance[26] 	2.8563750620142
scalar tree_4_3_u03_r12_network.client[26] 	downloads[26] 	12094
scalar tree_4_3_u03_r12_network.client[26] 	avg_time[26] 	0.004353891459
scalar tree_4_3_u03_r12_network.client[27] 	hdistance[27] 	2.8501739274474
scalar tree_4_3_u03_r12_network.client[27] 	downloads[27] 	12074
scalar tree_4_3_u03_r12_network.client[27] 	avg_time[27] 	0.004345864142
scalar tree_4_3_u03_r12_network.client[28] 	hdistance[28] 	2.8508337460789
scalar tree_4_3_u03_r12_network.client[28] 	downloads[28] 	12114
scalar tree_4_3_u03_r12_network.client[28] 	avg_time[28] 	0.00433894364
scalar tree_4_3_u03_r12_network.client[29] 	hdistance[29] 	2.8644588313413
scalar tree_4_3_u03_r12_network.client[29] 	downloads[29] 	12048
scalar tree_4_3_u03_r12_network.client[29] 	avg_time[29] 	0.004362048766
scalar tree_4_3_u03_r12_network.client[30] 	hdistance[30] 	2.8862475935381
scalar tree_4_3_u03_r12_network.client[30] 	downloads[30] 	11947
scalar tree_4_3_u03_r12_network.client[30] 	avg_time[30] 	0.004397575812
scalar tree_4_3_u03_r12_network.client[31] 	hdistance[31] 	2.8812943701502
scalar tree_4_3_u03_r12_network.client[31] 	downloads[31] 	12114
scalar tree_4_3_u03_r12_network.client[31] 	avg_time[31] 	0.004382368522
scalar tree_4_3_u03_r12_network.client[32] 	hdistance[32] 	2.8509419868869
scalar tree_4_3_u03_r12_network.client[32] 	downloads[32] 	12049
scalar tree_4_3_u03_r12_network.client[32] 	avg_time[32] 	0.004335294524
scalar tree_4_3_u03_r12_network.client[33] 	hdistance[33] 	2.89297378779
scalar tree_4_3_u03_r12_network.client[33] 	downloads[33] 	11941
scalar tree_4_3_u03_r12_network.client[33] 	avg_time[33] 	0.004394373815
scalar tree_4_3_u03_r12_network.client[34] 	hdistance[34] 	2.8698396876817
scalar tree_4_3_u03_r12_network.client[34] 	downloads[34] 	12039
scalar tree_4_3_u03_r12_network.client[34] 	avg_time[34] 	0.004368170698
scalar tree_4_3_u03_r12_network.client[35] 	hdistance[35] 	2.8613918806959
scalar tree_4_3_u03_r12_network.client[35] 	downloads[35] 	12070
scalar tree_4_3_u03_r12_network.client[35] 	avg_time[35] 	0.004357743491
scalar tree_4_3_u03_r12_network.client[36] 	hdistance[36] 	2.8304843304843
scalar tree_4_3_u03_r12_network.client[36] 	downloads[36] 	11934
scalar tree_4_3_u03_r12_network.client[36] 	avg_time[36] 	0.00431070592
scalar tree_4_3_u03_r12_network.client[37] 	hdistance[37] 	2.8880244972275
scalar tree_4_3_u03_r12_network.client[37] 	downloads[37] 	12083
scalar tree_4_3_u03_r12_network.client[37] 	avg_time[37] 	0.004400559757
scalar tree_4_3_u03_r12_network.client[38] 	hdistance[38] 	2.8737936772047
scalar tree_4_3_u03_r12_network.client[38] 	downloads[38] 	12020
scalar tree_4_3_u03_r12_network.client[38] 	avg_time[38] 	0.004381884685
scalar tree_4_3_u03_r12_network.client[39] 	hdistance[39] 	2.8547229639519
scalar tree_4_3_u03_r12_network.client[39] 	downloads[39] 	11984
scalar tree_4_3_u03_r12_network.client[39] 	avg_time[39] 	0.004345624491
