version 2
run General-145-20160820-16:17:28-2644
attr a 0.9
attr cd lce
attr configname General
attr cr lru
attr datetime 20160820-16:17:28
attr experiment General
attr fsize 1
attr inifile hw5115/scenario_A/SPR-LCE.ini
attr iterationvars "$name=tree_4_3, $un=07, $rep=6, $cd=lce, $cr=lru, $fsize=1, $a=0.9, $sl=spr, $ttl=1000, $variance=0.05"
attr iterationvars2 "$name=tree_4_3, $un=07, $rep=6, $cd=lce, $cr=lru, $fsize=1, $a=0.9, $sl=spr, $ttl=1000, $variance=0.05, $repetition=0"
attr measurement "$name=tree_4_3, $un=07, $rep=6, $cd=lce, $cr=lru, $fsize=1, $a=0.9, $sl=spr, $ttl=1000, $variance=0.05"
attr name tree_4_3
attr network networks.${name}_u${un}_r${rep}_network
attr processid 2644
attr rep 6
attr repetition 0
attr replication #0
attr resultdir results
attr runnumber 145
attr seedset 6
attr sl spr
attr ttl 1000
attr un 07
attr variance 0.05

scalar . 	a 	0.9
scalar . 	fsize 	1
scalar . 	rep 	6
scalar . 	ttl 	1000
scalar . 	un 	07
scalar . 	variance 	0.05
scalar tree_4_3_u07_r6_network.content_distribution 	repo-0 	0
scalar tree_4_3_u07_r6_network.content_distribution 	client-0 	13
scalar tree_4_3_u07_r6_network.content_distribution 	client-1 	14
scalar tree_4_3_u07_r6_network.content_distribution 	client-2 	15
scalar tree_4_3_u07_r6_network.content_distribution 	client-3 	16
scalar tree_4_3_u07_r6_network.content_distribution 	client-4 	17
scalar tree_4_3_u07_r6_network.content_distribution 	client-5 	18
scalar tree_4_3_u07_r6_network.content_distribution 	client-6 	19
scalar tree_4_3_u07_r6_network.content_distribution 	client-7 	20
scalar tree_4_3_u07_r6_network.content_distribution 	client-8 	21
scalar tree_4_3_u07_r6_network.content_distribution 	client-9 	22
scalar tree_4_3_u07_r6_network.content_distribution 	client-10 	23
scalar tree_4_3_u07_r6_network.content_distribution 	client-11 	24
scalar tree_4_3_u07_r6_network.content_distribution 	client-12 	25
scalar tree_4_3_u07_r6_network.content_distribution 	client-13 	26
scalar tree_4_3_u07_r6_network.content_distribution 	client-14 	27
scalar tree_4_3_u07_r6_network.content_distribution 	client-15 	28
scalar tree_4_3_u07_r6_network.content_distribution 	client-16 	29
scalar tree_4_3_u07_r6_network.content_distribution 	client-17 	30
scalar tree_4_3_u07_r6_network.content_distribution 	client-18 	31
scalar tree_4_3_u07_r6_network.content_distribution 	client-19 	32
scalar tree_4_3_u07_r6_network.content_distribution 	client-20 	33
scalar tree_4_3_u07_r6_network.content_distribution 	client-21 	34
scalar tree_4_3_u07_r6_network.content_distribution 	client-22 	35
scalar tree_4_3_u07_r6_network.content_distribution 	client-23 	36
scalar tree_4_3_u07_r6_network.content_distribution 	client-24 	37
scalar tree_4_3_u07_r6_network.content_distribution 	client-25 	38
scalar tree_4_3_u07_r6_network.content_distribution 	client-26 	39
scalar tree_4_3_u07_r6_network.content_distribution 	repo-0_card 	100000
scalar tree_4_3_u07_r6_network.content_distribution 	repo-0_price 	0
scalar tree_4_3_u07_r6_network.statistics 	stabilization_time 	809.8
scalar tree_4_3_u07_r6_network.statistics 	p_hit 	0.11245007107579
scalar tree_4_3_u07_r6_network.statistics 	interests 	28165.125
scalar tree_4_3_u07_r6_network.statistics 	data 	20035.65
scalar tree_4_3_u07_r6_network.statistics 	hdistance 	3.2539436261446
scalar tree_4_3_u07_r6_network.statistics 	avg_time 	0.004929508007
scalar tree_4_3_u07_r6_network.statistics 	downloads 	325159
scalar tree_4_3_u07_r6_network.statistics 	total_cost 	0
scalar tree_4_3_u07_r6_network.statistics 	total_replicas 	100000
scalar tree_4_3_u07_r6_network.statistics 	inner_hit 	0.21106904622046
scalar tree_4_3_u07_r6_network.node[0].core_layer 	interests[0] 	260377
scalar tree_4_3_u07_r6_network.node[0].core_layer 	repo_load[0] 	256528
scalar tree_4_3_u07_r6_network.node[0].core_layer 	data[0] 	0
scalar tree_4_3_u07_r6_network.node[0].core_layer 	repo_int[0] 	256528
scalar tree_4_3_u07_r6_network.node[0].content_store 	p_hit[0] 	0.014782411656944
scalar tree_4_3_u07_r6_network.node[0].content_store 	hits[0] 	3849
scalar tree_4_3_u07_r6_network.node[0].content_store 	misses[0] 	256528
scalar tree_4_3_u07_r6_network.node[0].content_store 	decision_yes[0] 	256528
scalar tree_4_3_u07_r6_network.node[0].content_store 	decision_no[0] 	0
scalar tree_4_3_u07_r6_network.node[0].content_store 	decision_ratio[0] 	1
scalar tree_4_3_u07_r6_network.node[1].core_layer 	interests[1] 	167566
scalar tree_4_3_u07_r6_network.node[1].core_layer 	data[1] 	163230
scalar tree_4_3_u07_r6_network.node[1].content_store 	p_hit[1] 	0.025727176157454
scalar tree_4_3_u07_r6_network.node[1].content_store 	hits[1] 	4311
scalar tree_4_3_u07_r6_network.node[1].content_store 	misses[1] 	163255
scalar tree_4_3_u07_r6_network.node[1].content_store 	decision_yes[1] 	163230
scalar tree_4_3_u07_r6_network.node[1].content_store 	decision_no[1] 	0
scalar tree_4_3_u07_r6_network.node[1].content_store 	decision_ratio[1] 	1
scalar tree_4_3_u07_r6_network.node[2].core_layer 	interests[2] 	88722
scalar tree_4_3_u07_r6_network.node[2].core_layer 	data[2] 	86828
scalar tree_4_3_u07_r6_network.node[2].content_store 	p_hit[2] 	0.021268681950362
scalar tree_4_3_u07_r6_network.node[2].content_store 	hits[2] 	1887
scalar tree_4_3_u07_r6_network.node[2].content_store 	misses[2] 	86835
scalar tree_4_3_u07_r6_network.node[2].content_store 	decision_yes[2] 	86828
scalar tree_4_3_u07_r6_network.node[2].content_store 	decision_no[2] 	0
scalar tree_4_3_u07_r6_network.node[2].content_store 	decision_ratio[2] 	1
scalar tree_4_3_u07_r6_network.node[3].core_layer 	interests[3] 	10318
scalar tree_4_3_u07_r6_network.node[3].core_layer 	data[3] 	10318
scalar tree_4_3_u07_r6_network.node[3].content_store 	p_hit[3] 	0
scalar tree_4_3_u07_r6_network.node[3].content_store 	hits[3] 	0
scalar tree_4_3_u07_r6_network.node[3].content_store 	misses[3] 	10318
scalar tree_4_3_u07_r6_network.node[3].content_store 	decision_yes[3] 	10318
scalar tree_4_3_u07_r6_network.node[3].content_store 	decision_no[3] 	0
scalar tree_4_3_u07_r6_network.node[3].content_store 	decision_ratio[3] 	1
scalar tree_4_3_u07_r6_network.node[4].core_layer 	interests[4] 	50674
scalar tree_4_3_u07_r6_network.node[4].core_layer 	data[4] 	48905
scalar tree_4_3_u07_r6_network.node[4].content_store 	p_hit[4] 	0.034850219047243
scalar tree_4_3_u07_r6_network.node[4].content_store 	hits[4] 	1766
scalar tree_4_3_u07_r6_network.node[4].content_store 	misses[4] 	48908
scalar tree_4_3_u07_r6_network.node[4].content_store 	decision_yes[4] 	48905
scalar tree_4_3_u07_r6_network.node[4].content_store 	decision_no[4] 	0
scalar tree_4_3_u07_r6_network.node[4].content_store 	decision_ratio[4] 	1
scalar tree_4_3_u07_r6_network.node[5].core_layer 	interests[5] 	20476
scalar tree_4_3_u07_r6_network.node[5].core_layer 	data[5] 	20009
scalar tree_4_3_u07_r6_network.node[5].content_store 	p_hit[5] 	0.022758351240477
scalar tree_4_3_u07_r6_network.node[5].content_store 	hits[5] 	466
scalar tree_4_3_u07_r6_network.node[5].content_store 	misses[5] 	20010
scalar tree_4_3_u07_r6_network.node[5].content_store 	decision_yes[5] 	20009
scalar tree_4_3_u07_r6_network.node[5].content_store 	decision_no[5] 	0
scalar tree_4_3_u07_r6_network.node[5].content_store 	decision_ratio[5] 	1
scalar tree_4_3_u07_r6_network.node[6].core_layer 	interests[6] 	20418
scalar tree_4_3_u07_r6_network.node[6].core_layer 	data[6] 	19960
scalar tree_4_3_u07_r6_network.node[6].content_store 	p_hit[6] 	0.022333235380547
scalar tree_4_3_u07_r6_network.node[6].content_store 	hits[6] 	456
scalar tree_4_3_u07_r6_network.node[6].content_store 	misses[6] 	19962
scalar tree_4_3_u07_r6_network.node[6].content_store 	decision_yes[6] 	19960
scalar tree_4_3_u07_r6_network.node[6].content_store 	decision_no[6] 	0
scalar tree_4_3_u07_r6_network.node[6].content_store 	decision_ratio[6] 	1
scalar tree_4_3_u07_r6_network.node[7].core_layer 	interests[7] 	40534
scalar tree_4_3_u07_r6_network.node[7].core_layer 	data[7] 	39274
scalar tree_4_3_u07_r6_network.node[7].content_store 	p_hit[7] 	0.030936991167908
scalar tree_4_3_u07_r6_network.node[7].content_store 	hits[7] 	1254
scalar tree_4_3_u07_r6_network.node[7].content_store 	misses[7] 	39280
scalar tree_4_3_u07_r6_network.node[7].content_store 	decision_yes[7] 	39274
scalar tree_4_3_u07_r6_network.node[7].content_store 	decision_no[7] 	0
scalar tree_4_3_u07_r6_network.node[7].content_store 	decision_ratio[7] 	1
scalar tree_4_3_u07_r6_network.node[8].core_layer 	interests[8] 	30359
scalar tree_4_3_u07_r6_network.node[8].core_layer 	data[8] 	29461
scalar tree_4_3_u07_r6_network.node[8].content_store 	p_hit[8] 	0.029579366909318
scalar tree_4_3_u07_r6_network.node[8].content_store 	hits[8] 	898
scalar tree_4_3_u07_r6_network.node[8].content_store 	misses[8] 	29461
scalar tree_4_3_u07_r6_network.node[8].content_store 	decision_yes[8] 	29461
scalar tree_4_3_u07_r6_network.node[8].content_store 	decision_no[8] 	0
scalar tree_4_3_u07_r6_network.node[8].content_store 	decision_ratio[8] 	1
scalar tree_4_3_u07_r6_network.node[9].core_layer 	interests[9] 	20331
scalar tree_4_3_u07_r6_network.node[9].core_layer 	data[9] 	19894
scalar tree_4_3_u07_r6_network.node[9].content_store 	p_hit[9] 	0.021445083862083
scalar tree_4_3_u07_r6_network.node[9].content_store 	hits[9] 	436
scalar tree_4_3_u07_r6_network.node[9].content_store 	misses[9] 	19895
scalar tree_4_3_u07_r6_network.node[9].content_store 	decision_yes[9] 	19894
scalar tree_4_3_u07_r6_network.node[9].content_store 	decision_no[9] 	0
scalar tree_4_3_u07_r6_network.node[9].content_store 	decision_ratio[9] 	1
scalar tree_4_3_u07_r6_network.node[10].core_layer 	interests[10] 	40661
scalar tree_4_3_u07_r6_network.node[10].core_layer 	data[10] 	39416
scalar tree_4_3_u07_r6_network.node[10].content_store 	p_hit[10] 	0.03056983350139
scalar tree_4_3_u07_r6_network.node[10].content_store 	hits[10] 	1243
scalar tree_4_3_u07_r6_network.node[10].content_store 	misses[10] 	39418
scalar tree_4_3_u07_r6_network.node[10].content_store 	decision_yes[10] 	39416
scalar tree_4_3_u07_r6_network.node[10].content_store 	decision_no[10] 	0
scalar tree_4_3_u07_r6_network.node[10].content_store 	decision_ratio[10] 	1
scalar tree_4_3_u07_r6_network.node[11].core_layer 	interests[11] 	40661
scalar tree_4_3_u07_r6_network.node[11].core_layer 	data[11] 	39367
scalar tree_4_3_u07_r6_network.node[11].content_store 	p_hit[11] 	0.0317995130469
scalar tree_4_3_u07_r6_network.node[11].content_store 	hits[11] 	1293
scalar tree_4_3_u07_r6_network.node[11].content_store 	misses[11] 	39368
scalar tree_4_3_u07_r6_network.node[11].content_store 	decision_yes[11] 	39367
scalar tree_4_3_u07_r6_network.node[11].content_store 	decision_no[11] 	0
scalar tree_4_3_u07_r6_network.node[11].content_store 	decision_ratio[11] 	1
scalar tree_4_3_u07_r6_network.node[12].core_layer 	interests[12] 	10333
scalar tree_4_3_u07_r6_network.node[12].core_layer 	data[12] 	10318
scalar tree_4_3_u07_r6_network.node[12].content_store 	p_hit[12] 	0.0014516597309591
scalar tree_4_3_u07_r6_network.node[12].content_store 	hits[12] 	15
scalar tree_4_3_u07_r6_network.node[12].content_store 	misses[12] 	10318
scalar tree_4_3_u07_r6_network.node[12].content_store 	decision_yes[12] 	10318
scalar tree_4_3_u07_r6_network.node[12].content_store 	decision_no[12] 	0
scalar tree_4_3_u07_r6_network.node[12].content_store 	decision_ratio[12] 	1
scalar tree_4_3_u07_r6_network.node[13].core_layer 	interests[13] 	12101
scalar tree_4_3_u07_r6_network.node[13].core_layer 	data[13] 	10148
scalar tree_4_3_u07_r6_network.node[13].content_store 	p_hit[13] 	0.1613089827287
scalar tree_4_3_u07_r6_network.node[13].content_store 	hits[13] 	1952
scalar tree_4_3_u07_r6_network.node[13].content_store 	misses[13] 	10149
scalar tree_4_3_u07_r6_network.node[13].content_store 	decision_yes[13] 	10148
scalar tree_4_3_u07_r6_network.node[13].content_store 	decision_no[13] 	0
scalar tree_4_3_u07_r6_network.node[13].content_store 	decision_ratio[13] 	1
scalar tree_4_3_u07_r6_network.node[14].core_layer 	interests[14] 	12180
scalar tree_4_3_u07_r6_network.node[14].core_layer 	data[14] 	10168
scalar tree_4_3_u07_r6_network.node[14].content_store 	p_hit[14] 	0.16518883415435
scalar tree_4_3_u07_r6_network.node[14].content_store 	hits[14] 	2012
scalar tree_4_3_u07_r6_network.node[14].content_store 	misses[14] 	10168
scalar tree_4_3_u07_r6_network.node[14].content_store 	decision_yes[14] 	10168
scalar tree_4_3_u07_r6_network.node[14].content_store 	decision_no[14] 	0
scalar tree_4_3_u07_r6_network.node[14].content_store 	decision_ratio[14] 	1
scalar tree_4_3_u07_r6_network.node[15].core_layer 	interests[15] 	11935
scalar tree_4_3_u07_r6_network.node[15].core_layer 	data[15] 	10095
scalar tree_4_3_u07_r6_network.node[15].content_store 	p_hit[15] 	0.15408462505237
scalar tree_4_3_u07_r6_network.node[15].content_store 	hits[15] 	1839
scalar tree_4_3_u07_r6_network.node[15].content_store 	misses[15] 	10096
scalar tree_4_3_u07_r6_network.node[15].content_store 	decision_yes[15] 	10095
scalar tree_4_3_u07_r6_network.node[15].content_store 	decision_no[15] 	0
scalar tree_4_3_u07_r6_network.node[15].content_store 	decision_ratio[15] 	1
scalar tree_4_3_u07_r6_network.node[16].core_layer 	interests[16] 	11928
scalar tree_4_3_u07_r6_network.node[16].core_layer 	data[16] 	10135
scalar tree_4_3_u07_r6_network.node[16].content_store 	p_hit[16] 	0.15031857813548
scalar tree_4_3_u07_r6_network.node[16].content_store 	hits[16] 	1793
scalar tree_4_3_u07_r6_network.node[16].content_store 	misses[16] 	10135
scalar tree_4_3_u07_r6_network.node[16].content_store 	decision_yes[16] 	10135
scalar tree_4_3_u07_r6_network.node[16].content_store 	decision_no[16] 	0
scalar tree_4_3_u07_r6_network.node[16].content_store 	decision_ratio[16] 	1
scalar tree_4_3_u07_r6_network.node[17].core_layer 	interests[17] 	12193
scalar tree_4_3_u07_r6_network.node[17].core_layer 	data[17] 	10273
scalar tree_4_3_u07_r6_network.node[17].content_store 	p_hit[17] 	0.15746739932748
scalar tree_4_3_u07_r6_network.node[17].content_store 	hits[17] 	1920
scalar tree_4_3_u07_r6_network.node[17].content_store 	misses[17] 	10273
scalar tree_4_3_u07_r6_network.node[17].content_store 	decision_yes[17] 	10273
scalar tree_4_3_u07_r6_network.node[17].content_store 	decision_no[17] 	0
scalar tree_4_3_u07_r6_network.node[17].content_store 	decision_ratio[17] 	1
scalar tree_4_3_u07_r6_network.node[18].core_layer 	interests[18] 	12019
scalar tree_4_3_u07_r6_network.node[18].core_layer 	data[18] 	10203
scalar tree_4_3_u07_r6_network.node[18].content_store 	p_hit[18] 	0.15101089940927
scalar tree_4_3_u07_r6_network.node[18].content_store 	hits[18] 	1815
scalar tree_4_3_u07_r6_network.node[18].content_store 	misses[18] 	10204
scalar tree_4_3_u07_r6_network.node[18].content_store 	decision_yes[18] 	10203
scalar tree_4_3_u07_r6_network.node[18].content_store 	decision_no[18] 	0
scalar tree_4_3_u07_r6_network.node[18].content_store 	decision_ratio[18] 	1
scalar tree_4_3_u07_r6_network.node[19].core_layer 	interests[19] 	12062
scalar tree_4_3_u07_r6_network.node[19].core_layer 	data[19] 	10128
scalar tree_4_3_u07_r6_network.node[19].content_store 	p_hit[19] 	0.16033825236279
scalar tree_4_3_u07_r6_network.node[19].content_store 	hits[19] 	1934
scalar tree_4_3_u07_r6_network.node[19].content_store 	misses[19] 	10128
scalar tree_4_3_u07_r6_network.node[19].content_store 	decision_yes[19] 	10128
scalar tree_4_3_u07_r6_network.node[19].content_store 	decision_no[19] 	0
scalar tree_4_3_u07_r6_network.node[19].content_store 	decision_ratio[19] 	1
scalar tree_4_3_u07_r6_network.node[20].core_layer 	interests[20] 	12135
scalar tree_4_3_u07_r6_network.node[20].core_layer 	data[20] 	10232
scalar tree_4_3_u07_r6_network.node[20].content_store 	p_hit[20] 	0.15673671199011
scalar tree_4_3_u07_r6_network.node[20].content_store 	hits[20] 	1902
scalar tree_4_3_u07_r6_network.node[20].content_store 	misses[20] 	10233
scalar tree_4_3_u07_r6_network.node[20].content_store 	decision_yes[20] 	10232
scalar tree_4_3_u07_r6_network.node[20].content_store 	decision_no[20] 	0
scalar tree_4_3_u07_r6_network.node[20].content_store 	decision_ratio[20] 	1
scalar tree_4_3_u07_r6_network.node[21].core_layer 	interests[21] 	12087
scalar tree_4_3_u07_r6_network.node[21].core_layer 	data[21] 	10185
scalar tree_4_3_u07_r6_network.node[21].content_store 	p_hit[21] 	0.15727641267477
scalar tree_4_3_u07_r6_network.node[21].content_store 	hits[21] 	1901
scalar tree_4_3_u07_r6_network.node[21].content_store 	misses[21] 	10186
scalar tree_4_3_u07_r6_network.node[21].content_store 	decision_yes[21] 	10185
scalar tree_4_3_u07_r6_network.node[21].content_store 	decision_no[21] 	0
scalar tree_4_3_u07_r6_network.node[21].content_store 	decision_ratio[21] 	1
scalar tree_4_3_u07_r6_network.node[22].core_layer 	interests[22] 	11953
scalar tree_4_3_u07_r6_network.node[22].core_layer 	data[22] 	10096
scalar tree_4_3_u07_r6_network.node[22].content_store 	p_hit[22] 	0.15527482640341
scalar tree_4_3_u07_r6_network.node[22].content_store 	hits[22] 	1856
scalar tree_4_3_u07_r6_network.node[22].content_store 	misses[22] 	10097
scalar tree_4_3_u07_r6_network.node[22].content_store 	decision_yes[22] 	10096
scalar tree_4_3_u07_r6_network.node[22].content_store 	decision_no[22] 	0
scalar tree_4_3_u07_r6_network.node[22].content_store 	decision_ratio[22] 	1
scalar tree_4_3_u07_r6_network.node[23].core_layer 	interests[23] 	12147
scalar tree_4_3_u07_r6_network.node[23].core_layer 	data[23] 	10268
scalar tree_4_3_u07_r6_network.node[23].content_store 	p_hit[23] 	0.15468840042809
scalar tree_4_3_u07_r6_network.node[23].content_store 	hits[23] 	1879
scalar tree_4_3_u07_r6_network.node[23].content_store 	misses[23] 	10268
scalar tree_4_3_u07_r6_network.node[23].content_store 	decision_yes[23] 	10268
scalar tree_4_3_u07_r6_network.node[23].content_store 	decision_no[23] 	0
scalar tree_4_3_u07_r6_network.node[23].content_store 	decision_ratio[23] 	1
scalar tree_4_3_u07_r6_network.node[24].core_layer 	interests[24] 	12062
scalar tree_4_3_u07_r6_network.node[24].core_layer 	data[24] 	10158
scalar tree_4_3_u07_r6_network.node[24].content_store 	p_hit[24] 	0.15785110263638
scalar tree_4_3_u07_r6_network.node[24].content_store 	hits[24] 	1904
scalar tree_4_3_u07_r6_network.node[24].content_store 	misses[24] 	10158
scalar tree_4_3_u07_r6_network.node[24].content_store 	decision_yes[24] 	10158
scalar tree_4_3_u07_r6_network.node[24].content_store 	decision_no[24] 	0
scalar tree_4_3_u07_r6_network.node[24].content_store 	decision_ratio[24] 	1
scalar tree_4_3_u07_r6_network.node[25].core_layer 	interests[25] 	11916
scalar tree_4_3_u07_r6_network.node[25].core_layer 	data[25] 	10012
scalar tree_4_3_u07_r6_network.node[25].content_store 	p_hit[25] 	0.15970124202753
scalar tree_4_3_u07_r6_network.node[25].content_store 	hits[25] 	1903
scalar tree_4_3_u07_r6_network.node[25].content_store 	misses[25] 	10013
scalar tree_4_3_u07_r6_network.node[25].content_store 	decision_yes[25] 	10012
scalar tree_4_3_u07_r6_network.node[25].content_store 	decision_no[25] 	0
scalar tree_4_3_u07_r6_network.node[25].content_store 	decision_ratio[25] 	1
scalar tree_4_3_u07_r6_network.node[26].core_layer 	interests[26] 	11747
scalar tree_4_3_u07_r6_network.node[26].core_layer 	data[26] 	9964
scalar tree_4_3_u07_r6_network.node[26].content_store 	p_hit[26] 	0.15178343406827
scalar tree_4_3_u07_r6_network.node[26].content_store 	hits[26] 	1783
scalar tree_4_3_u07_r6_network.node[26].content_store 	misses[26] 	9964
scalar tree_4_3_u07_r6_network.node[26].content_store 	decision_yes[26] 	9964
scalar tree_4_3_u07_r6_network.node[26].content_store 	decision_no[26] 	0
scalar tree_4_3_u07_r6_network.node[26].content_store 	decision_ratio[26] 	1
scalar tree_4_3_u07_r6_network.node[27].core_layer 	interests[27] 	12028
scalar tree_4_3_u07_r6_network.node[27].core_layer 	data[27] 	10129
scalar tree_4_3_u07_r6_network.node[27].content_store 	p_hit[27] 	0.15796474891919
scalar tree_4_3_u07_r6_network.node[27].content_store 	hits[27] 	1900
scalar tree_4_3_u07_r6_network.node[27].content_store 	misses[27] 	10128
scalar tree_4_3_u07_r6_network.node[27].content_store 	decision_yes[27] 	10129
scalar tree_4_3_u07_r6_network.node[27].content_store 	decision_no[27] 	0
scalar tree_4_3_u07_r6_network.node[27].content_store 	decision_ratio[27] 	1
scalar tree_4_3_u07_r6_network.node[28].core_layer 	interests[28] 	11959
scalar tree_4_3_u07_r6_network.node[28].core_layer 	data[28] 	10128
scalar tree_4_3_u07_r6_network.node[28].content_store 	p_hit[28] 	0.15302282799565
scalar tree_4_3_u07_r6_network.node[28].content_store 	hits[28] 	1830
scalar tree_4_3_u07_r6_network.node[28].content_store 	misses[28] 	10129
scalar tree_4_3_u07_r6_network.node[28].content_store 	decision_yes[28] 	10128
scalar tree_4_3_u07_r6_network.node[28].content_store 	decision_no[28] 	0
scalar tree_4_3_u07_r6_network.node[28].content_store 	decision_ratio[28] 	1
scalar tree_4_3_u07_r6_network.node[29].core_layer 	interests[29] 	12145
scalar tree_4_3_u07_r6_network.node[29].core_layer 	data[29] 	10267
scalar tree_4_3_u07_r6_network.node[29].content_store 	p_hit[29] 	0.15454919720049
scalar tree_4_3_u07_r6_network.node[29].content_store 	hits[29] 	1877
scalar tree_4_3_u07_r6_network.node[29].content_store 	misses[29] 	10268
scalar tree_4_3_u07_r6_network.node[29].content_store 	decision_yes[29] 	10267
scalar tree_4_3_u07_r6_network.node[29].content_store 	decision_no[29] 	0
scalar tree_4_3_u07_r6_network.node[29].content_store 	decision_ratio[29] 	1
scalar tree_4_3_u07_r6_network.node[30].core_layer 	interests[30] 	12078
scalar tree_4_3_u07_r6_network.node[30].core_layer 	data[30] 	10203
scalar tree_4_3_u07_r6_network.node[30].content_store 	p_hit[30] 	0.15507534359993
scalar tree_4_3_u07_r6_network.node[30].content_store 	hits[30] 	1873
scalar tree_4_3_u07_r6_network.node[30].content_store 	misses[30] 	10205
scalar tree_4_3_u07_r6_network.node[30].content_store 	decision_yes[30] 	10203
scalar tree_4_3_u07_r6_network.node[30].content_store 	decision_no[30] 	0
scalar tree_4_3_u07_r6_network.node[30].content_store 	decision_ratio[30] 	1
scalar tree_4_3_u07_r6_network.node[31].core_layer 	interests[31] 	11911
scalar tree_4_3_u07_r6_network.node[31].core_layer 	data[31] 	10080
scalar tree_4_3_u07_r6_network.node[31].content_store 	p_hit[31] 	0.15363949290572
scalar tree_4_3_u07_r6_network.node[31].content_store 	hits[31] 	1830
scalar tree_4_3_u07_r6_network.node[31].content_store 	misses[31] 	10081
scalar tree_4_3_u07_r6_network.node[31].content_store 	decision_yes[31] 	10080
scalar tree_4_3_u07_r6_network.node[31].content_store 	decision_no[31] 	0
scalar tree_4_3_u07_r6_network.node[31].content_store 	decision_ratio[31] 	1
scalar tree_4_3_u07_r6_network.node[32].core_layer 	interests[32] 	11935
scalar tree_4_3_u07_r6_network.node[32].core_layer 	data[32] 	10094
scalar tree_4_3_u07_r6_network.node[32].content_store 	p_hit[32] 	0.15416841223293
scalar tree_4_3_u07_r6_network.node[32].content_store 	hits[32] 	1840
scalar tree_4_3_u07_r6_network.node[32].content_store 	misses[32] 	10095
scalar tree_4_3_u07_r6_network.node[32].content_store 	decision_yes[32] 	10094
scalar tree_4_3_u07_r6_network.node[32].content_store 	decision_no[32] 	0
scalar tree_4_3_u07_r6_network.node[32].content_store 	decision_ratio[32] 	1
scalar tree_4_3_u07_r6_network.node[33].core_layer 	interests[33] 	12063
scalar tree_4_3_u07_r6_network.node[33].core_layer 	data[33] 	10193
scalar tree_4_3_u07_r6_network.node[33].content_store 	p_hit[33] 	0.15501948105778
scalar tree_4_3_u07_r6_network.node[33].content_store 	hits[33] 	1870
scalar tree_4_3_u07_r6_network.node[33].content_store 	misses[33] 	10193
scalar tree_4_3_u07_r6_network.node[33].content_store 	decision_yes[33] 	10193
scalar tree_4_3_u07_r6_network.node[33].content_store 	decision_no[33] 	0
scalar tree_4_3_u07_r6_network.node[33].content_store 	decision_ratio[33] 	1
scalar tree_4_3_u07_r6_network.node[34].core_layer 	interests[34] 	11966
scalar tree_4_3_u07_r6_network.node[34].core_layer 	data[34] 	10094
scalar tree_4_3_u07_r6_network.node[34].content_store 	p_hit[34] 	0.15644325589169
scalar tree_4_3_u07_r6_network.node[34].content_store 	hits[34] 	1872
scalar tree_4_3_u07_r6_network.node[34].content_store 	misses[34] 	10094
scalar tree_4_3_u07_r6_network.node[34].content_store 	decision_yes[34] 	10094
scalar tree_4_3_u07_r6_network.node[34].content_store 	decision_no[34] 	0
scalar tree_4_3_u07_r6_network.node[34].content_store 	decision_ratio[34] 	1
scalar tree_4_3_u07_r6_network.node[35].core_layer 	interests[35] 	12192
scalar tree_4_3_u07_r6_network.node[35].core_layer 	data[35] 	10263
scalar tree_4_3_u07_r6_network.node[35].content_store 	p_hit[35] 	0.15813648293963
scalar tree_4_3_u07_r6_network.node[35].content_store 	hits[35] 	1928
scalar tree_4_3_u07_r6_network.node[35].content_store 	misses[35] 	10264
scalar tree_4_3_u07_r6_network.node[35].content_store 	decision_yes[35] 	10263
scalar tree_4_3_u07_r6_network.node[35].content_store 	decision_no[35] 	0
scalar tree_4_3_u07_r6_network.node[35].content_store 	decision_ratio[35] 	1
scalar tree_4_3_u07_r6_network.node[36].core_layer 	interests[36] 	11955
scalar tree_4_3_u07_r6_network.node[36].core_layer 	data[36] 	10083
scalar tree_4_3_u07_r6_network.node[36].content_store 	p_hit[36] 	0.15658720200753
scalar tree_4_3_u07_r6_network.node[36].content_store 	hits[36] 	1872
scalar tree_4_3_u07_r6_network.node[36].content_store 	misses[36] 	10083
scalar tree_4_3_u07_r6_network.node[36].content_store 	decision_yes[36] 	10083
scalar tree_4_3_u07_r6_network.node[36].content_store 	decision_no[36] 	0
scalar tree_4_3_u07_r6_network.node[36].content_store 	decision_ratio[36] 	1
scalar tree_4_3_u07_r6_network.node[37].core_layer 	interests[37] 	12178
scalar tree_4_3_u07_r6_network.node[37].core_layer 	data[37] 	10293
scalar tree_4_3_u07_r6_network.node[37].content_store 	p_hit[37] 	0.15462309081951
scalar tree_4_3_u07_r6_network.node[37].content_store 	hits[37] 	1883
scalar tree_4_3_u07_r6_network.node[37].content_store 	misses[37] 	10295
scalar tree_4_3_u07_r6_network.node[37].content_store 	decision_yes[37] 	10293
scalar tree_4_3_u07_r6_network.node[37].content_store 	decision_no[37] 	0
scalar tree_4_3_u07_r6_network.node[37].content_store 	decision_ratio[37] 	1
scalar tree_4_3_u07_r6_network.node[38].core_layer 	interests[38] 	12105
scalar tree_4_3_u07_r6_network.node[38].core_layer 	data[38] 	10221
scalar tree_4_3_u07_r6_network.node[38].content_store 	p_hit[38] 	0.15555555555556
scalar tree_4_3_u07_r6_network.node[38].content_store 	hits[38] 	1883
scalar tree_4_3_u07_r6_network.node[38].content_store 	misses[38] 	10222
scalar tree_4_3_u07_r6_network.node[38].content_store 	decision_yes[38] 	10221
scalar tree_4_3_u07_r6_network.node[38].content_store 	decision_no[38] 	0
scalar tree_4_3_u07_r6_network.node[38].content_store 	decision_ratio[38] 	1
scalar tree_4_3_u07_r6_network.node[39].core_layer 	interests[39] 	12195
scalar tree_4_3_u07_r6_network.node[39].core_layer 	data[39] 	10333
scalar tree_4_3_u07_r6_network.node[39].content_store 	p_hit[39] 	0.15268552685527
scalar tree_4_3_u07_r6_network.node[39].content_store 	hits[39] 	1862
scalar tree_4_3_u07_r6_network.node[39].content_store 	misses[39] 	10333
scalar tree_4_3_u07_r6_network.node[39].content_store 	decision_yes[39] 	10333
scalar tree_4_3_u07_r6_network.node[39].content_store 	decision_no[39] 	0
scalar tree_4_3_u07_r6_network.node[39].content_store 	decision_ratio[39] 	1
scalar tree_4_3_u07_r6_network.client[13] 	hdistance[13] 	3.2200826446281
scalar tree_4_3_u07_r6_network.client[13] 	downloads[13] 	12100
scalar tree_4_3_u07_r6_network.client[13] 	avg_time[13] 	0.004876480489
scalar tree_4_3_u07_r6_network.client[14] 	hdistance[14] 	3.2049261083744
scalar tree_4_3_u07_r6_network.client[14] 	downloads[14] 	12180
scalar tree_4_3_u07_r6_network.client[14] 	avg_time[14] 	0.004852739551
scalar tree_4_3_u07_r6_network.client[15] 	hdistance[15] 	3.2511312217195
scalar tree_4_3_u07_r6_network.client[15] 	downloads[15] 	11934
scalar tree_4_3_u07_r6_network.client[15] 	avg_time[15] 	0.004924068091
scalar tree_4_3_u07_r6_network.client[16] 	hdistance[16] 	3.2581321260899
scalar tree_4_3_u07_r6_network.client[16] 	downloads[16] 	11928
scalar tree_4_3_u07_r6_network.client[16] 	avg_time[16] 	0.004937119764
scalar tree_4_3_u07_r6_network.client[17] 	hdistance[17] 	3.2540802099565
scalar tree_4_3_u07_r6_network.client[17] 	downloads[17] 	12193
scalar tree_4_3_u07_r6_network.client[17] 	avg_time[17] 	0.004930688592
scalar tree_4_3_u07_r6_network.client[18] 	hdistance[18] 	3.2803295057414
scalar tree_4_3_u07_r6_network.client[18] 	downloads[18] 	12018
scalar tree_4_3_u07_r6_network.client[18] 	avg_time[18] 	0.004968354891
scalar tree_4_3_u07_r6_network.client[19] 	hdistance[19] 	3.2257502901675
scalar tree_4_3_u07_r6_network.client[19] 	downloads[19] 	12062
scalar tree_4_3_u07_r6_network.client[19] 	avg_time[19] 	0.004883938649
scalar tree_4_3_u07_r6_network.client[20] 	hdistance[20] 	3.2544090984012
scalar tree_4_3_u07_r6_network.client[20] 	downloads[20] 	12134
scalar tree_4_3_u07_r6_network.client[20] 	avg_time[20] 	0.004928898918
scalar tree_4_3_u07_r6_network.client[21] 	hdistance[21] 	3.2612940592421
scalar tree_4_3_u07_r6_network.client[21] 	downloads[21] 	12086
scalar tree_4_3_u07_r6_network.client[21] 	avg_time[21] 	0.004937546366
scalar tree_4_3_u07_r6_network.client[22] 	hdistance[22] 	3.246234939759
scalar tree_4_3_u07_r6_network.client[22] 	downloads[22] 	11952
scalar tree_4_3_u07_r6_network.client[22] 	avg_time[22] 	0.004916648055
scalar tree_4_3_u07_r6_network.client[23] 	hdistance[23] 	3.2549600724459
scalar tree_4_3_u07_r6_network.client[23] 	downloads[23] 	12147
scalar tree_4_3_u07_r6_network.client[23] 	avg_time[23] 	0.004928518745
scalar tree_4_3_u07_r6_network.client[24] 	hdistance[24] 	3.2423312883436
scalar tree_4_3_u07_r6_network.client[24] 	downloads[24] 	12062
scalar tree_4_3_u07_r6_network.client[24] 	avg_time[24] 	0.004909293565
scalar tree_4_3_u07_r6_network.client[25] 	hdistance[25] 	3.2303818715904
scalar tree_4_3_u07_r6_network.client[25] 	downloads[25] 	11915
scalar tree_4_3_u07_r6_network.client[25] 	avg_time[25] 	0.004891561176
scalar tree_4_3_u07_r6_network.client[26] 	hdistance[26] 	3.2649187026475
scalar tree_4_3_u07_r6_network.client[26] 	downloads[26] 	11747
scalar tree_4_3_u07_r6_network.client[26] 	avg_time[26] 	0.004953524738
scalar tree_4_3_u07_r6_network.client[27] 	hdistance[27] 	3.2416659738964
scalar tree_4_3_u07_r6_network.client[27] 	downloads[27] 	12029
scalar tree_4_3_u07_r6_network.client[27] 	avg_time[27] 	0.004916303999
scalar tree_4_3_u07_r6_network.client[28] 	hdistance[28] 	3.2693594246529
scalar tree_4_3_u07_r6_network.client[28] 	downloads[28] 	11958
scalar tree_4_3_u07_r6_network.client[28] 	avg_time[28] 	0.004957693075
scalar tree_4_3_u07_r6_network.client[29] 	hdistance[29] 	3.2551054018445
scalar tree_4_3_u07_r6_network.client[29] 	downloads[29] 	12144
scalar tree_4_3_u07_r6_network.client[29] 	avg_time[29] 	0.004936471238
scalar tree_4_3_u07_r6_network.client[30] 	hdistance[30] 	3.2703709837695
scalar tree_4_3_u07_r6_network.client[30] 	downloads[30] 	12076
scalar tree_4_3_u07_r6_network.client[30] 	avg_time[30] 	0.004960391207
scalar tree_4_3_u07_r6_network.client[31] 	hdistance[31] 	3.2544080604534
scalar tree_4_3_u07_r6_network.client[31] 	downloads[31] 	11910
scalar tree_4_3_u07_r6_network.client[31] 	avg_time[31] 	0.004929971847
scalar tree_4_3_u07_r6_network.client[32] 	hdistance[32] 	3.2574157868276
scalar tree_4_3_u07_r6_network.client[32] 	downloads[32] 	11934
scalar tree_4_3_u07_r6_network.client[32] 	avg_time[32] 	0.004931160578
scalar tree_4_3_u07_r6_network.client[33] 	hdistance[33] 	3.2558235928044
scalar tree_4_3_u07_r6_network.client[33] 	downloads[33] 	12063
scalar tree_4_3_u07_r6_network.client[33] 	avg_time[33] 	0.004928262428
scalar tree_4_3_u07_r6_network.client[34] 	hdistance[34] 	3.2454454287147
scalar tree_4_3_u07_r6_network.client[34] 	downloads[34] 	11966
scalar tree_4_3_u07_r6_network.client[34] 	avg_time[34] 	0.004919529694
scalar tree_4_3_u07_r6_network.client[35] 	hdistance[35] 	3.2492002296776
scalar tree_4_3_u07_r6_network.client[35] 	downloads[35] 	12191
scalar tree_4_3_u07_r6_network.client[35] 	avg_time[35] 	0.0049225151
scalar tree_4_3_u07_r6_network.client[36] 	hdistance[36] 	3.2410706817231
scalar tree_4_3_u07_r6_network.client[36] 	downloads[36] 	11955
scalar tree_4_3_u07_r6_network.client[36] 	avg_time[36] 	0.004915429873
scalar tree_4_3_u07_r6_network.client[37] 	hdistance[37] 	3.2558311432326
scalar tree_4_3_u07_r6_network.client[37] 	downloads[37] 	12176
scalar tree_4_3_u07_r6_network.client[37] 	avg_time[37] 	0.004928249648
scalar tree_4_3_u07_r6_network.client[38] 	hdistance[38] 	3.2542134831461
scalar tree_4_3_u07_r6_network.client[38] 	downloads[38] 	12104
scalar tree_4_3_u07_r6_network.client[38] 	avg_time[38] 	0.004932392165
scalar tree_4_3_u07_r6_network.client[39] 	hdistance[39] 	3.3576055760558
scalar tree_4_3_u07_r6_network.client[39] 	downloads[39] 	12195
scalar tree_4_3_u07_r6_network.client[39] 	avg_time[39] 	0.005078963754
