version 2
run General-191-20160820-17:09:23-2644
attr a 0.9
attr cd lce
attr configname General
attr cr lru
attr datetime 20160820-17:09:23
attr experiment General
attr fsize 1
attr inifile hw5115/scenario_A/SPR-LCE.ini
attr iterationvars "$name=tree_4_3, $un=09, $rep=12, $cd=lce, $cr=lru, $fsize=1, $a=0.9, $sl=spr, $ttl=1000, $variance=0.05"
attr iterationvars2 "$name=tree_4_3, $un=09, $rep=12, $cd=lce, $cr=lru, $fsize=1, $a=0.9, $sl=spr, $ttl=1000, $variance=0.05, $repetition=0"
attr measurement "$name=tree_4_3, $un=09, $rep=12, $cd=lce, $cr=lru, $fsize=1, $a=0.9, $sl=spr, $ttl=1000, $variance=0.05"
attr name tree_4_3
attr network networks.${name}_u${un}_r${rep}_network
attr processid 2644
attr rep 12
attr repetition 0
attr replication #0
attr resultdir results
attr runnumber 191
attr seedset 12
attr sl spr
attr ttl 1000
attr un 09
attr variance 0.05

scalar . 	a 	0.9
scalar . 	fsize 	1
scalar . 	rep 	12
scalar . 	ttl 	1000
scalar . 	un 	09
scalar . 	variance 	0.05
scalar tree_4_3_u09_r12_network.content_distribution 	repo-0 	0
scalar tree_4_3_u09_r12_network.content_distribution 	client-0 	13
scalar tree_4_3_u09_r12_network.content_distribution 	client-1 	14
scalar tree_4_3_u09_r12_network.content_distribution 	client-2 	15
scalar tree_4_3_u09_r12_network.content_distribution 	client-3 	16
scalar tree_4_3_u09_r12_network.content_distribution 	client-4 	17
scalar tree_4_3_u09_r12_network.content_distribution 	client-5 	18
scalar tree_4_3_u09_r12_network.content_distribution 	client-6 	19
scalar tree_4_3_u09_r12_network.content_distribution 	client-7 	20
scalar tree_4_3_u09_r12_network.content_distribution 	client-8 	21
scalar tree_4_3_u09_r12_network.content_distribution 	client-9 	22
scalar tree_4_3_u09_r12_network.content_distribution 	client-10 	23
scalar tree_4_3_u09_r12_network.content_distribution 	client-11 	24
scalar tree_4_3_u09_r12_network.content_distribution 	client-12 	25
scalar tree_4_3_u09_r12_network.content_distribution 	client-13 	26
scalar tree_4_3_u09_r12_network.content_distribution 	client-14 	27
scalar tree_4_3_u09_r12_network.content_distribution 	client-15 	28
scalar tree_4_3_u09_r12_network.content_distribution 	client-16 	29
scalar tree_4_3_u09_r12_network.content_distribution 	client-17 	30
scalar tree_4_3_u09_r12_network.content_distribution 	client-18 	31
scalar tree_4_3_u09_r12_network.content_distribution 	client-19 	32
scalar tree_4_3_u09_r12_network.content_distribution 	client-20 	33
scalar tree_4_3_u09_r12_network.content_distribution 	client-21 	34
scalar tree_4_3_u09_r12_network.content_distribution 	client-22 	35
scalar tree_4_3_u09_r12_network.content_distribution 	client-23 	36
scalar tree_4_3_u09_r12_network.content_distribution 	client-24 	37
scalar tree_4_3_u09_r12_network.content_distribution 	client-25 	38
scalar tree_4_3_u09_r12_network.content_distribution 	client-26 	39
scalar tree_4_3_u09_r12_network.content_distribution 	repo-0_card 	100000
scalar tree_4_3_u09_r12_network.content_distribution 	repo-0_price 	0
scalar tree_4_3_u09_r12_network.statistics 	stabilization_time 	565.3
scalar tree_4_3_u09_r12_network.statistics 	p_hit 	0.11186089767755
scalar tree_4_3_u09_r12_network.statistics 	interests 	28022.5
scalar tree_4_3_u09_r12_network.statistics 	data 	19935.375
scalar tree_4_3_u09_r12_network.statistics 	hdistance 	3.2560025910763
scalar tree_4_3_u09_r12_network.statistics 	avg_time 	0.004930572154
scalar tree_4_3_u09_r12_network.statistics 	downloads 	323468
scalar tree_4_3_u09_r12_network.statistics 	total_cost 	0
scalar tree_4_3_u09_r12_network.statistics 	total_replicas 	100000
scalar tree_4_3_u09_r12_network.statistics 	inner_hit 	0.20961578888793
scalar tree_4_3_u09_r12_network.node[0].core_layer 	interests[0] 	259129
scalar tree_4_3_u09_r12_network.node[0].core_layer 	repo_load[0] 	255664
scalar tree_4_3_u09_r12_network.node[0].core_layer 	data[0] 	0
scalar tree_4_3_u09_r12_network.node[0].core_layer 	repo_int[0] 	255664
scalar tree_4_3_u09_r12_network.node[0].content_store 	p_hit[0] 	0.01337171833334
scalar tree_4_3_u09_r12_network.node[0].content_store 	hits[0] 	3465
scalar tree_4_3_u09_r12_network.node[0].content_store 	misses[0] 	255664
scalar tree_4_3_u09_r12_network.node[0].content_store 	decision_yes[0] 	255664
scalar tree_4_3_u09_r12_network.node[0].content_store 	decision_no[0] 	0
scalar tree_4_3_u09_r12_network.node[0].content_store 	decision_ratio[0] 	1
scalar tree_4_3_u09_r12_network.node[1].core_layer 	interests[1] 	185865
scalar tree_4_3_u09_r12_network.node[1].core_layer 	data[1] 	181099
scalar tree_4_3_u09_r12_network.node[1].content_store 	p_hit[1] 	0.025480859763807
scalar tree_4_3_u09_r12_network.node[1].content_store 	hits[1] 	4736
scalar tree_4_3_u09_r12_network.node[1].content_store 	misses[1] 	181129
scalar tree_4_3_u09_r12_network.node[1].content_store 	decision_yes[1] 	181099
scalar tree_4_3_u09_r12_network.node[1].content_store 	decision_no[1] 	0
scalar tree_4_3_u09_r12_network.node[1].content_store 	decision_ratio[1] 	1
scalar tree_4_3_u09_r12_network.node[2].core_layer 	interests[2] 	59629
scalar tree_4_3_u09_r12_network.node[2].core_layer 	data[2] 	58331
scalar tree_4_3_u09_r12_network.node[2].content_store 	p_hit[2] 	0.021751161347666
scalar tree_4_3_u09_r12_network.node[2].content_store 	hits[2] 	1297
scalar tree_4_3_u09_r12_network.node[2].content_store 	misses[2] 	58332
scalar tree_4_3_u09_r12_network.node[2].content_store 	decision_yes[2] 	58331
scalar tree_4_3_u09_r12_network.node[2].content_store 	decision_no[2] 	0
scalar tree_4_3_u09_r12_network.node[2].content_store 	decision_ratio[2] 	1
scalar tree_4_3_u09_r12_network.node[3].core_layer 	interests[3] 	19709
scalar tree_4_3_u09_r12_network.node[3].core_layer 	data[3] 	19701
scalar tree_4_3_u09_r12_network.node[3].content_store 	p_hit[3] 	0.00040590593130042
scalar tree_4_3_u09_r12_network.node[3].content_store 	hits[3] 	8
scalar tree_4_3_u09_r12_network.node[3].content_store 	misses[3] 	19701
scalar tree_4_3_u09_r12_network.node[3].content_store 	decision_yes[3] 	19701
scalar tree_4_3_u09_r12_network.node[3].content_store 	decision_no[3] 	0
scalar tree_4_3_u09_r12_network.node[3].content_store 	decision_ratio[3] 	1
scalar tree_4_3_u09_r12_network.node[4].core_layer 	interests[4] 	50710
scalar tree_4_3_u09_r12_network.node[4].core_layer 	data[4] 	49006
scalar tree_4_3_u09_r12_network.node[4].content_store 	p_hit[4] 	0.033484519818576
scalar tree_4_3_u09_r12_network.node[4].content_store 	hits[4] 	1698
scalar tree_4_3_u09_r12_network.node[4].content_store 	misses[4] 	49012
scalar tree_4_3_u09_r12_network.node[4].content_store 	decision_yes[4] 	49006
scalar tree_4_3_u09_r12_network.node[4].content_store 	decision_no[4] 	0
scalar tree_4_3_u09_r12_network.node[4].content_store 	decision_ratio[4] 	1
scalar tree_4_3_u09_r12_network.node[5].core_layer 	interests[5] 	30474
scalar tree_4_3_u09_r12_network.node[5].core_layer 	data[5] 	29570
scalar tree_4_3_u09_r12_network.node[5].content_store 	p_hit[5] 	0.029631817286867
scalar tree_4_3_u09_r12_network.node[5].content_store 	hits[5] 	903
scalar tree_4_3_u09_r12_network.node[5].content_store 	misses[5] 	29571
scalar tree_4_3_u09_r12_network.node[5].content_store 	decision_yes[5] 	29570
scalar tree_4_3_u09_r12_network.node[5].content_store 	decision_no[5] 	0
scalar tree_4_3_u09_r12_network.node[5].content_store 	decision_ratio[5] 	1
scalar tree_4_3_u09_r12_network.node[6].core_layer 	interests[6] 	9947
scalar tree_4_3_u09_r12_network.node[6].core_layer 	data[6] 	9926
scalar tree_4_3_u09_r12_network.node[6].content_store 	p_hit[6] 	0.0021111893033075
scalar tree_4_3_u09_r12_network.node[6].content_store 	hits[6] 	21
scalar tree_4_3_u09_r12_network.node[6].content_store 	misses[6] 	9926
scalar tree_4_3_u09_r12_network.node[6].content_store 	decision_yes[6] 	9926
scalar tree_4_3_u09_r12_network.node[6].content_store 	decision_no[6] 	0
scalar tree_4_3_u09_r12_network.node[6].content_store 	decision_ratio[6] 	1
scalar tree_4_3_u09_r12_network.node[7].core_layer 	interests[7] 	50296
scalar tree_4_3_u09_r12_network.node[7].core_layer 	data[7] 	48542
scalar tree_4_3_u09_r12_network.node[7].content_store 	p_hit[7] 	0.034774137108319
scalar tree_4_3_u09_r12_network.node[7].content_store 	hits[7] 	1749
scalar tree_4_3_u09_r12_network.node[7].content_store 	misses[7] 	48547
scalar tree_4_3_u09_r12_network.node[7].content_store 	decision_yes[7] 	48542
scalar tree_4_3_u09_r12_network.node[7].content_store 	decision_no[7] 	0
scalar tree_4_3_u09_r12_network.node[7].content_store 	decision_ratio[7] 	1
scalar tree_4_3_u09_r12_network.node[8].core_layer 	interests[8] 	30740
scalar tree_4_3_u09_r12_network.node[8].core_layer 	data[8] 	29899
scalar tree_4_3_u09_r12_network.node[8].content_store 	p_hit[8] 	0.027325959661679
scalar tree_4_3_u09_r12_network.node[8].content_store 	hits[8] 	840
scalar tree_4_3_u09_r12_network.node[8].content_store 	misses[8] 	29900
scalar tree_4_3_u09_r12_network.node[8].content_store 	decision_yes[8] 	29899
scalar tree_4_3_u09_r12_network.node[8].content_store 	decision_no[8] 	0
scalar tree_4_3_u09_r12_network.node[8].content_store 	decision_ratio[8] 	1
scalar tree_4_3_u09_r12_network.node[9].core_layer 	interests[9] 	10230
scalar tree_4_3_u09_r12_network.node[9].core_layer 	data[9] 	10212
scalar tree_4_3_u09_r12_network.node[9].content_store 	p_hit[9] 	0.0017595307917889
scalar tree_4_3_u09_r12_network.node[9].content_store 	hits[9] 	18
scalar tree_4_3_u09_r12_network.node[9].content_store 	misses[9] 	10212
scalar tree_4_3_u09_r12_network.node[9].content_store 	decision_yes[9] 	10212
scalar tree_4_3_u09_r12_network.node[9].content_store 	decision_no[9] 	0
scalar tree_4_3_u09_r12_network.node[9].content_store 	decision_ratio[9] 	1
scalar tree_4_3_u09_r12_network.node[10].core_layer 	interests[10] 	50554
scalar tree_4_3_u09_r12_network.node[10].core_layer 	data[10] 	48823
scalar tree_4_3_u09_r12_network.node[10].content_store 	p_hit[10] 	0.034260394825335
scalar tree_4_3_u09_r12_network.node[10].content_store 	hits[10] 	1732
scalar tree_4_3_u09_r12_network.node[10].content_store 	misses[10] 	48822
scalar tree_4_3_u09_r12_network.node[10].content_store 	decision_yes[10] 	48823
scalar tree_4_3_u09_r12_network.node[10].content_store 	decision_no[10] 	0
scalar tree_4_3_u09_r12_network.node[10].content_store 	decision_ratio[10] 	1
scalar tree_4_3_u09_r12_network.node[11].core_layer 	interests[11] 	19962
scalar tree_4_3_u09_r12_network.node[11].core_layer 	data[11] 	19518
scalar tree_4_3_u09_r12_network.node[11].content_store 	p_hit[11] 	0.022192165113716
scalar tree_4_3_u09_r12_network.node[11].content_store 	hits[11] 	443
scalar tree_4_3_u09_r12_network.node[11].content_store 	misses[11] 	19519
scalar tree_4_3_u09_r12_network.node[11].content_store 	decision_yes[11] 	19518
scalar tree_4_3_u09_r12_network.node[11].content_store 	decision_no[11] 	0
scalar tree_4_3_u09_r12_network.node[11].content_store 	decision_ratio[11] 	1
scalar tree_4_3_u09_r12_network.node[12].core_layer 	interests[12] 	20163
scalar tree_4_3_u09_r12_network.node[12].core_layer 	data[12] 	19709
scalar tree_4_3_u09_r12_network.node[12].content_store 	p_hit[12] 	0.022516490601597
scalar tree_4_3_u09_r12_network.node[12].content_store 	hits[12] 	454
scalar tree_4_3_u09_r12_network.node[12].content_store 	misses[12] 	19709
scalar tree_4_3_u09_r12_network.node[12].content_store 	decision_yes[12] 	19709
scalar tree_4_3_u09_r12_network.node[12].content_store 	decision_no[12] 	0
scalar tree_4_3_u09_r12_network.node[12].content_store 	decision_ratio[12] 	1
scalar tree_4_3_u09_r12_network.node[13].core_layer 	interests[13] 	12028
scalar tree_4_3_u09_r12_network.node[13].core_layer 	data[13] 	10151
scalar tree_4_3_u09_r12_network.node[13].content_store 	p_hit[13] 	0.15596940472231
scalar tree_4_3_u09_r12_network.node[13].content_store 	hits[13] 	1876
scalar tree_4_3_u09_r12_network.node[13].content_store 	misses[13] 	10152
scalar tree_4_3_u09_r12_network.node[13].content_store 	decision_yes[13] 	10151
scalar tree_4_3_u09_r12_network.node[13].content_store 	decision_no[13] 	0
scalar tree_4_3_u09_r12_network.node[13].content_store 	decision_ratio[13] 	1
scalar tree_4_3_u09_r12_network.node[14].core_layer 	interests[14] 	12183
scalar tree_4_3_u09_r12_network.node[14].core_layer 	data[14] 	10283
scalar tree_4_3_u09_r12_network.node[14].content_store 	p_hit[14] 	0.15595501928917
scalar tree_4_3_u09_r12_network.node[14].content_store 	hits[14] 	1900
scalar tree_4_3_u09_r12_network.node[14].content_store 	misses[14] 	10283
scalar tree_4_3_u09_r12_network.node[14].content_store 	decision_yes[14] 	10283
scalar tree_4_3_u09_r12_network.node[14].content_store 	decision_no[14] 	0
scalar tree_4_3_u09_r12_network.node[14].content_store 	decision_ratio[14] 	1
scalar tree_4_3_u09_r12_network.node[15].core_layer 	interests[15] 	12121
scalar tree_4_3_u09_r12_network.node[15].core_layer 	data[15] 	10158
scalar tree_4_3_u09_r12_network.node[15].content_store 	p_hit[15] 	0.16170282979952
scalar tree_4_3_u09_r12_network.node[15].content_store 	hits[15] 	1960
scalar tree_4_3_u09_r12_network.node[15].content_store 	misses[15] 	10161
scalar tree_4_3_u09_r12_network.node[15].content_store 	decision_yes[15] 	10158
scalar tree_4_3_u09_r12_network.node[15].content_store 	decision_no[15] 	0
scalar tree_4_3_u09_r12_network.node[15].content_store 	decision_ratio[15] 	1
scalar tree_4_3_u09_r12_network.node[16].core_layer 	interests[16] 	11971
scalar tree_4_3_u09_r12_network.node[16].core_layer 	data[16] 	10117
scalar tree_4_3_u09_r12_network.node[16].content_store 	p_hit[16] 	0.15487427950881
scalar tree_4_3_u09_r12_network.node[16].content_store 	hits[16] 	1854
scalar tree_4_3_u09_r12_network.node[16].content_store 	misses[16] 	10117
scalar tree_4_3_u09_r12_network.node[16].content_store 	decision_yes[16] 	10117
scalar tree_4_3_u09_r12_network.node[16].content_store 	decision_no[16] 	0
scalar tree_4_3_u09_r12_network.node[16].content_store 	decision_ratio[16] 	1
scalar tree_4_3_u09_r12_network.node[17].core_layer 	interests[17] 	12115
scalar tree_4_3_u09_r12_network.node[17].core_layer 	data[17] 	10255
scalar tree_4_3_u09_r12_network.node[17].content_store 	p_hit[17] 	0.15344614114734
scalar tree_4_3_u09_r12_network.node[17].content_store 	hits[17] 	1859
scalar tree_4_3_u09_r12_network.node[17].content_store 	misses[17] 	10256
scalar tree_4_3_u09_r12_network.node[17].content_store 	decision_yes[17] 	10255
scalar tree_4_3_u09_r12_network.node[17].content_store 	decision_no[17] 	0
scalar tree_4_3_u09_r12_network.node[17].content_store 	decision_ratio[17] 	1
scalar tree_4_3_u09_r12_network.node[18].core_layer 	interests[18] 	12016
scalar tree_4_3_u09_r12_network.node[18].core_layer 	data[18] 	10097
scalar tree_4_3_u09_r12_network.node[18].content_store 	p_hit[18] 	0.15962050599201
scalar tree_4_3_u09_r12_network.node[18].content_store 	hits[18] 	1918
scalar tree_4_3_u09_r12_network.node[18].content_store 	misses[18] 	10098
scalar tree_4_3_u09_r12_network.node[18].content_store 	decision_yes[18] 	10097
scalar tree_4_3_u09_r12_network.node[18].content_store 	decision_no[18] 	0
scalar tree_4_3_u09_r12_network.node[18].content_store 	decision_ratio[18] 	1
scalar tree_4_3_u09_r12_network.node[19].core_layer 	interests[19] 	11931
scalar tree_4_3_u09_r12_network.node[19].core_layer 	data[19] 	10002
scalar tree_4_3_u09_r12_network.node[19].content_store 	p_hit[19] 	0.16159584276255
scalar tree_4_3_u09_r12_network.node[19].content_store 	hits[19] 	1928
scalar tree_4_3_u09_r12_network.node[19].content_store 	misses[19] 	10003
scalar tree_4_3_u09_r12_network.node[19].content_store 	decision_yes[19] 	10002
scalar tree_4_3_u09_r12_network.node[19].content_store 	decision_no[19] 	0
scalar tree_4_3_u09_r12_network.node[19].content_store 	decision_ratio[19] 	1
scalar tree_4_3_u09_r12_network.node[20].core_layer 	interests[20] 	11993
scalar tree_4_3_u09_r12_network.node[20].core_layer 	data[20] 	10122
scalar tree_4_3_u09_r12_network.node[20].content_store 	p_hit[20] 	0.15584090719586
scalar tree_4_3_u09_r12_network.node[20].content_store 	hits[20] 	1869
scalar tree_4_3_u09_r12_network.node[20].content_store 	misses[20] 	10124
scalar tree_4_3_u09_r12_network.node[20].content_store 	decision_yes[20] 	10122
scalar tree_4_3_u09_r12_network.node[20].content_store 	decision_no[20] 	0
scalar tree_4_3_u09_r12_network.node[20].content_store 	decision_ratio[20] 	1
scalar tree_4_3_u09_r12_network.node[21].core_layer 	interests[21] 	11822
scalar tree_4_3_u09_r12_network.node[21].core_layer 	data[21] 	9947
scalar tree_4_3_u09_r12_network.node[21].content_store 	p_hit[21] 	0.15860260531213
scalar tree_4_3_u09_r12_network.node[21].content_store 	hits[21] 	1875
scalar tree_4_3_u09_r12_network.node[21].content_store 	misses[21] 	9947
scalar tree_4_3_u09_r12_network.node[21].content_store 	decision_yes[21] 	9947
scalar tree_4_3_u09_r12_network.node[21].content_store 	decision_no[21] 	0
scalar tree_4_3_u09_r12_network.node[21].content_store 	decision_ratio[21] 	1
scalar tree_4_3_u09_r12_network.node[22].core_layer 	interests[22] 	12140
scalar tree_4_3_u09_r12_network.node[22].core_layer 	data[22] 	10241
scalar tree_4_3_u09_r12_network.node[22].content_store 	p_hit[22] 	0.15634266886326
scalar tree_4_3_u09_r12_network.node[22].content_store 	hits[22] 	1898
scalar tree_4_3_u09_r12_network.node[22].content_store 	misses[22] 	10242
scalar tree_4_3_u09_r12_network.node[22].content_store 	decision_yes[22] 	10241
scalar tree_4_3_u09_r12_network.node[22].content_store 	decision_no[22] 	0
scalar tree_4_3_u09_r12_network.node[22].content_store 	decision_ratio[22] 	1
scalar tree_4_3_u09_r12_network.node[23].core_layer 	interests[23] 	11838
scalar tree_4_3_u09_r12_network.node[23].core_layer 	data[23] 	10004
scalar tree_4_3_u09_r12_network.node[23].content_store 	p_hit[23] 	0.15475587092414
scalar tree_4_3_u09_r12_network.node[23].content_store 	hits[23] 	1832
scalar tree_4_3_u09_r12_network.node[23].content_store 	misses[23] 	10006
scalar tree_4_3_u09_r12_network.node[23].content_store 	decision_yes[23] 	10004
scalar tree_4_3_u09_r12_network.node[23].content_store 	decision_no[23] 	0
scalar tree_4_3_u09_r12_network.node[23].content_store 	decision_ratio[23] 	1
scalar tree_4_3_u09_r12_network.node[24].core_layer 	interests[24] 	11834
scalar tree_4_3_u09_r12_network.node[24].core_layer 	data[24] 	10068
scalar tree_4_3_u09_r12_network.node[24].content_store 	p_hit[24] 	0.14914652695623
scalar tree_4_3_u09_r12_network.node[24].content_store 	hits[24] 	1765
scalar tree_4_3_u09_r12_network.node[24].content_store 	misses[24] 	10069
scalar tree_4_3_u09_r12_network.node[24].content_store 	decision_yes[24] 	10068
scalar tree_4_3_u09_r12_network.node[24].content_store 	decision_no[24] 	0
scalar tree_4_3_u09_r12_network.node[24].content_store 	decision_ratio[24] 	1
scalar tree_4_3_u09_r12_network.node[25].core_layer 	interests[25] 	11854
scalar tree_4_3_u09_r12_network.node[25].core_layer 	data[25] 	10003
scalar tree_4_3_u09_r12_network.node[25].content_store 	p_hit[25] 	0.15614982284461
scalar tree_4_3_u09_r12_network.node[25].content_store 	hits[25] 	1851
scalar tree_4_3_u09_r12_network.node[25].content_store 	misses[25] 	10003
scalar tree_4_3_u09_r12_network.node[25].content_store 	decision_yes[25] 	10003
scalar tree_4_3_u09_r12_network.node[25].content_store 	decision_no[25] 	0
scalar tree_4_3_u09_r12_network.node[25].content_store 	decision_ratio[25] 	1
scalar tree_4_3_u09_r12_network.node[26].core_layer 	interests[26] 	12253
scalar tree_4_3_u09_r12_network.node[26].core_layer 	data[26] 	10363
scalar tree_4_3_u09_r12_network.node[26].content_store 	p_hit[26] 	0.15424793928018
scalar tree_4_3_u09_r12_network.node[26].content_store 	hits[26] 	1890
scalar tree_4_3_u09_r12_network.node[26].content_store 	misses[26] 	10363
scalar tree_4_3_u09_r12_network.node[26].content_store 	decision_yes[26] 	10363
scalar tree_4_3_u09_r12_network.node[26].content_store 	decision_no[26] 	0
scalar tree_4_3_u09_r12_network.node[26].content_store 	decision_ratio[26] 	1
scalar tree_4_3_u09_r12_network.node[27].core_layer 	interests[27] 	12224
scalar tree_4_3_u09_r12_network.node[27].core_layer 	data[27] 	10278
scalar tree_4_3_u09_r12_network.node[27].content_store 	p_hit[27] 	0.15911321989529
scalar tree_4_3_u09_r12_network.node[27].content_store 	hits[27] 	1945
scalar tree_4_3_u09_r12_network.node[27].content_store 	misses[27] 	10279
scalar tree_4_3_u09_r12_network.node[27].content_store 	decision_yes[27] 	10278
scalar tree_4_3_u09_r12_network.node[27].content_store 	decision_no[27] 	0
scalar tree_4_3_u09_r12_network.node[27].content_store 	decision_ratio[27] 	1
scalar tree_4_3_u09_r12_network.node[28].core_layer 	interests[28] 	11772
scalar tree_4_3_u09_r12_network.node[28].core_layer 	data[28] 	9980
scalar tree_4_3_u09_r12_network.node[28].content_store 	p_hit[28] 	0.15214067278287
scalar tree_4_3_u09_r12_network.node[28].content_store 	hits[28] 	1791
scalar tree_4_3_u09_r12_network.node[28].content_store 	misses[28] 	9981
scalar tree_4_3_u09_r12_network.node[28].content_store 	decision_yes[28] 	9980
scalar tree_4_3_u09_r12_network.node[28].content_store 	decision_no[28] 	0
scalar tree_4_3_u09_r12_network.node[28].content_store 	decision_ratio[28] 	1
scalar tree_4_3_u09_r12_network.node[29].core_layer 	interests[29] 	11929
scalar tree_4_3_u09_r12_network.node[29].core_layer 	data[29] 	10099
scalar tree_4_3_u09_r12_network.node[29].content_store 	p_hit[29] 	0.15332383267667
scalar tree_4_3_u09_r12_network.node[29].content_store 	hits[29] 	1829
scalar tree_4_3_u09_r12_network.node[29].content_store 	misses[29] 	10100
scalar tree_4_3_u09_r12_network.node[29].content_store 	decision_yes[29] 	10099
scalar tree_4_3_u09_r12_network.node[29].content_store 	decision_no[29] 	0
scalar tree_4_3_u09_r12_network.node[29].content_store 	decision_ratio[29] 	1
scalar tree_4_3_u09_r12_network.node[30].core_layer 	interests[30] 	12040
scalar tree_4_3_u09_r12_network.node[30].core_layer 	data[30] 	10230
scalar tree_4_3_u09_r12_network.node[30].content_store 	p_hit[30] 	0.15033222591362
scalar tree_4_3_u09_r12_network.node[30].content_store 	hits[30] 	1810
scalar tree_4_3_u09_r12_network.node[30].content_store 	misses[30] 	10230
scalar tree_4_3_u09_r12_network.node[30].content_store 	decision_yes[30] 	10230
scalar tree_4_3_u09_r12_network.node[30].content_store 	decision_no[30] 	0
scalar tree_4_3_u09_r12_network.node[30].content_store 	decision_ratio[30] 	1
scalar tree_4_3_u09_r12_network.node[31].core_layer 	interests[31] 	12165
scalar tree_4_3_u09_r12_network.node[31].core_layer 	data[31] 	10192
scalar tree_4_3_u09_r12_network.node[31].content_store 	p_hit[31] 	0.1619399917797
scalar tree_4_3_u09_r12_network.node[31].content_store 	hits[31] 	1970
scalar tree_4_3_u09_r12_network.node[31].content_store 	misses[31] 	10195
scalar tree_4_3_u09_r12_network.node[31].content_store 	decision_yes[31] 	10192
scalar tree_4_3_u09_r12_network.node[31].content_store 	decision_no[31] 	0
scalar tree_4_3_u09_r12_network.node[31].content_store 	decision_ratio[31] 	1
scalar tree_4_3_u09_r12_network.node[32].core_layer 	interests[32] 	11840
scalar tree_4_3_u09_r12_network.node[32].core_layer 	data[32] 	10002
scalar tree_4_3_u09_r12_network.node[32].content_store 	p_hit[32] 	0.15540540540541
scalar tree_4_3_u09_r12_network.node[32].content_store 	hits[32] 	1840
scalar tree_4_3_u09_r12_network.node[32].content_store 	misses[32] 	10000
scalar tree_4_3_u09_r12_network.node[32].content_store 	decision_yes[32] 	10002
scalar tree_4_3_u09_r12_network.node[32].content_store 	decision_no[32] 	0
scalar tree_4_3_u09_r12_network.node[32].content_store 	decision_ratio[32] 	1
scalar tree_4_3_u09_r12_network.node[33].core_layer 	interests[33] 	11996
scalar tree_4_3_u09_r12_network.node[33].core_layer 	data[33] 	10129
scalar tree_4_3_u09_r12_network.node[33].content_store 	p_hit[33] 	0.15538512837613
scalar tree_4_3_u09_r12_network.node[33].content_store 	hits[33] 	1864
scalar tree_4_3_u09_r12_network.node[33].content_store 	misses[33] 	10132
scalar tree_4_3_u09_r12_network.node[33].content_store 	decision_yes[33] 	10129
scalar tree_4_3_u09_r12_network.node[33].content_store 	decision_no[33] 	0
scalar tree_4_3_u09_r12_network.node[33].content_store 	decision_ratio[33] 	1
scalar tree_4_3_u09_r12_network.node[34].core_layer 	interests[34] 	12106
scalar tree_4_3_u09_r12_network.node[34].core_layer 	data[34] 	10215
scalar tree_4_3_u09_r12_network.node[34].content_store 	p_hit[34] 	0.15620353543697
scalar tree_4_3_u09_r12_network.node[34].content_store 	hits[34] 	1891
scalar tree_4_3_u09_r12_network.node[34].content_store 	misses[34] 	10215
scalar tree_4_3_u09_r12_network.node[34].content_store 	decision_yes[34] 	10215
scalar tree_4_3_u09_r12_network.node[34].content_store 	decision_no[34] 	0
scalar tree_4_3_u09_r12_network.node[34].content_store 	decision_ratio[34] 	1
scalar tree_4_3_u09_r12_network.node[35].core_layer 	interests[35] 	11748
scalar tree_4_3_u09_r12_network.node[35].core_layer 	data[35] 	9973
scalar tree_4_3_u09_r12_network.node[35].content_store 	p_hit[35] 	0.15108954715696
scalar tree_4_3_u09_r12_network.node[35].content_store 	hits[35] 	1775
scalar tree_4_3_u09_r12_network.node[35].content_store 	misses[35] 	9973
scalar tree_4_3_u09_r12_network.node[35].content_store 	decision_yes[35] 	9973
scalar tree_4_3_u09_r12_network.node[35].content_store 	decision_no[35] 	0
scalar tree_4_3_u09_r12_network.node[35].content_store 	decision_ratio[35] 	1
scalar tree_4_3_u09_r12_network.node[36].core_layer 	interests[36] 	11845
scalar tree_4_3_u09_r12_network.node[36].core_layer 	data[36] 	9989
scalar tree_4_3_u09_r12_network.node[36].content_store 	p_hit[36] 	0.15669058674546
scalar tree_4_3_u09_r12_network.node[36].content_store 	hits[36] 	1856
scalar tree_4_3_u09_r12_network.node[36].content_store 	misses[36] 	9989
scalar tree_4_3_u09_r12_network.node[36].content_store 	decision_yes[36] 	9989
scalar tree_4_3_u09_r12_network.node[36].content_store 	decision_no[36] 	0
scalar tree_4_3_u09_r12_network.node[36].content_store 	decision_ratio[36] 	1
scalar tree_4_3_u09_r12_network.node[37].core_layer 	interests[37] 	11865
scalar tree_4_3_u09_r12_network.node[37].core_layer 	data[37] 	10018
scalar tree_4_3_u09_r12_network.node[37].content_store 	p_hit[37] 	0.15558364938896
scalar tree_4_3_u09_r12_network.node[37].content_store 	hits[37] 	1846
scalar tree_4_3_u09_r12_network.node[37].content_store 	misses[37] 	10019
scalar tree_4_3_u09_r12_network.node[37].content_store 	decision_yes[37] 	10018
scalar tree_4_3_u09_r12_network.node[37].content_store 	decision_no[37] 	0
scalar tree_4_3_u09_r12_network.node[37].content_store 	decision_ratio[37] 	1
scalar tree_4_3_u09_r12_network.node[38].core_layer 	interests[38] 	11815
scalar tree_4_3_u09_r12_network.node[38].core_layer 	data[38] 	9946
scalar tree_4_3_u09_r12_network.node[38].content_store 	p_hit[38] 	0.15801946677952
scalar tree_4_3_u09_r12_network.node[38].content_store 	hits[38] 	1867
scalar tree_4_3_u09_r12_network.node[38].content_store 	misses[38] 	9948
scalar tree_4_3_u09_r12_network.node[38].content_store 	decision_yes[38] 	9946
scalar tree_4_3_u09_r12_network.node[38].content_store 	decision_no[38] 	0
scalar tree_4_3_u09_r12_network.node[38].content_store 	decision_ratio[38] 	1
scalar tree_4_3_u09_r12_network.node[39].core_layer 	interests[39] 	12048
scalar tree_4_3_u09_r12_network.node[39].core_layer 	data[39] 	10217
scalar tree_4_3_u09_r12_network.node[39].content_store 	p_hit[39] 	0.15189243027888
scalar tree_4_3_u09_r12_network.node[39].content_store 	hits[39] 	1830
scalar tree_4_3_u09_r12_network.node[39].content_store 	misses[39] 	10218
scalar tree_4_3_u09_r12_network.node[39].content_store 	decision_yes[39] 	10217
scalar tree_4_3_u09_r12_network.node[39].content_store 	decision_no[39] 	0
scalar tree_4_3_u09_r12_network.node[39].content_store 	decision_ratio[39] 	1
scalar tree_4_3_u09_r12_network.client[13] 	hdistance[13] 	3.2475263989357
scalar tree_4_3_u09_r12_network.client[13] 	downloads[13] 	12027
scalar tree_4_3_u09_r12_network.client[13] 	avg_time[13] 	0.004914434046
scalar tree_4_3_u09_r12_network.client[14] 	hdistance[14] 	3.2418123614873
scalar tree_4_3_u09_r12_network.client[14] 	downloads[14] 	12183
scalar tree_4_3_u09_r12_network.client[14] 	avg_time[14] 	0.004907001361
scalar tree_4_3_u09_r12_network.client[15] 	hdistance[15] 	3.2233866974748
scalar tree_4_3_u09_r12_network.client[15] 	downloads[15] 	12118
scalar tree_4_3_u09_r12_network.client[15] 	avg_time[15] 	0.004878062107
scalar tree_4_3_u09_r12_network.client[16] 	hdistance[16] 	3.2466794753989
scalar tree_4_3_u09_r12_network.client[16] 	downloads[16] 	11971
scalar tree_4_3_u09_r12_network.client[16] 	avg_time[16] 	0.004915057731
scalar tree_4_3_u09_r12_network.client[17] 	hdistance[17] 	3.2622585438336
scalar tree_4_3_u09_r12_network.client[17] 	downloads[17] 	12114
scalar tree_4_3_u09_r12_network.client[17] 	avg_time[17] 	0.004939350158
scalar tree_4_3_u09_r12_network.client[18] 	hdistance[18] 	3.2310445276737
scalar tree_4_3_u09_r12_network.client[18] 	downloads[18] 	12015
scalar tree_4_3_u09_r12_network.client[18] 	avg_time[18] 	0.004891914664
scalar tree_4_3_u09_r12_network.client[19] 	hdistance[19] 	3.2285834031852
scalar tree_4_3_u09_r12_network.client[19] 	downloads[19] 	11930
scalar tree_4_3_u09_r12_network.client[19] 	avg_time[19] 	0.0048838786
scalar tree_4_3_u09_r12_network.client[20] 	hdistance[20] 	3.2446835126345
scalar tree_4_3_u09_r12_network.client[20] 	downloads[20] 	11991
scalar tree_4_3_u09_r12_network.client[20] 	avg_time[20] 	0.004913963053
scalar tree_4_3_u09_r12_network.client[21] 	hdistance[21] 	3.2927592623921
scalar tree_4_3_u09_r12_network.client[21] 	downloads[21] 	11822
scalar tree_4_3_u09_r12_network.client[21] 	avg_time[21] 	0.004982081152
scalar tree_4_3_u09_r12_network.client[22] 	hdistance[22] 	3.2383227613477
scalar tree_4_3_u09_r12_network.client[22] 	downloads[22] 	12139
scalar tree_4_3_u09_r12_network.client[22] 	avg_time[22] 	0.004901975021
scalar tree_4_3_u09_r12_network.client[23] 	hdistance[23] 	3.2429874957756
scalar tree_4_3_u09_r12_network.client[23] 	downloads[23] 	11836
scalar tree_4_3_u09_r12_network.client[23] 	avg_time[23] 	0.004908553122
scalar tree_4_3_u09_r12_network.client[24] 	hdistance[24] 	3.2737260204513
scalar tree_4_3_u09_r12_network.client[24] 	downloads[24] 	11833
scalar tree_4_3_u09_r12_network.client[24] 	avg_time[24] 	0.004952959933
scalar tree_4_3_u09_r12_network.client[25] 	hdistance[25] 	3.2462459929138
scalar tree_4_3_u09_r12_network.client[25] 	downloads[25] 	11854
scalar tree_4_3_u09_r12_network.client[25] 	avg_time[25] 	0.004912156502
scalar tree_4_3_u09_r12_network.client[26] 	hdistance[26] 	3.26785277075
scalar tree_4_3_u09_r12_network.client[26] 	downloads[26] 	12253
scalar tree_4_3_u09_r12_network.client[26] 	avg_time[26] 	0.004952579976
scalar tree_4_3_u09_r12_network.client[27] 	hdistance[27] 	3.2489568845619
scalar tree_4_3_u09_r12_network.client[27] 	downloads[27] 	12223
scalar tree_4_3_u09_r12_network.client[27] 	avg_time[27] 	0.004923373837
scalar tree_4_3_u09_r12_network.client[28] 	hdistance[28] 	3.2535893297086
scalar tree_4_3_u09_r12_network.client[28] 	downloads[28] 	11771
scalar tree_4_3_u09_r12_network.client[28] 	avg_time[28] 	0.004924667613
scalar tree_4_3_u09_r12_network.client[29] 	hdistance[29] 	3.2715459423206
scalar tree_4_3_u09_r12_network.client[29] 	downloads[29] 	11928
scalar tree_4_3_u09_r12_network.client[29] 	avg_time[29] 	0.004958230568
scalar tree_4_3_u09_r12_network.client[30] 	hdistance[30] 	3.3186877076412
scalar tree_4_3_u09_r12_network.client[30] 	downloads[30] 	12040
scalar tree_4_3_u09_r12_network.client[30] 	avg_time[30] 	0.0050360435
scalar tree_4_3_u09_r12_network.client[31] 	hdistance[31] 	3.2135339582306
scalar tree_4_3_u09_r12_network.client[31] 	downloads[31] 	12162
scalar tree_4_3_u09_r12_network.client[31] 	avg_time[31] 	0.004866586178
scalar tree_4_3_u09_r12_network.client[32] 	hdistance[32] 	3.2388954568485
scalar tree_4_3_u09_r12_network.client[32] 	downloads[32] 	11842
scalar tree_4_3_u09_r12_network.client[32] 	avg_time[32] 	0.004905401663
scalar tree_4_3_u09_r12_network.client[33] 	hdistance[33] 	3.2463937296756
scalar tree_4_3_u09_r12_network.client[33] 	downloads[33] 	11993
scalar tree_4_3_u09_r12_network.client[33] 	avg_time[33] 	0.004913829694
scalar tree_4_3_u09_r12_network.client[34] 	hdistance[34] 	3.2444242524368
scalar tree_4_3_u09_r12_network.client[34] 	downloads[34] 	12106
scalar tree_4_3_u09_r12_network.client[34] 	avg_time[34] 	0.004911074292
scalar tree_4_3_u09_r12_network.client[35] 	hdistance[35] 	3.2874531835206
scalar tree_4_3_u09_r12_network.client[35] 	downloads[35] 	11748
scalar tree_4_3_u09_r12_network.client[35] 	avg_time[35] 	0.00498941422
scalar tree_4_3_u09_r12_network.client[36] 	hdistance[36] 	3.2573237653018
scalar tree_4_3_u09_r12_network.client[36] 	downloads[36] 	11845
scalar tree_4_3_u09_r12_network.client[36] 	avg_time[36] 	0.004941153661
scalar tree_4_3_u09_r12_network.client[37] 	hdistance[37] 	3.2488199595415
scalar tree_4_3_u09_r12_network.client[37] 	downloads[37] 	11864
scalar tree_4_3_u09_r12_network.client[37] 	avg_time[37] 	0.004916005955
scalar tree_4_3_u09_r12_network.client[38] 	hdistance[38] 	3.2814695674257
scalar tree_4_3_u09_r12_network.client[38] 	downloads[38] 	11813
scalar tree_4_3_u09_r12_network.client[38] 	avg_time[38] 	0.004970856297
scalar tree_4_3_u09_r12_network.client[39] 	hdistance[39] 	3.3131069975928
scalar tree_4_3_u09_r12_network.client[39] 	downloads[39] 	12047
scalar tree_4_3_u09_r12_network.client[39] 	avg_time[39] 	0.005014843273
