version 2
run General-189-20160820-17:07:14-2644
attr a 0.9
attr cd lce
attr configname General
attr cr lru
attr datetime 20160820-17:07:14
attr experiment General
attr fsize 1
attr inifile hw5115/scenario_A/SPR-LCE.ini
attr iterationvars "$name=tree_4_3, $un=09, $rep=10, $cd=lce, $cr=lru, $fsize=1, $a=0.9, $sl=spr, $ttl=1000, $variance=0.05"
attr iterationvars2 "$name=tree_4_3, $un=09, $rep=10, $cd=lce, $cr=lru, $fsize=1, $a=0.9, $sl=spr, $ttl=1000, $variance=0.05, $repetition=0"
attr measurement "$name=tree_4_3, $un=09, $rep=10, $cd=lce, $cr=lru, $fsize=1, $a=0.9, $sl=spr, $ttl=1000, $variance=0.05"
attr name tree_4_3
attr network networks.${name}_u${un}_r${rep}_network
attr processid 2644
attr rep 10
attr repetition 0
attr replication #0
attr resultdir results
attr runnumber 189
attr seedset 10
attr sl spr
attr ttl 1000
attr un 09
attr variance 0.05

scalar . 	a 	0.9
scalar . 	fsize 	1
scalar . 	rep 	10
scalar . 	ttl 	1000
scalar . 	un 	09
scalar . 	variance 	0.05
scalar tree_4_3_u09_r10_network.content_distribution 	repo-0 	0
scalar tree_4_3_u09_r10_network.content_distribution 	client-0 	13
scalar tree_4_3_u09_r10_network.content_distribution 	client-1 	14
scalar tree_4_3_u09_r10_network.content_distribution 	client-2 	15
scalar tree_4_3_u09_r10_network.content_distribution 	client-3 	16
scalar tree_4_3_u09_r10_network.content_distribution 	client-4 	17
scalar tree_4_3_u09_r10_network.content_distribution 	client-5 	18
scalar tree_4_3_u09_r10_network.content_distribution 	client-6 	19
scalar tree_4_3_u09_r10_network.content_distribution 	client-7 	20
scalar tree_4_3_u09_r10_network.content_distribution 	client-8 	21
scalar tree_4_3_u09_r10_network.content_distribution 	client-9 	22
scalar tree_4_3_u09_r10_network.content_distribution 	client-10 	23
scalar tree_4_3_u09_r10_network.content_distribution 	client-11 	24
scalar tree_4_3_u09_r10_network.content_distribution 	client-12 	25
scalar tree_4_3_u09_r10_network.content_distribution 	client-13 	26
scalar tree_4_3_u09_r10_network.content_distribution 	client-14 	27
scalar tree_4_3_u09_r10_network.content_distribution 	client-15 	28
scalar tree_4_3_u09_r10_network.content_distribution 	client-16 	29
scalar tree_4_3_u09_r10_network.content_distribution 	client-17 	30
scalar tree_4_3_u09_r10_network.content_distribution 	client-18 	31
scalar tree_4_3_u09_r10_network.content_distribution 	client-19 	32
scalar tree_4_3_u09_r10_network.content_distribution 	client-20 	33
scalar tree_4_3_u09_r10_network.content_distribution 	client-21 	34
scalar tree_4_3_u09_r10_network.content_distribution 	client-22 	35
scalar tree_4_3_u09_r10_network.content_distribution 	client-23 	36
scalar tree_4_3_u09_r10_network.content_distribution 	client-24 	37
scalar tree_4_3_u09_r10_network.content_distribution 	client-25 	38
scalar tree_4_3_u09_r10_network.content_distribution 	client-26 	39
scalar tree_4_3_u09_r10_network.content_distribution 	repo-0_card 	100000
scalar tree_4_3_u09_r10_network.content_distribution 	repo-0_price 	0
scalar tree_4_3_u09_r10_network.statistics 	stabilization_time 	560.1
scalar tree_4_3_u09_r10_network.statistics 	p_hit 	0.11276461407432
scalar tree_4_3_u09_r10_network.statistics 	interests 	28088.1
scalar tree_4_3_u09_r10_network.statistics 	data 	19974.6
scalar tree_4_3_u09_r10_network.statistics 	hdistance 	3.2510965657842
scalar tree_4_3_u09_r10_network.statistics 	avg_time 	0.004924232866
scalar tree_4_3_u09_r10_network.statistics 	downloads 	324515
scalar tree_4_3_u09_r10_network.statistics 	total_cost 	0
scalar tree_4_3_u09_r10_network.statistics 	total_replicas 	100000
scalar tree_4_3_u09_r10_network.statistics 	inner_hit 	0.21129993991033
scalar tree_4_3_u09_r10_network.node[0].core_layer 	interests[0] 	259569
scalar tree_4_3_u09_r10_network.node[0].core_layer 	repo_load[0] 	255945
scalar tree_4_3_u09_r10_network.node[0].core_layer 	data[0] 	0
scalar tree_4_3_u09_r10_network.node[0].core_layer 	repo_int[0] 	255945
scalar tree_4_3_u09_r10_network.node[0].content_store 	p_hit[0] 	0.013961605584642
scalar tree_4_3_u09_r10_network.node[0].content_store 	hits[0] 	3624
scalar tree_4_3_u09_r10_network.node[0].content_store 	misses[0] 	255945
scalar tree_4_3_u09_r10_network.node[0].content_store 	decision_yes[0] 	255945
scalar tree_4_3_u09_r10_network.node[0].content_store 	decision_no[0] 	0
scalar tree_4_3_u09_r10_network.node[0].content_store 	decision_ratio[0] 	1
scalar tree_4_3_u09_r10_network.node[1].core_layer 	interests[1] 	176771
scalar tree_4_3_u09_r10_network.node[1].core_layer 	data[1] 	172264
scalar tree_4_3_u09_r10_network.node[1].content_store 	p_hit[1] 	0.025371808724282
scalar tree_4_3_u09_r10_network.node[1].content_store 	hits[1] 	4485
scalar tree_4_3_u09_r10_network.node[1].content_store 	misses[1] 	172286
scalar tree_4_3_u09_r10_network.node[1].content_store 	decision_yes[1] 	172264
scalar tree_4_3_u09_r10_network.node[1].content_store 	decision_no[1] 	0
scalar tree_4_3_u09_r10_network.node[1].content_store 	decision_ratio[1] 	1
scalar tree_4_3_u09_r10_network.node[2].core_layer 	interests[2] 	79070
scalar tree_4_3_u09_r10_network.node[2].core_layer 	data[2] 	77258
scalar tree_4_3_u09_r10_network.node[2].content_store 	p_hit[2] 	0.022840521057291
scalar tree_4_3_u09_r10_network.node[2].content_store 	hits[2] 	1806
scalar tree_4_3_u09_r10_network.node[2].content_store 	misses[2] 	77264
scalar tree_4_3_u09_r10_network.node[2].content_store 	decision_yes[2] 	77258
scalar tree_4_3_u09_r10_network.node[2].content_store 	decision_no[2] 	0
scalar tree_4_3_u09_r10_network.node[2].content_store 	decision_ratio[2] 	1
scalar tree_4_3_u09_r10_network.node[3].core_layer 	interests[3] 	10047
scalar tree_4_3_u09_r10_network.node[3].core_layer 	data[3] 	10046
scalar tree_4_3_u09_r10_network.node[3].content_store 	p_hit[3] 	9.9532198666269e-05
scalar tree_4_3_u09_r10_network.node[3].content_store 	hits[3] 	1
scalar tree_4_3_u09_r10_network.node[3].content_store 	misses[3] 	10046
scalar tree_4_3_u09_r10_network.node[3].content_store 	decision_yes[3] 	10046
scalar tree_4_3_u09_r10_network.node[3].content_store 	decision_no[3] 	0
scalar tree_4_3_u09_r10_network.node[3].content_store 	decision_ratio[3] 	1
scalar tree_4_3_u09_r10_network.node[4].core_layer 	interests[4] 	50606
scalar tree_4_3_u09_r10_network.node[4].core_layer 	data[4] 	48984
scalar tree_4_3_u09_r10_network.node[4].content_store 	p_hit[4] 	0.031992253882939
scalar tree_4_3_u09_r10_network.node[4].content_store 	hits[4] 	1619
scalar tree_4_3_u09_r10_network.node[4].content_store 	misses[4] 	48987
scalar tree_4_3_u09_r10_network.node[4].content_store 	decision_yes[4] 	48984
scalar tree_4_3_u09_r10_network.node[4].content_store 	decision_no[4] 	0
scalar tree_4_3_u09_r10_network.node[4].content_store 	decision_ratio[4] 	1
scalar tree_4_3_u09_r10_network.node[5].core_layer 	interests[5] 	30428
scalar tree_4_3_u09_r10_network.node[5].core_layer 	data[5] 	29583
scalar tree_4_3_u09_r10_network.node[5].content_store 	p_hit[5] 	0.027770474562903
scalar tree_4_3_u09_r10_network.node[5].content_store 	hits[5] 	845
scalar tree_4_3_u09_r10_network.node[5].content_store 	misses[5] 	29583
scalar tree_4_3_u09_r10_network.node[5].content_store 	decision_yes[5] 	29583
scalar tree_4_3_u09_r10_network.node[5].content_store 	decision_no[5] 	0
scalar tree_4_3_u09_r10_network.node[5].content_store 	decision_ratio[5] 	1
scalar tree_4_3_u09_r10_network.node[6].core_layer 	interests[6] 	10213
scalar tree_4_3_u09_r10_network.node[6].core_layer 	data[6] 	10188
scalar tree_4_3_u09_r10_network.node[6].content_store 	p_hit[6] 	0.0024478605698619
scalar tree_4_3_u09_r10_network.node[6].content_store 	hits[6] 	25
scalar tree_4_3_u09_r10_network.node[6].content_store 	misses[6] 	10188
scalar tree_4_3_u09_r10_network.node[6].content_store 	decision_yes[6] 	10188
scalar tree_4_3_u09_r10_network.node[6].content_store 	decision_no[6] 	0
scalar tree_4_3_u09_r10_network.node[6].content_store 	decision_ratio[6] 	1
scalar tree_4_3_u09_r10_network.node[7].core_layer 	interests[7] 	40412
scalar tree_4_3_u09_r10_network.node[7].core_layer 	data[7] 	39140
scalar tree_4_3_u09_r10_network.node[7].content_store 	p_hit[7] 	0.031376818766703
scalar tree_4_3_u09_r10_network.node[7].content_store 	hits[7] 	1268
scalar tree_4_3_u09_r10_network.node[7].content_store 	misses[7] 	39144
scalar tree_4_3_u09_r10_network.node[7].content_store 	decision_yes[7] 	39140
scalar tree_4_3_u09_r10_network.node[7].content_store 	decision_no[7] 	0
scalar tree_4_3_u09_r10_network.node[7].content_store 	decision_ratio[7] 	1
scalar tree_4_3_u09_r10_network.node[8].core_layer 	interests[8] 	20090
scalar tree_4_3_u09_r10_network.node[8].core_layer 	data[8] 	19673
scalar tree_4_3_u09_r10_network.node[8].content_store 	p_hit[8] 	0.020806371329019
scalar tree_4_3_u09_r10_network.node[8].content_store 	hits[8] 	418
scalar tree_4_3_u09_r10_network.node[8].content_store 	misses[8] 	19672
scalar tree_4_3_u09_r10_network.node[8].content_store 	decision_yes[8] 	19673
scalar tree_4_3_u09_r10_network.node[8].content_store 	decision_no[8] 	0
scalar tree_4_3_u09_r10_network.node[8].content_store 	decision_ratio[8] 	1
scalar tree_4_3_u09_r10_network.node[9].core_layer 	interests[9] 	30666
scalar tree_4_3_u09_r10_network.node[9].core_layer 	data[9] 	29789
scalar tree_4_3_u09_r10_network.node[9].content_store 	p_hit[9] 	0.028533228983239
scalar tree_4_3_u09_r10_network.node[9].content_store 	hits[9] 	875
scalar tree_4_3_u09_r10_network.node[9].content_store 	misses[9] 	29791
scalar tree_4_3_u09_r10_network.node[9].content_store 	decision_yes[9] 	29789
scalar tree_4_3_u09_r10_network.node[9].content_store 	decision_no[9] 	0
scalar tree_4_3_u09_r10_network.node[9].content_store 	decision_ratio[9] 	1
scalar tree_4_3_u09_r10_network.node[10].core_layer 	interests[10] 	50565
scalar tree_4_3_u09_r10_network.node[10].core_layer 	data[10] 	48876
scalar tree_4_3_u09_r10_network.node[10].content_store 	p_hit[10] 	0.033323445070701
scalar tree_4_3_u09_r10_network.node[10].content_store 	hits[10] 	1685
scalar tree_4_3_u09_r10_network.node[10].content_store 	misses[10] 	48880
scalar tree_4_3_u09_r10_network.node[10].content_store 	decision_yes[10] 	48876
scalar tree_4_3_u09_r10_network.node[10].content_store 	decision_no[10] 	0
scalar tree_4_3_u09_r10_network.node[10].content_store 	decision_ratio[10] 	1
scalar tree_4_3_u09_r10_network.node[11].core_layer 	interests[11] 	30485
scalar tree_4_3_u09_r10_network.node[11].core_layer 	data[11] 	29606
scalar tree_4_3_u09_r10_network.node[11].content_store 	p_hit[11] 	0.028702640642939
scalar tree_4_3_u09_r10_network.node[11].content_store 	hits[11] 	875
scalar tree_4_3_u09_r10_network.node[11].content_store 	misses[11] 	29610
scalar tree_4_3_u09_r10_network.node[11].content_store 	decision_yes[11] 	29606
scalar tree_4_3_u09_r10_network.node[11].content_store 	decision_no[11] 	0
scalar tree_4_3_u09_r10_network.node[11].content_store 	decision_ratio[11] 	1
scalar tree_4_3_u09_r10_network.node[12].core_layer 	interests[12] 	10067
scalar tree_4_3_u09_r10_network.node[12].core_layer 	data[12] 	10047
scalar tree_4_3_u09_r10_network.node[12].content_store 	p_hit[12] 	0.0019866891824774
scalar tree_4_3_u09_r10_network.node[12].content_store 	hits[12] 	20
scalar tree_4_3_u09_r10_network.node[12].content_store 	misses[12] 	10047
scalar tree_4_3_u09_r10_network.node[12].content_store 	decision_yes[12] 	10047
scalar tree_4_3_u09_r10_network.node[12].content_store 	decision_no[12] 	0
scalar tree_4_3_u09_r10_network.node[12].content_store 	decision_ratio[12] 	1
scalar tree_4_3_u09_r10_network.node[13].core_layer 	interests[13] 	12006
scalar tree_4_3_u09_r10_network.node[13].core_layer 	data[13] 	10044
scalar tree_4_3_u09_r10_network.node[13].content_store 	p_hit[13] 	0.16341829085457
scalar tree_4_3_u09_r10_network.node[13].content_store 	hits[13] 	1962
scalar tree_4_3_u09_r10_network.node[13].content_store 	misses[13] 	10044
scalar tree_4_3_u09_r10_network.node[13].content_store 	decision_yes[13] 	10044
scalar tree_4_3_u09_r10_network.node[13].content_store 	decision_no[13] 	0
scalar tree_4_3_u09_r10_network.node[13].content_store 	decision_ratio[13] 	1
scalar tree_4_3_u09_r10_network.node[14].core_layer 	interests[14] 	12198
scalar tree_4_3_u09_r10_network.node[14].core_layer 	data[14] 	10282
scalar tree_4_3_u09_r10_network.node[14].content_store 	p_hit[14] 	0.15699294966388
scalar tree_4_3_u09_r10_network.node[14].content_store 	hits[14] 	1915
scalar tree_4_3_u09_r10_network.node[14].content_store 	misses[14] 	10283
scalar tree_4_3_u09_r10_network.node[14].content_store 	decision_yes[14] 	10282
scalar tree_4_3_u09_r10_network.node[14].content_store 	decision_no[14] 	0
scalar tree_4_3_u09_r10_network.node[14].content_store 	decision_ratio[14] 	1
scalar tree_4_3_u09_r10_network.node[15].core_layer 	interests[15] 	11764
scalar tree_4_3_u09_r10_network.node[15].core_layer 	data[15] 	9977
scalar tree_4_3_u09_r10_network.node[15].content_store 	p_hit[15] 	0.15173410404624
scalar tree_4_3_u09_r10_network.node[15].content_store 	hits[15] 	1785
scalar tree_4_3_u09_r10_network.node[15].content_store 	misses[15] 	9979
scalar tree_4_3_u09_r10_network.node[15].content_store 	decision_yes[15] 	9977
scalar tree_4_3_u09_r10_network.node[15].content_store 	decision_no[15] 	0
scalar tree_4_3_u09_r10_network.node[15].content_store 	decision_ratio[15] 	1
scalar tree_4_3_u09_r10_network.node[16].core_layer 	interests[16] 	11991
scalar tree_4_3_u09_r10_network.node[16].core_layer 	data[16] 	10202
scalar tree_4_3_u09_r10_network.node[16].content_store 	p_hit[16] 	0.14911183387541
scalar tree_4_3_u09_r10_network.node[16].content_store 	hits[16] 	1788
scalar tree_4_3_u09_r10_network.node[16].content_store 	misses[16] 	10203
scalar tree_4_3_u09_r10_network.node[16].content_store 	decision_yes[16] 	10202
scalar tree_4_3_u09_r10_network.node[16].content_store 	decision_no[16] 	0
scalar tree_4_3_u09_r10_network.node[16].content_store 	decision_ratio[16] 	1
scalar tree_4_3_u09_r10_network.node[17].core_layer 	interests[17] 	12035
scalar tree_4_3_u09_r10_network.node[17].core_layer 	data[17] 	10160
scalar tree_4_3_u09_r10_network.node[17].content_store 	p_hit[17] 	0.15571250519319
scalar tree_4_3_u09_r10_network.node[17].content_store 	hits[17] 	1874
scalar tree_4_3_u09_r10_network.node[17].content_store 	misses[17] 	10161
scalar tree_4_3_u09_r10_network.node[17].content_store 	decision_yes[17] 	10160
scalar tree_4_3_u09_r10_network.node[17].content_store 	decision_no[17] 	0
scalar tree_4_3_u09_r10_network.node[17].content_store 	decision_ratio[17] 	1
scalar tree_4_3_u09_r10_network.node[18].core_layer 	interests[18] 	12080
scalar tree_4_3_u09_r10_network.node[18].core_layer 	data[18] 	10186
scalar tree_4_3_u09_r10_network.node[18].content_store 	p_hit[18] 	0.15670529801325
scalar tree_4_3_u09_r10_network.node[18].content_store 	hits[18] 	1893
scalar tree_4_3_u09_r10_network.node[18].content_store 	misses[18] 	10187
scalar tree_4_3_u09_r10_network.node[18].content_store 	decision_yes[18] 	10186
scalar tree_4_3_u09_r10_network.node[18].content_store 	decision_no[18] 	0
scalar tree_4_3_u09_r10_network.node[18].content_store 	decision_ratio[18] 	1
scalar tree_4_3_u09_r10_network.node[19].core_layer 	interests[19] 	12036
scalar tree_4_3_u09_r10_network.node[19].core_layer 	data[19] 	10101
scalar tree_4_3_u09_r10_network.node[19].content_store 	p_hit[19] 	0.16076769690927
scalar tree_4_3_u09_r10_network.node[19].content_store 	hits[19] 	1935
scalar tree_4_3_u09_r10_network.node[19].content_store 	misses[19] 	10101
scalar tree_4_3_u09_r10_network.node[19].content_store 	decision_yes[19] 	10101
scalar tree_4_3_u09_r10_network.node[19].content_store 	decision_no[19] 	0
scalar tree_4_3_u09_r10_network.node[19].content_store 	decision_ratio[19] 	1
scalar tree_4_3_u09_r10_network.node[20].core_layer 	interests[20] 	11888
scalar tree_4_3_u09_r10_network.node[20].core_layer 	data[20] 	10082
scalar tree_4_3_u09_r10_network.node[20].content_store 	p_hit[20] 	0.15183378196501
scalar tree_4_3_u09_r10_network.node[20].content_store 	hits[20] 	1805
scalar tree_4_3_u09_r10_network.node[20].content_store 	misses[20] 	10083
scalar tree_4_3_u09_r10_network.node[20].content_store 	decision_yes[20] 	10082
scalar tree_4_3_u09_r10_network.node[20].content_store 	decision_no[20] 	0
scalar tree_4_3_u09_r10_network.node[20].content_store 	decision_ratio[20] 	1
scalar tree_4_3_u09_r10_network.node[21].core_layer 	interests[21] 	12118
scalar tree_4_3_u09_r10_network.node[21].core_layer 	data[21] 	10213
scalar tree_4_3_u09_r10_network.node[21].content_store 	p_hit[21] 	0.15720415910216
scalar tree_4_3_u09_r10_network.node[21].content_store 	hits[21] 	1905
scalar tree_4_3_u09_r10_network.node[21].content_store 	misses[21] 	10213
scalar tree_4_3_u09_r10_network.node[21].content_store 	decision_yes[21] 	10213
scalar tree_4_3_u09_r10_network.node[21].content_store 	decision_no[21] 	0
scalar tree_4_3_u09_r10_network.node[21].content_store 	decision_ratio[21] 	1
scalar tree_4_3_u09_r10_network.node[22].core_layer 	interests[22] 	12071
scalar tree_4_3_u09_r10_network.node[22].core_layer 	data[22] 	10109
scalar tree_4_3_u09_r10_network.node[22].content_store 	p_hit[22] 	0.16253831496976
scalar tree_4_3_u09_r10_network.node[22].content_store 	hits[22] 	1962
scalar tree_4_3_u09_r10_network.node[22].content_store 	misses[22] 	10109
scalar tree_4_3_u09_r10_network.node[22].content_store 	decision_yes[22] 	10109
scalar tree_4_3_u09_r10_network.node[22].content_store 	decision_no[22] 	0
scalar tree_4_3_u09_r10_network.node[22].content_store 	decision_ratio[22] 	1
scalar tree_4_3_u09_r10_network.node[23].core_layer 	interests[23] 	12052
scalar tree_4_3_u09_r10_network.node[23].core_layer 	data[23] 	10124
scalar tree_4_3_u09_r10_network.node[23].content_store 	p_hit[23] 	0.15997344839031
scalar tree_4_3_u09_r10_network.node[23].content_store 	hits[23] 	1928
scalar tree_4_3_u09_r10_network.node[23].content_store 	misses[23] 	10124
scalar tree_4_3_u09_r10_network.node[23].content_store 	decision_yes[23] 	10124
scalar tree_4_3_u09_r10_network.node[23].content_store 	decision_no[23] 	0
scalar tree_4_3_u09_r10_network.node[23].content_store 	decision_ratio[23] 	1
scalar tree_4_3_u09_r10_network.node[24].core_layer 	interests[24] 	11728
scalar tree_4_3_u09_r10_network.node[24].core_layer 	data[24] 	9936
scalar tree_4_3_u09_r10_network.node[24].content_store 	p_hit[24] 	0.15271145975443
scalar tree_4_3_u09_r10_network.node[24].content_store 	hits[24] 	1791
scalar tree_4_3_u09_r10_network.node[24].content_store 	misses[24] 	9937
scalar tree_4_3_u09_r10_network.node[24].content_store 	decision_yes[24] 	9936
scalar tree_4_3_u09_r10_network.node[24].content_store 	decision_no[24] 	0
scalar tree_4_3_u09_r10_network.node[24].content_store 	decision_ratio[24] 	1
scalar tree_4_3_u09_r10_network.node[25].core_layer 	interests[25] 	12112
scalar tree_4_3_u09_r10_network.node[25].core_layer 	data[25] 	10243
scalar tree_4_3_u09_r10_network.node[25].content_store 	p_hit[25] 	0.15422721268164
scalar tree_4_3_u09_r10_network.node[25].content_store 	hits[25] 	1868
scalar tree_4_3_u09_r10_network.node[25].content_store 	misses[25] 	10244
scalar tree_4_3_u09_r10_network.node[25].content_store 	decision_yes[25] 	10243
scalar tree_4_3_u09_r10_network.node[25].content_store 	decision_no[25] 	0
scalar tree_4_3_u09_r10_network.node[25].content_store 	decision_ratio[25] 	1
scalar tree_4_3_u09_r10_network.node[26].core_layer 	interests[26] 	11821
scalar tree_4_3_u09_r10_network.node[26].core_layer 	data[26] 	9959
scalar tree_4_3_u09_r10_network.node[26].content_store 	p_hit[26] 	0.15751628457829
scalar tree_4_3_u09_r10_network.node[26].content_store 	hits[26] 	1862
scalar tree_4_3_u09_r10_network.node[26].content_store 	misses[26] 	9959
scalar tree_4_3_u09_r10_network.node[26].content_store 	decision_yes[26] 	9959
scalar tree_4_3_u09_r10_network.node[26].content_store 	decision_no[26] 	0
scalar tree_4_3_u09_r10_network.node[26].content_store 	decision_ratio[26] 	1
scalar tree_4_3_u09_r10_network.node[27].core_layer 	interests[27] 	12033
scalar tree_4_3_u09_r10_network.node[27].core_layer 	data[27] 	10132
scalar tree_4_3_u09_r10_network.node[27].content_store 	p_hit[27] 	0.15798221557384
scalar tree_4_3_u09_r10_network.node[27].content_store 	hits[27] 	1901
scalar tree_4_3_u09_r10_network.node[27].content_store 	misses[27] 	10132
scalar tree_4_3_u09_r10_network.node[27].content_store 	decision_yes[27] 	10132
scalar tree_4_3_u09_r10_network.node[27].content_store 	decision_no[27] 	0
scalar tree_4_3_u09_r10_network.node[27].content_store 	decision_ratio[27] 	1
scalar tree_4_3_u09_r10_network.node[28].core_layer 	interests[28] 	11921
scalar tree_4_3_u09_r10_network.node[28].core_layer 	data[28] 	10078
scalar tree_4_3_u09_r10_network.node[28].content_store 	p_hit[28] 	0.1545172384867
scalar tree_4_3_u09_r10_network.node[28].content_store 	hits[28] 	1842
scalar tree_4_3_u09_r10_network.node[28].content_store 	misses[28] 	10079
scalar tree_4_3_u09_r10_network.node[28].content_store 	decision_yes[28] 	10078
scalar tree_4_3_u09_r10_network.node[28].content_store 	decision_no[28] 	0
scalar tree_4_3_u09_r10_network.node[28].content_store 	decision_ratio[28] 	1
scalar tree_4_3_u09_r10_network.node[29].core_layer 	interests[29] 	12226
scalar tree_4_3_u09_r10_network.node[29].core_layer 	data[29] 	10296
scalar tree_4_3_u09_r10_network.node[29].content_store 	p_hit[29] 	0.1576967119254
scalar tree_4_3_u09_r10_network.node[29].content_store 	hits[29] 	1928
scalar tree_4_3_u09_r10_network.node[29].content_store 	misses[29] 	10298
scalar tree_4_3_u09_r10_network.node[29].content_store 	decision_yes[29] 	10296
scalar tree_4_3_u09_r10_network.node[29].content_store 	decision_no[29] 	0
scalar tree_4_3_u09_r10_network.node[29].content_store 	decision_ratio[29] 	1
scalar tree_4_3_u09_r10_network.node[30].core_layer 	interests[30] 	12207
scalar tree_4_3_u09_r10_network.node[30].core_layer 	data[30] 	10291
scalar tree_4_3_u09_r10_network.node[30].content_store 	p_hit[30] 	0.15687720160564
scalar tree_4_3_u09_r10_network.node[30].content_store 	hits[30] 	1915
scalar tree_4_3_u09_r10_network.node[30].content_store 	misses[30] 	10292
scalar tree_4_3_u09_r10_network.node[30].content_store 	decision_yes[30] 	10291
scalar tree_4_3_u09_r10_network.node[30].content_store 	decision_no[30] 	0
scalar tree_4_3_u09_r10_network.node[30].content_store 	decision_ratio[30] 	1
scalar tree_4_3_u09_r10_network.node[31].core_layer 	interests[31] 	12125
scalar tree_4_3_u09_r10_network.node[31].core_layer 	data[31] 	10197
scalar tree_4_3_u09_r10_network.node[31].content_store 	p_hit[31] 	0.15901030927835
scalar tree_4_3_u09_r10_network.node[31].content_store 	hits[31] 	1928
scalar tree_4_3_u09_r10_network.node[31].content_store 	misses[31] 	10197
scalar tree_4_3_u09_r10_network.node[31].content_store 	decision_yes[31] 	10197
scalar tree_4_3_u09_r10_network.node[31].content_store 	decision_no[31] 	0
scalar tree_4_3_u09_r10_network.node[31].content_store 	decision_ratio[31] 	1
scalar tree_4_3_u09_r10_network.node[32].core_layer 	interests[32] 	12151
scalar tree_4_3_u09_r10_network.node[32].core_layer 	data[32] 	10209
scalar tree_4_3_u09_r10_network.node[32].content_store 	p_hit[32] 	0.15982223685293
scalar tree_4_3_u09_r10_network.node[32].content_store 	hits[32] 	1942
scalar tree_4_3_u09_r10_network.node[32].content_store 	misses[32] 	10209
scalar tree_4_3_u09_r10_network.node[32].content_store 	decision_yes[32] 	10209
scalar tree_4_3_u09_r10_network.node[32].content_store 	decision_no[32] 	0
scalar tree_4_3_u09_r10_network.node[32].content_store 	decision_ratio[32] 	1
scalar tree_4_3_u09_r10_network.node[33].core_layer 	interests[33] 	11988
scalar tree_4_3_u09_r10_network.node[33].core_layer 	data[33] 	10074
scalar tree_4_3_u09_r10_network.node[33].content_store 	p_hit[33] 	0.15957624290958
scalar tree_4_3_u09_r10_network.node[33].content_store 	hits[33] 	1913
scalar tree_4_3_u09_r10_network.node[33].content_store 	misses[33] 	10075
scalar tree_4_3_u09_r10_network.node[33].content_store 	decision_yes[33] 	10074
scalar tree_4_3_u09_r10_network.node[33].content_store 	decision_no[33] 	0
scalar tree_4_3_u09_r10_network.node[33].content_store 	decision_ratio[33] 	1
scalar tree_4_3_u09_r10_network.node[34].core_layer 	interests[34] 	11974
scalar tree_4_3_u09_r10_network.node[34].core_layer 	data[34] 	10054
scalar tree_4_3_u09_r10_network.node[34].content_store 	p_hit[34] 	0.16034741940872
scalar tree_4_3_u09_r10_network.node[34].content_store 	hits[34] 	1920
scalar tree_4_3_u09_r10_network.node[34].content_store 	misses[34] 	10054
scalar tree_4_3_u09_r10_network.node[34].content_store 	decision_yes[34] 	10054
scalar tree_4_3_u09_r10_network.node[34].content_store 	decision_no[34] 	0
scalar tree_4_3_u09_r10_network.node[34].content_store 	decision_ratio[34] 	1
scalar tree_4_3_u09_r10_network.node[35].core_layer 	interests[35] 	12006
scalar tree_4_3_u09_r10_network.node[35].core_layer 	data[35] 	10068
scalar tree_4_3_u09_r10_network.node[35].content_store 	p_hit[35] 	0.16133599866733
scalar tree_4_3_u09_r10_network.node[35].content_store 	hits[35] 	1937
scalar tree_4_3_u09_r10_network.node[35].content_store 	misses[35] 	10069
scalar tree_4_3_u09_r10_network.node[35].content_store 	decision_yes[35] 	10068
scalar tree_4_3_u09_r10_network.node[35].content_store 	decision_no[35] 	0
scalar tree_4_3_u09_r10_network.node[35].content_store 	decision_ratio[35] 	1
scalar tree_4_3_u09_r10_network.node[36].core_layer 	interests[36] 	12091
scalar tree_4_3_u09_r10_network.node[36].core_layer 	data[36] 	10209
scalar tree_4_3_u09_r10_network.node[36].content_store 	p_hit[36] 	0.15548755272517
scalar tree_4_3_u09_r10_network.node[36].content_store 	hits[36] 	1880
scalar tree_4_3_u09_r10_network.node[36].content_store 	misses[36] 	10211
scalar tree_4_3_u09_r10_network.node[36].content_store 	decision_yes[36] 	10209
scalar tree_4_3_u09_r10_network.node[36].content_store 	decision_no[36] 	0
scalar tree_4_3_u09_r10_network.node[36].content_store 	decision_ratio[36] 	1
scalar tree_4_3_u09_r10_network.node[37].core_layer 	interests[37] 	11861
scalar tree_4_3_u09_r10_network.node[37].core_layer 	data[37] 	10031
scalar tree_4_3_u09_r10_network.node[37].content_store 	p_hit[37] 	0.15420284967541
scalar tree_4_3_u09_r10_network.node[37].content_store 	hits[37] 	1829
scalar tree_4_3_u09_r10_network.node[37].content_store 	misses[37] 	10032
scalar tree_4_3_u09_r10_network.node[37].content_store 	decision_yes[37] 	10031
scalar tree_4_3_u09_r10_network.node[37].content_store 	decision_no[37] 	0
scalar tree_4_3_u09_r10_network.node[37].content_store 	decision_ratio[37] 	1
scalar tree_4_3_u09_r10_network.node[38].core_layer 	interests[38] 	12110
scalar tree_4_3_u09_r10_network.node[38].core_layer 	data[38] 	10206
scalar tree_4_3_u09_r10_network.node[38].content_store 	p_hit[38] 	0.15714285714286
scalar tree_4_3_u09_r10_network.node[38].content_store 	hits[38] 	1903
scalar tree_4_3_u09_r10_network.node[38].content_store 	misses[38] 	10207
scalar tree_4_3_u09_r10_network.node[38].content_store 	decision_yes[38] 	10206
scalar tree_4_3_u09_r10_network.node[38].content_store 	decision_no[38] 	0
scalar tree_4_3_u09_r10_network.node[38].content_store 	decision_ratio[38] 	1
scalar tree_4_3_u09_r10_network.node[39].core_layer 	interests[39] 	11942
scalar tree_4_3_u09_r10_network.node[39].core_layer 	data[39] 	10067
scalar tree_4_3_u09_r10_network.node[39].content_store 	p_hit[39] 	0.15692513816781
scalar tree_4_3_u09_r10_network.node[39].content_store 	hits[39] 	1874
scalar tree_4_3_u09_r10_network.node[39].content_store 	misses[39] 	10068
scalar tree_4_3_u09_r10_network.node[39].content_store 	decision_yes[39] 	10067
scalar tree_4_3_u09_r10_network.node[39].content_store 	decision_no[39] 	0
scalar tree_4_3_u09_r10_network.node[39].content_store 	decision_ratio[39] 	1
scalar tree_4_3_u09_r10_network.client[13] 	hdistance[13] 	3.2146426786607
scalar tree_4_3_u09_r10_network.client[13] 	downloads[13] 	12006
scalar tree_4_3_u09_r10_network.client[13] 	avg_time[13] 	0.004867729784
scalar tree_4_3_u09_r10_network.client[14] 	hdistance[14] 	3.2422726900057
scalar tree_4_3_u09_r10_network.client[14] 	downloads[14] 	12197
scalar tree_4_3_u09_r10_network.client[14] 	avg_time[14] 	0.004908656731
scalar tree_4_3_u09_r10_network.client[15] 	hdistance[15] 	3.2603298758715
scalar tree_4_3_u09_r10_network.client[15] 	downloads[15] 	11762
scalar tree_4_3_u09_r10_network.client[15] 	avg_time[15] 	0.004934981463
scalar tree_4_3_u09_r10_network.client[16] 	hdistance[16] 	3.2865721434529
scalar tree_4_3_u09_r10_network.client[16] 	downloads[16] 	11990
scalar tree_4_3_u09_r10_network.client[16] 	avg_time[16] 	0.004970442044
scalar tree_4_3_u09_r10_network.client[17] 	hdistance[17] 	3.2531992687386
scalar tree_4_3_u09_r10_network.client[17] 	downloads[17] 	12034
scalar tree_4_3_u09_r10_network.client[17] 	avg_time[17] 	0.004924571243
scalar tree_4_3_u09_r10_network.client[18] 	hdistance[18] 	3.2543256892127
scalar tree_4_3_u09_r10_network.client[18] 	downloads[18] 	12079
scalar tree_4_3_u09_r10_network.client[18] 	avg_time[18] 	0.004926421235
scalar tree_4_3_u09_r10_network.client[19] 	hdistance[19] 	3.2316384180791
scalar tree_4_3_u09_r10_network.client[19] 	downloads[19] 	12036
scalar tree_4_3_u09_r10_network.client[19] 	avg_time[19] 	0.004890807173
scalar tree_4_3_u09_r10_network.client[20] 	hdistance[20] 	3.261966854547
scalar tree_4_3_u09_r10_network.client[20] 	downloads[20] 	11887
scalar tree_4_3_u09_r10_network.client[20] 	avg_time[20] 	0.004941461635
scalar tree_4_3_u09_r10_network.client[21] 	hdistance[21] 	3.2940254167354
scalar tree_4_3_u09_r10_network.client[21] 	downloads[21] 	12118
scalar tree_4_3_u09_r10_network.client[21] 	avg_time[21] 	0.004986717715
scalar tree_4_3_u09_r10_network.client[22] 	hdistance[22] 	3.225250600613
scalar tree_4_3_u09_r10_network.client[22] 	downloads[22] 	12071
scalar tree_4_3_u09_r10_network.client[22] 	avg_time[22] 	0.004883100169
scalar tree_4_3_u09_r10_network.client[23] 	hdistance[23] 	3.2235313640889
scalar tree_4_3_u09_r10_network.client[23] 	downloads[23] 	12052
scalar tree_4_3_u09_r10_network.client[23] 	avg_time[23] 	0.004885184977
scalar tree_4_3_u09_r10_network.client[24] 	hdistance[24] 	3.2580370086126
scalar tree_4_3_u09_r10_network.client[24] 	downloads[24] 	11727
scalar tree_4_3_u09_r10_network.client[24] 	avg_time[24] 	0.004933917883
scalar tree_4_3_u09_r10_network.client[25] 	hdistance[25] 	3.2531582858558
scalar tree_4_3_u09_r10_network.client[25] 	downloads[25] 	12111
scalar tree_4_3_u09_r10_network.client[25] 	avg_time[25] 	0.004924185182
scalar tree_4_3_u09_r10_network.client[26] 	hdistance[26] 	3.2511631841638
scalar tree_4_3_u09_r10_network.client[26] 	downloads[26] 	11821
scalar tree_4_3_u09_r10_network.client[26] 	avg_time[26] 	0.00493290847
scalar tree_4_3_u09_r10_network.client[27] 	hdistance[27] 	3.2575417601596
scalar tree_4_3_u09_r10_network.client[27] 	downloads[27] 	12033
scalar tree_4_3_u09_r10_network.client[27] 	avg_time[27] 	0.004942908841
scalar tree_4_3_u09_r10_network.client[28] 	hdistance[28] 	3.2588926174497
scalar tree_4_3_u09_r10_network.client[28] 	downloads[28] 	11920
scalar tree_4_3_u09_r10_network.client[28] 	avg_time[28] 	0.004943621167
scalar tree_4_3_u09_r10_network.client[29] 	hdistance[29] 	3.2433736910995
scalar tree_4_3_u09_r10_network.client[29] 	downloads[29] 	12224
scalar tree_4_3_u09_r10_network.client[29] 	avg_time[29] 	0.004918675357
scalar tree_4_3_u09_r10_network.client[30] 	hdistance[30] 	3.2493855480911
scalar tree_4_3_u09_r10_network.client[30] 	downloads[30] 	12206
scalar tree_4_3_u09_r10_network.client[30] 	avg_time[30] 	0.004928833061
scalar tree_4_3_u09_r10_network.client[31] 	hdistance[31] 	3.2379381443299
scalar tree_4_3_u09_r10_network.client[31] 	downloads[31] 	12125
scalar tree_4_3_u09_r10_network.client[31] 	avg_time[31] 	0.004897956276
scalar tree_4_3_u09_r10_network.client[32] 	hdistance[32] 	3.2308451979261
scalar tree_4_3_u09_r10_network.client[32] 	downloads[32] 	12151
scalar tree_4_3_u09_r10_network.client[32] 	avg_time[32] 	0.004891029847
scalar tree_4_3_u09_r10_network.client[33] 	hdistance[33] 	3.2414282138984
scalar tree_4_3_u09_r10_network.client[33] 	downloads[33] 	11987
scalar tree_4_3_u09_r10_network.client[33] 	avg_time[33] 	0.004905706281
scalar tree_4_3_u09_r10_network.client[34] 	hdistance[34] 	3.2226490729915
scalar tree_4_3_u09_r10_network.client[34] 	downloads[34] 	11974
scalar tree_4_3_u09_r10_network.client[34] 	avg_time[34] 	0.004880948789
scalar tree_4_3_u09_r10_network.client[35] 	hdistance[35] 	3.2285714285714
scalar tree_4_3_u09_r10_network.client[35] 	downloads[35] 	12005
scalar tree_4_3_u09_r10_network.client[35] 	avg_time[35] 	0.00489616304
scalar tree_4_3_u09_r10_network.client[36] 	hdistance[36] 	3.2554388286872
scalar tree_4_3_u09_r10_network.client[36] 	downloads[36] 	12089
scalar tree_4_3_u09_r10_network.client[36] 	avg_time[36] 	0.004935598191
scalar tree_4_3_u09_r10_network.client[37] 	hdistance[37] 	3.2523608768971
scalar tree_4_3_u09_r10_network.client[37] 	downloads[37] 	11860
scalar tree_4_3_u09_r10_network.client[37] 	avg_time[37] 	0.004922752322
scalar tree_4_3_u09_r10_network.client[38] 	hdistance[38] 	3.2503096870097
scalar tree_4_3_u09_r10_network.client[38] 	downloads[38] 	12109
scalar tree_4_3_u09_r10_network.client[38] 	avg_time[38] 	0.004927824397
scalar tree_4_3_u09_r10_network.client[39] 	hdistance[39] 	3.3407587304246
scalar tree_4_3_u09_r10_network.client[39] 	downloads[39] 	11941
scalar tree_4_3_u09_r10_network.client[39] 	avg_time[39] 	0.005051184111
