version 2
run General-196-20160820-17:15:37-2644
attr a 0.9
attr cd lce
attr configname General
attr cr lru
attr datetime 20160820-17:15:37
attr experiment General
attr fsize 1
attr inifile hw5115/scenario_A/SPR-LCE.ini
attr iterationvars "$name=tree_4_3, $un=09, $rep=17, $cd=lce, $cr=lru, $fsize=1, $a=0.9, $sl=spr, $ttl=1000, $variance=0.05"
attr iterationvars2 "$name=tree_4_3, $un=09, $rep=17, $cd=lce, $cr=lru, $fsize=1, $a=0.9, $sl=spr, $ttl=1000, $variance=0.05, $repetition=0"
attr measurement "$name=tree_4_3, $un=09, $rep=17, $cd=lce, $cr=lru, $fsize=1, $a=0.9, $sl=spr, $ttl=1000, $variance=0.05"
attr name tree_4_3
attr network networks.${name}_u${un}_r${rep}_network
attr processid 2644
attr rep 17
attr repetition 0
attr replication #0
attr resultdir results
attr runnumber 196
attr seedset 17
attr sl spr
attr ttl 1000
attr un 09
attr variance 0.05

scalar . 	a 	0.9
scalar . 	fsize 	1
scalar . 	rep 	17
scalar . 	ttl 	1000
scalar . 	un 	09
scalar . 	variance 	0.05
scalar tree_4_3_u09_r17_network.content_distribution 	repo-0 	0
scalar tree_4_3_u09_r17_network.content_distribution 	client-0 	13
scalar tree_4_3_u09_r17_network.content_distribution 	client-1 	14
scalar tree_4_3_u09_r17_network.content_distribution 	client-2 	15
scalar tree_4_3_u09_r17_network.content_distribution 	client-3 	16
scalar tree_4_3_u09_r17_network.content_distribution 	client-4 	17
scalar tree_4_3_u09_r17_network.content_distribution 	client-5 	18
scalar tree_4_3_u09_r17_network.content_distribution 	client-6 	19
scalar tree_4_3_u09_r17_network.content_distribution 	client-7 	20
scalar tree_4_3_u09_r17_network.content_distribution 	client-8 	21
scalar tree_4_3_u09_r17_network.content_distribution 	client-9 	22
scalar tree_4_3_u09_r17_network.content_distribution 	client-10 	23
scalar tree_4_3_u09_r17_network.content_distribution 	client-11 	24
scalar tree_4_3_u09_r17_network.content_distribution 	client-12 	25
scalar tree_4_3_u09_r17_network.content_distribution 	client-13 	26
scalar tree_4_3_u09_r17_network.content_distribution 	client-14 	27
scalar tree_4_3_u09_r17_network.content_distribution 	client-15 	28
scalar tree_4_3_u09_r17_network.content_distribution 	client-16 	29
scalar tree_4_3_u09_r17_network.content_distribution 	client-17 	30
scalar tree_4_3_u09_r17_network.content_distribution 	client-18 	31
scalar tree_4_3_u09_r17_network.content_distribution 	client-19 	32
scalar tree_4_3_u09_r17_network.content_distribution 	client-20 	33
scalar tree_4_3_u09_r17_network.content_distribution 	client-21 	34
scalar tree_4_3_u09_r17_network.content_distribution 	client-22 	35
scalar tree_4_3_u09_r17_network.content_distribution 	client-23 	36
scalar tree_4_3_u09_r17_network.content_distribution 	client-24 	37
scalar tree_4_3_u09_r17_network.content_distribution 	client-25 	38
scalar tree_4_3_u09_r17_network.content_distribution 	client-26 	39
scalar tree_4_3_u09_r17_network.content_distribution 	repo-0_card 	100000
scalar tree_4_3_u09_r17_network.content_distribution 	repo-0_price 	0
scalar tree_4_3_u09_r17_network.statistics 	stabilization_time 	562.6
scalar tree_4_3_u09_r17_network.statistics 	p_hit 	0.112810759669
scalar tree_4_3_u09_r17_network.statistics 	interests 	28060.35
scalar tree_4_3_u09_r17_network.statistics 	data 	19950.1
scalar tree_4_3_u09_r17_network.statistics 	hdistance 	3.2491813723518
scalar tree_4_3_u09_r17_network.statistics 	avg_time 	0.004920046784
scalar tree_4_3_u09_r17_network.statistics 	downloads 	324383
scalar tree_4_3_u09_r17_network.statistics 	total_cost 	0
scalar tree_4_3_u09_r17_network.statistics 	total_replicas 	100000
scalar tree_4_3_u09_r17_network.statistics 	inner_hit 	0.21109305974727
scalar tree_4_3_u09_r17_network.node[0].core_layer 	interests[0] 	259270
scalar tree_4_3_u09_r17_network.node[0].core_layer 	repo_load[0] 	255908
scalar tree_4_3_u09_r17_network.node[0].core_layer 	data[0] 	0
scalar tree_4_3_u09_r17_network.node[0].core_layer 	repo_int[0] 	255908
scalar tree_4_3_u09_r17_network.node[0].content_store 	p_hit[0] 	0.012967177074093
scalar tree_4_3_u09_r17_network.node[0].content_store 	hits[0] 	3362
scalar tree_4_3_u09_r17_network.node[0].content_store 	misses[0] 	255908
scalar tree_4_3_u09_r17_network.node[0].content_store 	decision_yes[0] 	255908
scalar tree_4_3_u09_r17_network.node[0].content_store 	decision_no[0] 	0
scalar tree_4_3_u09_r17_network.node[0].content_store 	decision_ratio[0] 	1
scalar tree_4_3_u09_r17_network.node[1].core_layer 	interests[1] 	186254
scalar tree_4_3_u09_r17_network.node[1].core_layer 	data[1] 	181509
scalar tree_4_3_u09_r17_network.node[1].content_store 	p_hit[1] 	0.025368582688157
scalar tree_4_3_u09_r17_network.node[1].content_store 	hits[1] 	4725
scalar tree_4_3_u09_r17_network.node[1].content_store 	misses[1] 	181529
scalar tree_4_3_u09_r17_network.node[1].content_store 	decision_yes[1] 	181509
scalar tree_4_3_u09_r17_network.node[1].content_store 	decision_no[1] 	0
scalar tree_4_3_u09_r17_network.node[1].content_store 	decision_ratio[1] 	1
scalar tree_4_3_u09_r17_network.node[2].core_layer 	interests[2] 	69170
scalar tree_4_3_u09_r17_network.node[2].core_layer 	data[2] 	67653
scalar tree_4_3_u09_r17_network.node[2].content_store 	p_hit[2] 	0.021888101778228
scalar tree_4_3_u09_r17_network.node[2].content_store 	hits[2] 	1514
scalar tree_4_3_u09_r17_network.node[2].content_store 	misses[2] 	67656
scalar tree_4_3_u09_r17_network.node[2].content_store 	decision_yes[2] 	67653
scalar tree_4_3_u09_r17_network.node[2].content_store 	decision_no[2] 	0
scalar tree_4_3_u09_r17_network.node[2].content_store 	decision_ratio[2] 	1
scalar tree_4_3_u09_r17_network.node[3].core_layer 	interests[3] 	10112
scalar tree_4_3_u09_r17_network.node[3].core_layer 	data[3] 	10108
scalar tree_4_3_u09_r17_network.node[3].content_store 	p_hit[3] 	0.00039556962025316
scalar tree_4_3_u09_r17_network.node[3].content_store 	hits[3] 	4
scalar tree_4_3_u09_r17_network.node[3].content_store 	misses[3] 	10108
scalar tree_4_3_u09_r17_network.node[3].content_store 	decision_yes[3] 	10108
scalar tree_4_3_u09_r17_network.node[3].content_store 	decision_no[3] 	0
scalar tree_4_3_u09_r17_network.node[3].content_store 	decision_ratio[3] 	1
scalar tree_4_3_u09_r17_network.node[4].core_layer 	interests[4] 	50426
scalar tree_4_3_u09_r17_network.node[4].core_layer 	data[4] 	48774
scalar tree_4_3_u09_r17_network.node[4].content_store 	p_hit[4] 	0.032641891087931
scalar tree_4_3_u09_r17_network.node[4].content_store 	hits[4] 	1646
scalar tree_4_3_u09_r17_network.node[4].content_store 	misses[4] 	48780
scalar tree_4_3_u09_r17_network.node[4].content_store 	decision_yes[4] 	48774
scalar tree_4_3_u09_r17_network.node[4].content_store 	decision_no[4] 	0
scalar tree_4_3_u09_r17_network.node[4].content_store 	decision_ratio[4] 	1
scalar tree_4_3_u09_r17_network.node[5].core_layer 	interests[5] 	30621
scalar tree_4_3_u09_r17_network.node[5].core_layer 	data[5] 	29774
scalar tree_4_3_u09_r17_network.node[5].content_store 	p_hit[5] 	0.027628098363868
scalar tree_4_3_u09_r17_network.node[5].content_store 	hits[5] 	846
scalar tree_4_3_u09_r17_network.node[5].content_store 	misses[5] 	29775
scalar tree_4_3_u09_r17_network.node[5].content_store 	decision_yes[5] 	29774
scalar tree_4_3_u09_r17_network.node[5].content_store 	decision_no[5] 	0
scalar tree_4_3_u09_r17_network.node[5].content_store 	decision_ratio[5] 	1
scalar tree_4_3_u09_r17_network.node[6].core_layer 	interests[6] 	10200
scalar tree_4_3_u09_r17_network.node[6].core_layer 	data[6] 	10163
scalar tree_4_3_u09_r17_network.node[6].content_store 	p_hit[6] 	0.0036274509803922
scalar tree_4_3_u09_r17_network.node[6].content_store 	hits[6] 	37
scalar tree_4_3_u09_r17_network.node[6].content_store 	misses[6] 	10163
scalar tree_4_3_u09_r17_network.node[6].content_store 	decision_yes[6] 	10163
scalar tree_4_3_u09_r17_network.node[6].content_store 	decision_no[6] 	0
scalar tree_4_3_u09_r17_network.node[6].content_store 	decision_ratio[6] 	1
scalar tree_4_3_u09_r17_network.node[7].core_layer 	interests[7] 	50330
scalar tree_4_3_u09_r17_network.node[7].core_layer 	data[7] 	48633
scalar tree_4_3_u09_r17_network.node[7].content_store 	p_hit[7] 	0.0336578581363
scalar tree_4_3_u09_r17_network.node[7].content_store 	hits[7] 	1694
scalar tree_4_3_u09_r17_network.node[7].content_store 	misses[7] 	48636
scalar tree_4_3_u09_r17_network.node[7].content_store 	decision_yes[7] 	48633
scalar tree_4_3_u09_r17_network.node[7].content_store 	decision_no[7] 	0
scalar tree_4_3_u09_r17_network.node[7].content_store 	decision_ratio[7] 	1
scalar tree_4_3_u09_r17_network.node[8].core_layer 	interests[8] 	30105
scalar tree_4_3_u09_r17_network.node[8].core_layer 	data[8] 	29276
scalar tree_4_3_u09_r17_network.node[8].content_store 	p_hit[8] 	0.027470519847201
scalar tree_4_3_u09_r17_network.node[8].content_store 	hits[8] 	827
scalar tree_4_3_u09_r17_network.node[8].content_store 	misses[8] 	29278
scalar tree_4_3_u09_r17_network.node[8].content_store 	decision_yes[8] 	29276
scalar tree_4_3_u09_r17_network.node[8].content_store 	decision_no[8] 	0
scalar tree_4_3_u09_r17_network.node[8].content_store 	decision_ratio[8] 	1
scalar tree_4_3_u09_r17_network.node[9].core_layer 	interests[9] 	10236
scalar tree_4_3_u09_r17_network.node[9].core_layer 	data[9] 	10202
scalar tree_4_3_u09_r17_network.node[9].content_store 	p_hit[9] 	0.0033216100039078
scalar tree_4_3_u09_r17_network.node[9].content_store 	hits[9] 	34
scalar tree_4_3_u09_r17_network.node[9].content_store 	misses[9] 	10202
scalar tree_4_3_u09_r17_network.node[9].content_store 	decision_yes[9] 	10202
scalar tree_4_3_u09_r17_network.node[9].content_store 	decision_no[9] 	0
scalar tree_4_3_u09_r17_network.node[9].content_store 	decision_ratio[9] 	1
scalar tree_4_3_u09_r17_network.node[10].core_layer 	interests[10] 	50643
scalar tree_4_3_u09_r17_network.node[10].core_layer 	data[10] 	48912
scalar tree_4_3_u09_r17_network.node[10].content_store 	p_hit[10] 	0.034121201350631
scalar tree_4_3_u09_r17_network.node[10].content_store 	hits[10] 	1728
scalar tree_4_3_u09_r17_network.node[10].content_store 	misses[10] 	48915
scalar tree_4_3_u09_r17_network.node[10].content_store 	decision_yes[10] 	48912
scalar tree_4_3_u09_r17_network.node[10].content_store 	decision_no[10] 	0
scalar tree_4_3_u09_r17_network.node[10].content_store 	decision_ratio[10] 	1
scalar tree_4_3_u09_r17_network.node[11].core_layer 	interests[11] 	30495
scalar tree_4_3_u09_r17_network.node[11].core_layer 	data[11] 	29691
scalar tree_4_3_u09_r17_network.node[11].content_store 	p_hit[11] 	0.026266601082145
scalar tree_4_3_u09_r17_network.node[11].content_store 	hits[11] 	801
scalar tree_4_3_u09_r17_network.node[11].content_store 	misses[11] 	29694
scalar tree_4_3_u09_r17_network.node[11].content_store 	decision_yes[11] 	29691
scalar tree_4_3_u09_r17_network.node[11].content_store 	decision_no[11] 	0
scalar tree_4_3_u09_r17_network.node[11].content_store 	decision_ratio[11] 	1
scalar tree_4_3_u09_r17_network.node[12].core_layer 	interests[12] 	10141
scalar tree_4_3_u09_r17_network.node[12].core_layer 	data[12] 	10112
scalar tree_4_3_u09_r17_network.node[12].content_store 	p_hit[12] 	0.0028596785326891
scalar tree_4_3_u09_r17_network.node[12].content_store 	hits[12] 	29
scalar tree_4_3_u09_r17_network.node[12].content_store 	misses[12] 	10112
scalar tree_4_3_u09_r17_network.node[12].content_store 	decision_yes[12] 	10112
scalar tree_4_3_u09_r17_network.node[12].content_store 	decision_no[12] 	0
scalar tree_4_3_u09_r17_network.node[12].content_store 	decision_ratio[12] 	1
scalar tree_4_3_u09_r17_network.node[13].core_layer 	interests[13] 	11853
scalar tree_4_3_u09_r17_network.node[13].core_layer 	data[13] 	9961
scalar tree_4_3_u09_r17_network.node[13].content_store 	p_hit[13] 	0.1596220366152
scalar tree_4_3_u09_r17_network.node[13].content_store 	hits[13] 	1892
scalar tree_4_3_u09_r17_network.node[13].content_store 	misses[13] 	9961
scalar tree_4_3_u09_r17_network.node[13].content_store 	decision_yes[13] 	9961
scalar tree_4_3_u09_r17_network.node[13].content_store 	decision_no[13] 	0
scalar tree_4_3_u09_r17_network.node[13].content_store 	decision_ratio[13] 	1
scalar tree_4_3_u09_r17_network.node[14].core_layer 	interests[14] 	12194
scalar tree_4_3_u09_r17_network.node[14].core_layer 	data[14] 	10269
scalar tree_4_3_u09_r17_network.node[14].content_store 	p_hit[14] 	0.15778251599147
scalar tree_4_3_u09_r17_network.node[14].content_store 	hits[14] 	1924
scalar tree_4_3_u09_r17_network.node[14].content_store 	misses[14] 	10270
scalar tree_4_3_u09_r17_network.node[14].content_store 	decision_yes[14] 	10269
scalar tree_4_3_u09_r17_network.node[14].content_store 	decision_no[14] 	0
scalar tree_4_3_u09_r17_network.node[14].content_store 	decision_ratio[14] 	1
scalar tree_4_3_u09_r17_network.node[15].core_layer 	interests[15] 	11990
scalar tree_4_3_u09_r17_network.node[15].core_layer 	data[15] 	10150
scalar tree_4_3_u09_r17_network.node[15].content_store 	p_hit[15] 	0.1533778148457
scalar tree_4_3_u09_r17_network.node[15].content_store 	hits[15] 	1839
scalar tree_4_3_u09_r17_network.node[15].content_store 	misses[15] 	10151
scalar tree_4_3_u09_r17_network.node[15].content_store 	decision_yes[15] 	10150
scalar tree_4_3_u09_r17_network.node[15].content_store 	decision_no[15] 	0
scalar tree_4_3_u09_r17_network.node[15].content_store 	decision_ratio[15] 	1
scalar tree_4_3_u09_r17_network.node[16].core_layer 	interests[16] 	12016
scalar tree_4_3_u09_r17_network.node[16].core_layer 	data[16] 	10053
scalar tree_4_3_u09_r17_network.node[16].content_store 	p_hit[16] 	0.16319906790945
scalar tree_4_3_u09_r17_network.node[16].content_store 	hits[16] 	1961
scalar tree_4_3_u09_r17_network.node[16].content_store 	misses[16] 	10055
scalar tree_4_3_u09_r17_network.node[16].content_store 	decision_yes[16] 	10053
scalar tree_4_3_u09_r17_network.node[16].content_store 	decision_no[16] 	0
scalar tree_4_3_u09_r17_network.node[16].content_store 	decision_ratio[16] 	1
scalar tree_4_3_u09_r17_network.node[17].core_layer 	interests[17] 	12098
scalar tree_4_3_u09_r17_network.node[17].core_layer 	data[17] 	10291
scalar tree_4_3_u09_r17_network.node[17].content_store 	p_hit[17] 	0.14928087287155
scalar tree_4_3_u09_r17_network.node[17].content_store 	hits[17] 	1806
scalar tree_4_3_u09_r17_network.node[17].content_store 	misses[17] 	10292
scalar tree_4_3_u09_r17_network.node[17].content_store 	decision_yes[17] 	10291
scalar tree_4_3_u09_r17_network.node[17].content_store 	decision_no[17] 	0
scalar tree_4_3_u09_r17_network.node[17].content_store 	decision_ratio[17] 	1
scalar tree_4_3_u09_r17_network.node[18].core_layer 	interests[18] 	12062
scalar tree_4_3_u09_r17_network.node[18].core_layer 	data[18] 	10131
scalar tree_4_3_u09_r17_network.node[18].content_store 	p_hit[18] 	0.16017244238103
scalar tree_4_3_u09_r17_network.node[18].content_store 	hits[18] 	1932
scalar tree_4_3_u09_r17_network.node[18].content_store 	misses[18] 	10130
scalar tree_4_3_u09_r17_network.node[18].content_store 	decision_yes[18] 	10131
scalar tree_4_3_u09_r17_network.node[18].content_store 	decision_no[18] 	0
scalar tree_4_3_u09_r17_network.node[18].content_store 	decision_ratio[18] 	1
scalar tree_4_3_u09_r17_network.node[19].core_layer 	interests[19] 	11844
scalar tree_4_3_u09_r17_network.node[19].core_layer 	data[19] 	9993
scalar tree_4_3_u09_r17_network.node[19].content_store 	p_hit[19] 	0.15619723066532
scalar tree_4_3_u09_r17_network.node[19].content_store 	hits[19] 	1850
scalar tree_4_3_u09_r17_network.node[19].content_store 	misses[19] 	9994
scalar tree_4_3_u09_r17_network.node[19].content_store 	decision_yes[19] 	9993
scalar tree_4_3_u09_r17_network.node[19].content_store 	decision_no[19] 	0
scalar tree_4_3_u09_r17_network.node[19].content_store 	decision_ratio[19] 	1
scalar tree_4_3_u09_r17_network.node[20].core_layer 	interests[20] 	11950
scalar tree_4_3_u09_r17_network.node[20].core_layer 	data[20] 	10200
scalar tree_4_3_u09_r17_network.node[20].content_store 	p_hit[20] 	0.14635983263598
scalar tree_4_3_u09_r17_network.node[20].content_store 	hits[20] 	1749
scalar tree_4_3_u09_r17_network.node[20].content_store 	misses[20] 	10201
scalar tree_4_3_u09_r17_network.node[20].content_store 	decision_yes[20] 	10200
scalar tree_4_3_u09_r17_network.node[20].content_store 	decision_no[20] 	0
scalar tree_4_3_u09_r17_network.node[20].content_store 	decision_ratio[20] 	1
scalar tree_4_3_u09_r17_network.node[21].core_layer 	interests[21] 	12091
scalar tree_4_3_u09_r17_network.node[21].core_layer 	data[21] 	10200
scalar tree_4_3_u09_r17_network.node[21].content_store 	p_hit[21] 	0.15631461417583
scalar tree_4_3_u09_r17_network.node[21].content_store 	hits[21] 	1890
scalar tree_4_3_u09_r17_network.node[21].content_store 	misses[21] 	10201
scalar tree_4_3_u09_r17_network.node[21].content_store 	decision_yes[21] 	10200
scalar tree_4_3_u09_r17_network.node[21].content_store 	decision_no[21] 	0
scalar tree_4_3_u09_r17_network.node[21].content_store 	decision_ratio[21] 	1
scalar tree_4_3_u09_r17_network.node[22].core_layer 	interests[22] 	11952
scalar tree_4_3_u09_r17_network.node[22].core_layer 	data[22] 	10010
scalar tree_4_3_u09_r17_network.node[22].content_store 	p_hit[22] 	0.16223226238286
scalar tree_4_3_u09_r17_network.node[22].content_store 	hits[22] 	1939
scalar tree_4_3_u09_r17_network.node[22].content_store 	misses[22] 	10013
scalar tree_4_3_u09_r17_network.node[22].content_store 	decision_yes[22] 	10010
scalar tree_4_3_u09_r17_network.node[22].content_store 	decision_no[22] 	0
scalar tree_4_3_u09_r17_network.node[22].content_store 	decision_ratio[22] 	1
scalar tree_4_3_u09_r17_network.node[23].core_layer 	interests[23] 	11979
scalar tree_4_3_u09_r17_network.node[23].core_layer 	data[23] 	10025
scalar tree_4_3_u09_r17_network.node[23].content_store 	p_hit[23] 	0.16311879121796
scalar tree_4_3_u09_r17_network.node[23].content_store 	hits[23] 	1954
scalar tree_4_3_u09_r17_network.node[23].content_store 	misses[23] 	10025
scalar tree_4_3_u09_r17_network.node[23].content_store 	decision_yes[23] 	10025
scalar tree_4_3_u09_r17_network.node[23].content_store 	decision_no[23] 	0
scalar tree_4_3_u09_r17_network.node[23].content_store 	decision_ratio[23] 	1
scalar tree_4_3_u09_r17_network.node[24].core_layer 	interests[24] 	11943
scalar tree_4_3_u09_r17_network.node[24].core_layer 	data[24] 	10096
scalar tree_4_3_u09_r17_network.node[24].content_store 	p_hit[24] 	0.15456752909654
scalar tree_4_3_u09_r17_network.node[24].content_store 	hits[24] 	1846
scalar tree_4_3_u09_r17_network.node[24].content_store 	misses[24] 	10097
scalar tree_4_3_u09_r17_network.node[24].content_store 	decision_yes[24] 	10096
scalar tree_4_3_u09_r17_network.node[24].content_store 	decision_no[24] 	0
scalar tree_4_3_u09_r17_network.node[24].content_store 	decision_ratio[24] 	1
scalar tree_4_3_u09_r17_network.node[25].core_layer 	interests[25] 	11887
scalar tree_4_3_u09_r17_network.node[25].core_layer 	data[25] 	10013
scalar tree_4_3_u09_r17_network.node[25].content_store 	p_hit[25] 	0.15739883906789
scalar tree_4_3_u09_r17_network.node[25].content_store 	hits[25] 	1871
scalar tree_4_3_u09_r17_network.node[25].content_store 	misses[25] 	10016
scalar tree_4_3_u09_r17_network.node[25].content_store 	decision_yes[25] 	10013
scalar tree_4_3_u09_r17_network.node[25].content_store 	decision_no[25] 	0
scalar tree_4_3_u09_r17_network.node[25].content_store 	decision_ratio[25] 	1
scalar tree_4_3_u09_r17_network.node[26].core_layer 	interests[26] 	11945
scalar tree_4_3_u09_r17_network.node[26].core_layer 	data[26] 	10029
scalar tree_4_3_u09_r17_network.node[26].content_store 	p_hit[26] 	0.16031812473838
scalar tree_4_3_u09_r17_network.node[26].content_store 	hits[26] 	1915
scalar tree_4_3_u09_r17_network.node[26].content_store 	misses[26] 	10030
scalar tree_4_3_u09_r17_network.node[26].content_store 	decision_yes[26] 	10029
scalar tree_4_3_u09_r17_network.node[26].content_store 	decision_no[26] 	0
scalar tree_4_3_u09_r17_network.node[26].content_store 	decision_ratio[26] 	1
scalar tree_4_3_u09_r17_network.node[27].core_layer 	interests[27] 	11942
scalar tree_4_3_u09_r17_network.node[27].core_layer 	data[27] 	9988
scalar tree_4_3_u09_r17_network.node[27].content_store 	p_hit[27] 	0.16354044548652
scalar tree_4_3_u09_r17_network.node[27].content_store 	hits[27] 	1953
scalar tree_4_3_u09_r17_network.node[27].content_store 	misses[27] 	9989
scalar tree_4_3_u09_r17_network.node[27].content_store 	decision_yes[27] 	9988
scalar tree_4_3_u09_r17_network.node[27].content_store 	decision_no[27] 	0
scalar tree_4_3_u09_r17_network.node[27].content_store 	decision_ratio[27] 	1
scalar tree_4_3_u09_r17_network.node[28].core_layer 	interests[28] 	12079
scalar tree_4_3_u09_r17_network.node[28].core_layer 	data[28] 	10186
scalar tree_4_3_u09_r17_network.node[28].content_store 	p_hit[28] 	0.1565526947595
scalar tree_4_3_u09_r17_network.node[28].content_store 	hits[28] 	1891
scalar tree_4_3_u09_r17_network.node[28].content_store 	misses[28] 	10188
scalar tree_4_3_u09_r17_network.node[28].content_store 	decision_yes[28] 	10186
scalar tree_4_3_u09_r17_network.node[28].content_store 	decision_no[28] 	0
scalar tree_4_3_u09_r17_network.node[28].content_store 	decision_ratio[28] 	1
scalar tree_4_3_u09_r17_network.node[29].core_layer 	interests[29] 	12035
scalar tree_4_3_u09_r17_network.node[29].core_layer 	data[29] 	10087
scalar tree_4_3_u09_r17_network.node[29].content_store 	p_hit[29] 	0.16169505608641
scalar tree_4_3_u09_r17_network.node[29].content_store 	hits[29] 	1946
scalar tree_4_3_u09_r17_network.node[29].content_store 	misses[29] 	10089
scalar tree_4_3_u09_r17_network.node[29].content_store 	decision_yes[29] 	10087
scalar tree_4_3_u09_r17_network.node[29].content_store 	decision_no[29] 	0
scalar tree_4_3_u09_r17_network.node[29].content_store 	decision_ratio[29] 	1
scalar tree_4_3_u09_r17_network.node[30].core_layer 	interests[30] 	12161
scalar tree_4_3_u09_r17_network.node[30].core_layer 	data[30] 	10236
scalar tree_4_3_u09_r17_network.node[30].content_store 	p_hit[30] 	0.15812844338459
scalar tree_4_3_u09_r17_network.node[30].content_store 	hits[30] 	1923
scalar tree_4_3_u09_r17_network.node[30].content_store 	misses[30] 	10238
scalar tree_4_3_u09_r17_network.node[30].content_store 	decision_yes[30] 	10236
scalar tree_4_3_u09_r17_network.node[30].content_store 	decision_no[30] 	0
scalar tree_4_3_u09_r17_network.node[30].content_store 	decision_ratio[30] 	1
scalar tree_4_3_u09_r17_network.node[31].core_layer 	interests[31] 	11929
scalar tree_4_3_u09_r17_network.node[31].core_layer 	data[31] 	9993
scalar tree_4_3_u09_r17_network.node[31].content_store 	p_hit[31] 	0.16229357029089
scalar tree_4_3_u09_r17_network.node[31].content_store 	hits[31] 	1936
scalar tree_4_3_u09_r17_network.node[31].content_store 	misses[31] 	9993
scalar tree_4_3_u09_r17_network.node[31].content_store 	decision_yes[31] 	9993
scalar tree_4_3_u09_r17_network.node[31].content_store 	decision_no[31] 	0
scalar tree_4_3_u09_r17_network.node[31].content_store 	decision_ratio[31] 	1
scalar tree_4_3_u09_r17_network.node[32].core_layer 	interests[32] 	12059
scalar tree_4_3_u09_r17_network.node[32].core_layer 	data[32] 	10111
scalar tree_4_3_u09_r17_network.node[32].content_store 	p_hit[32] 	0.16145617381209
scalar tree_4_3_u09_r17_network.node[32].content_store 	hits[32] 	1947
scalar tree_4_3_u09_r17_network.node[32].content_store 	misses[32] 	10112
scalar tree_4_3_u09_r17_network.node[32].content_store 	decision_yes[32] 	10111
scalar tree_4_3_u09_r17_network.node[32].content_store 	decision_no[32] 	0
scalar tree_4_3_u09_r17_network.node[32].content_store 	decision_ratio[32] 	1
scalar tree_4_3_u09_r17_network.node[33].core_layer 	interests[33] 	12080
scalar tree_4_3_u09_r17_network.node[33].core_layer 	data[33] 	10205
scalar tree_4_3_u09_r17_network.node[33].content_store 	p_hit[33] 	0.15521523178808
scalar tree_4_3_u09_r17_network.node[33].content_store 	hits[33] 	1875
scalar tree_4_3_u09_r17_network.node[33].content_store 	misses[33] 	10205
scalar tree_4_3_u09_r17_network.node[33].content_store 	decision_yes[33] 	10205
scalar tree_4_3_u09_r17_network.node[33].content_store 	decision_no[33] 	0
scalar tree_4_3_u09_r17_network.node[33].content_store 	decision_ratio[33] 	1
scalar tree_4_3_u09_r17_network.node[34].core_layer 	interests[34] 	12043
scalar tree_4_3_u09_r17_network.node[34].core_layer 	data[34] 	10172
scalar tree_4_3_u09_r17_network.node[34].content_store 	p_hit[34] 	0.1552769243544
scalar tree_4_3_u09_r17_network.node[34].content_store 	hits[34] 	1870
scalar tree_4_3_u09_r17_network.node[34].content_store 	misses[34] 	10173
scalar tree_4_3_u09_r17_network.node[34].content_store 	decision_yes[34] 	10172
scalar tree_4_3_u09_r17_network.node[34].content_store 	decision_no[34] 	0
scalar tree_4_3_u09_r17_network.node[34].content_store 	decision_ratio[34] 	1
scalar tree_4_3_u09_r17_network.node[35].core_layer 	interests[35] 	12150
scalar tree_4_3_u09_r17_network.node[35].core_layer 	data[35] 	10285
scalar tree_4_3_u09_r17_network.node[35].content_store 	p_hit[35] 	0.15341563786008
scalar tree_4_3_u09_r17_network.node[35].content_store 	hits[35] 	1864
scalar tree_4_3_u09_r17_network.node[35].content_store 	misses[35] 	10286
scalar tree_4_3_u09_r17_network.node[35].content_store 	decision_yes[35] 	10285
scalar tree_4_3_u09_r17_network.node[35].content_store 	decision_no[35] 	0
scalar tree_4_3_u09_r17_network.node[35].content_store 	decision_ratio[35] 	1
scalar tree_4_3_u09_r17_network.node[36].core_layer 	interests[36] 	11895
scalar tree_4_3_u09_r17_network.node[36].core_layer 	data[36] 	10017
scalar tree_4_3_u09_r17_network.node[36].content_store 	p_hit[36] 	0.1578814627995
scalar tree_4_3_u09_r17_network.node[36].content_store 	hits[36] 	1878
scalar tree_4_3_u09_r17_network.node[36].content_store 	misses[36] 	10017
scalar tree_4_3_u09_r17_network.node[36].content_store 	decision_yes[36] 	10017
scalar tree_4_3_u09_r17_network.node[36].content_store 	decision_no[36] 	0
scalar tree_4_3_u09_r17_network.node[36].content_store 	decision_ratio[36] 	1
scalar tree_4_3_u09_r17_network.node[37].core_layer 	interests[37] 	12048
scalar tree_4_3_u09_r17_network.node[37].core_layer 	data[37] 	10162
scalar tree_4_3_u09_r17_network.node[37].content_store 	p_hit[37] 	0.15654050464807
scalar tree_4_3_u09_r17_network.node[37].content_store 	hits[37] 	1886
scalar tree_4_3_u09_r17_network.node[37].content_store 	misses[37] 	10162
scalar tree_4_3_u09_r17_network.node[37].content_store 	decision_yes[37] 	10162
scalar tree_4_3_u09_r17_network.node[37].content_store 	decision_no[37] 	0
scalar tree_4_3_u09_r17_network.node[37].content_store 	decision_ratio[37] 	1
scalar tree_4_3_u09_r17_network.node[38].core_layer 	interests[38] 	12082
scalar tree_4_3_u09_r17_network.node[38].core_layer 	data[38] 	10193
scalar tree_4_3_u09_r17_network.node[38].content_store 	p_hit[38] 	0.15618275120013
scalar tree_4_3_u09_r17_network.node[38].content_store 	hits[38] 	1887
scalar tree_4_3_u09_r17_network.node[38].content_store 	misses[38] 	10195
scalar tree_4_3_u09_r17_network.node[38].content_store 	decision_yes[38] 	10193
scalar tree_4_3_u09_r17_network.node[38].content_store 	decision_no[38] 	0
scalar tree_4_3_u09_r17_network.node[38].content_store 	decision_ratio[38] 	1
scalar tree_4_3_u09_r17_network.node[39].core_layer 	interests[39] 	12104
scalar tree_4_3_u09_r17_network.node[39].core_layer 	data[39] 	10141
scalar tree_4_3_u09_r17_network.node[39].content_store 	p_hit[39] 	0.16209517514871
scalar tree_4_3_u09_r17_network.node[39].content_store 	hits[39] 	1962
scalar tree_4_3_u09_r17_network.node[39].content_store 	misses[39] 	10142
scalar tree_4_3_u09_r17_network.node[39].content_store 	decision_yes[39] 	10141
scalar tree_4_3_u09_r17_network.node[39].content_store 	decision_no[39] 	0
scalar tree_4_3_u09_r17_network.node[39].content_store 	decision_ratio[39] 	1
scalar tree_4_3_u09_r17_network.client[13] 	hdistance[13] 	3.2317556736691
scalar tree_4_3_u09_r17_network.client[13] 	downloads[13] 	11853
scalar tree_4_3_u09_r17_network.client[13] 	avg_time[13] 	0.004890736775
scalar tree_4_3_u09_r17_network.client[14] 	hdistance[14] 	3.2414500123021
scalar tree_4_3_u09_r17_network.client[14] 	downloads[14] 	12193
scalar tree_4_3_u09_r17_network.client[14] 	avg_time[14] 	0.004905303001
scalar tree_4_3_u09_r17_network.client[15] 	hdistance[15] 	3.258069897406
scalar tree_4_3_u09_r17_network.client[15] 	downloads[15] 	11989
scalar tree_4_3_u09_r17_network.client[15] 	avg_time[15] 	0.0049309975
scalar tree_4_3_u09_r17_network.client[16] 	hdistance[16] 	3.2227401365074
scalar tree_4_3_u09_r17_network.client[16] 	downloads[16] 	12014
scalar tree_4_3_u09_r17_network.client[16] 	avg_time[16] 	0.004875299344
scalar tree_4_3_u09_r17_network.client[17] 	hdistance[17] 	3.2804827643217
scalar tree_4_3_u09_r17_network.client[17] 	downloads[17] 	12097
scalar tree_4_3_u09_r17_network.client[17] 	avg_time[17] 	0.004966191808
scalar tree_4_3_u09_r17_network.client[18] 	hdistance[18] 	3.2366741274973
scalar tree_4_3_u09_r17_network.client[18] 	downloads[18] 	12063
scalar tree_4_3_u09_r17_network.client[18] 	avg_time[18] 	0.004901581273
scalar tree_4_3_u09_r17_network.client[19] 	hdistance[19] 	3.2462213966056
scalar tree_4_3_u09_r17_network.client[19] 	downloads[19] 	11843
scalar tree_4_3_u09_r17_network.client[19] 	avg_time[19] 	0.004911070192
scalar tree_4_3_u09_r17_network.client[20] 	hdistance[20] 	3.2859653527492
scalar tree_4_3_u09_r17_network.client[20] 	downloads[20] 	11949
scalar tree_4_3_u09_r17_network.client[20] 	avg_time[20] 	0.004974068534
scalar tree_4_3_u09_r17_network.client[21] 	hdistance[21] 	3.3055417700579
scalar tree_4_3_u09_r17_network.client[21] 	downloads[21] 	12090
scalar tree_4_3_u09_r17_network.client[21] 	avg_time[21] 	0.004996184099
scalar tree_4_3_u09_r17_network.client[22] 	hdistance[22] 	3.2206879236756
scalar tree_4_3_u09_r17_network.client[22] 	downloads[22] 	11949
scalar tree_4_3_u09_r17_network.client[22] 	avg_time[22] 	0.004872247284
scalar tree_4_3_u09_r17_network.client[23] 	hdistance[23] 	3.2160447449704
scalar tree_4_3_u09_r17_network.client[23] 	downloads[23] 	11979
scalar tree_4_3_u09_r17_network.client[23] 	avg_time[23] 	0.004869754892
scalar tree_4_3_u09_r17_network.client[24] 	hdistance[24] 	3.2476972031485
scalar tree_4_3_u09_r17_network.client[24] 	downloads[24] 	11942
scalar tree_4_3_u09_r17_network.client[24] 	avg_time[24] 	0.00491712037
scalar tree_4_3_u09_r17_network.client[25] 	hdistance[25] 	3.243436553349
scalar tree_4_3_u09_r17_network.client[25] 	downloads[25] 	11884
scalar tree_4_3_u09_r17_network.client[25] 	avg_time[25] 	0.004906839843
scalar tree_4_3_u09_r17_network.client[26] 	hdistance[26] 	3.2353482920295
scalar tree_4_3_u09_r17_network.client[26] 	downloads[26] 	11944
scalar tree_4_3_u09_r17_network.client[26] 	avg_time[26] 	0.004907653176
scalar tree_4_3_u09_r17_network.client[27] 	hdistance[27] 	3.2228456578176
scalar tree_4_3_u09_r17_network.client[27] 	downloads[27] 	11941
scalar tree_4_3_u09_r17_network.client[27] 	avg_time[27] 	0.004889034743
scalar tree_4_3_u09_r17_network.client[28] 	hdistance[28] 	3.2414506913969
scalar tree_4_3_u09_r17_network.client[28] 	downloads[28] 	12077
scalar tree_4_3_u09_r17_network.client[28] 	avg_time[28] 	0.004905998795
scalar tree_4_3_u09_r17_network.client[29] 	hdistance[29] 	3.236848666168
scalar tree_4_3_u09_r17_network.client[29] 	downloads[29] 	12033
scalar tree_4_3_u09_r17_network.client[29] 	avg_time[29] 	0.00490908419
scalar tree_4_3_u09_r17_network.client[30] 	hdistance[30] 	3.28949749157
scalar tree_4_3_u09_r17_network.client[30] 	downloads[30] 	12159
scalar tree_4_3_u09_r17_network.client[30] 	avg_time[30] 	0.004988992319
scalar tree_4_3_u09_r17_network.client[31] 	hdistance[31] 	3.2103277726549
scalar tree_4_3_u09_r17_network.client[31] 	downloads[31] 	11929
scalar tree_4_3_u09_r17_network.client[31] 	avg_time[31] 	0.004863059599
scalar tree_4_3_u09_r17_network.client[32] 	hdistance[32] 	3.223917730967
scalar tree_4_3_u09_r17_network.client[32] 	downloads[32] 	12058
scalar tree_4_3_u09_r17_network.client[32] 	avg_time[32] 	0.004879496992
scalar tree_4_3_u09_r17_network.client[33] 	hdistance[33] 	3.2484271523179
scalar tree_4_3_u09_r17_network.client[33] 	downloads[33] 	12080
scalar tree_4_3_u09_r17_network.client[33] 	avg_time[33] 	0.004915709507
scalar tree_4_3_u09_r17_network.client[34] 	hdistance[34] 	3.2416542102641
scalar tree_4_3_u09_r17_network.client[34] 	downloads[34] 	12042
scalar tree_4_3_u09_r17_network.client[34] 	avg_time[34] 	0.004908668557
scalar tree_4_3_u09_r17_network.client[35] 	hdistance[35] 	3.2761544160013
scalar tree_4_3_u09_r17_network.client[35] 	downloads[35] 	12149
scalar tree_4_3_u09_r17_network.client[35] 	avg_time[35] 	0.004965922372
scalar tree_4_3_u09_r17_network.client[36] 	hdistance[36] 	3.2515342580916
scalar tree_4_3_u09_r17_network.client[36] 	downloads[36] 	11895
scalar tree_4_3_u09_r17_network.client[36] 	avg_time[36] 	0.004929460658
scalar tree_4_3_u09_r17_network.client[37] 	hdistance[37] 	3.2439409030545
scalar tree_4_3_u09_r17_network.client[37] 	downloads[37] 	12048
scalar tree_4_3_u09_r17_network.client[37] 	avg_time[37] 	0.004909193539
scalar tree_4_3_u09_r17_network.client[38] 	hdistance[38] 	3.2527317880795
scalar tree_4_3_u09_r17_network.client[38] 	downloads[38] 	12080
scalar tree_4_3_u09_r17_network.client[38] 	avg_time[38] 	0.004934568019
scalar tree_4_3_u09_r17_network.client[39] 	hdistance[39] 	3.3164504668264
scalar tree_4_3_u09_r17_network.client[39] 	downloads[39] 	12103
scalar tree_4_3_u09_r17_network.client[39] 	avg_time[39] 	0.005017025804
