version 2
run General-192-20160820-17:10:29-2644
attr a 0.9
attr cd lce
attr configname General
attr cr lru
attr datetime 20160820-17:10:29
attr experiment General
attr fsize 1
attr inifile hw5115/scenario_A/SPR-LCE.ini
attr iterationvars "$name=tree_4_3, $un=09, $rep=13, $cd=lce, $cr=lru, $fsize=1, $a=0.9, $sl=spr, $ttl=1000, $variance=0.05"
attr iterationvars2 "$name=tree_4_3, $un=09, $rep=13, $cd=lce, $cr=lru, $fsize=1, $a=0.9, $sl=spr, $ttl=1000, $variance=0.05, $repetition=0"
attr measurement "$name=tree_4_3, $un=09, $rep=13, $cd=lce, $cr=lru, $fsize=1, $a=0.9, $sl=spr, $ttl=1000, $variance=0.05"
attr name tree_4_3
attr network networks.${name}_u${un}_r${rep}_network
attr processid 2644
attr rep 13
attr repetition 0
attr replication #0
attr resultdir results
attr runnumber 192
attr seedset 13
attr sl spr
attr ttl 1000
attr un 09
attr variance 0.05

scalar . 	a 	0.9
scalar . 	fsize 	1
scalar . 	rep 	13
scalar . 	ttl 	1000
scalar . 	un 	09
scalar . 	variance 	0.05
scalar tree_4_3_u09_r13_network.content_distribution 	repo-0 	0
scalar tree_4_3_u09_r13_network.content_distribution 	client-0 	13
scalar tree_4_3_u09_r13_network.content_distribution 	client-1 	14
scalar tree_4_3_u09_r13_network.content_distribution 	client-2 	15
scalar tree_4_3_u09_r13_network.content_distribution 	client-3 	16
scalar tree_4_3_u09_r13_network.content_distribution 	client-4 	17
scalar tree_4_3_u09_r13_network.content_distribution 	client-5 	18
scalar tree_4_3_u09_r13_network.content_distribution 	client-6 	19
scalar tree_4_3_u09_r13_network.content_distribution 	client-7 	20
scalar tree_4_3_u09_r13_network.content_distribution 	client-8 	21
scalar tree_4_3_u09_r13_network.content_distribution 	client-9 	22
scalar tree_4_3_u09_r13_network.content_distribution 	client-10 	23
scalar tree_4_3_u09_r13_network.content_distribution 	client-11 	24
scalar tree_4_3_u09_r13_network.content_distribution 	client-12 	25
scalar tree_4_3_u09_r13_network.content_distribution 	client-13 	26
scalar tree_4_3_u09_r13_network.content_distribution 	client-14 	27
scalar tree_4_3_u09_r13_network.content_distribution 	client-15 	28
scalar tree_4_3_u09_r13_network.content_distribution 	client-16 	29
scalar tree_4_3_u09_r13_network.content_distribution 	client-17 	30
scalar tree_4_3_u09_r13_network.content_distribution 	client-18 	31
scalar tree_4_3_u09_r13_network.content_distribution 	client-19 	32
scalar tree_4_3_u09_r13_network.content_distribution 	client-20 	33
scalar tree_4_3_u09_r13_network.content_distribution 	client-21 	34
scalar tree_4_3_u09_r13_network.content_distribution 	client-22 	35
scalar tree_4_3_u09_r13_network.content_distribution 	client-23 	36
scalar tree_4_3_u09_r13_network.content_distribution 	client-24 	37
scalar tree_4_3_u09_r13_network.content_distribution 	client-25 	38
scalar tree_4_3_u09_r13_network.content_distribution 	client-26 	39
scalar tree_4_3_u09_r13_network.content_distribution 	repo-0_card 	100000
scalar tree_4_3_u09_r13_network.content_distribution 	repo-0_price 	0
scalar tree_4_3_u09_r13_network.statistics 	stabilization_time 	566.5
scalar tree_4_3_u09_r13_network.statistics 	p_hit 	0.11223120415657
scalar tree_4_3_u09_r13_network.statistics 	interests 	28026.175
scalar tree_4_3_u09_r13_network.statistics 	data 	19933.15
scalar tree_4_3_u09_r13_network.statistics 	hdistance 	3.251601632825
scalar tree_4_3_u09_r13_network.statistics 	avg_time 	0.004926293115
scalar tree_4_3_u09_r13_network.statistics 	downloads 	323701
scalar tree_4_3_u09_r13_network.statistics 	total_cost 	0
scalar tree_4_3_u09_r13_network.statistics 	total_replicas 	100000
scalar tree_4_3_u09_r13_network.statistics 	inner_hit 	0.21187144926954
scalar tree_4_3_u09_r13_network.node[0].core_layer 	interests[0] 	259193
scalar tree_4_3_u09_r13_network.node[0].core_layer 	repo_load[0] 	255118
scalar tree_4_3_u09_r13_network.node[0].core_layer 	data[0] 	0
scalar tree_4_3_u09_r13_network.node[0].core_layer 	repo_int[0] 	255118
scalar tree_4_3_u09_r13_network.node[0].content_store 	p_hit[0] 	0.015721875204963
scalar tree_4_3_u09_r13_network.node[0].content_store 	hits[0] 	4075
scalar tree_4_3_u09_r13_network.node[0].content_store 	misses[0] 	255118
scalar tree_4_3_u09_r13_network.node[0].content_store 	decision_yes[0] 	255118
scalar tree_4_3_u09_r13_network.node[0].content_store 	decision_no[0] 	0
scalar tree_4_3_u09_r13_network.node[0].content_store 	decision_ratio[0] 	1
scalar tree_4_3_u09_r13_network.node[1].core_layer 	interests[1] 	137159
scalar tree_4_3_u09_r13_network.node[1].core_layer 	data[1] 	133974
scalar tree_4_3_u09_r13_network.node[1].content_store 	p_hit[1] 	0.023104572065996
scalar tree_4_3_u09_r13_network.node[1].content_store 	hits[1] 	3169
scalar tree_4_3_u09_r13_network.node[1].content_store 	misses[1] 	133990
scalar tree_4_3_u09_r13_network.node[1].content_store 	decision_yes[1] 	133974
scalar tree_4_3_u09_r13_network.node[1].content_store 	decision_no[1] 	0
scalar tree_4_3_u09_r13_network.node[1].content_store 	decision_ratio[1] 	1
scalar tree_4_3_u09_r13_network.node[2].core_layer 	interests[2] 	117942
scalar tree_4_3_u09_r13_network.node[2].core_layer 	data[2] 	115146
scalar tree_4_3_u09_r13_network.node[2].content_store 	p_hit[2] 	0.023621780197046
scalar tree_4_3_u09_r13_network.node[2].content_store 	hits[2] 	2786
scalar tree_4_3_u09_r13_network.node[2].content_store 	misses[2] 	115156
scalar tree_4_3_u09_r13_network.node[2].content_store 	decision_yes[2] 	115146
scalar tree_4_3_u09_r13_network.node[2].content_store 	decision_no[2] 	0
scalar tree_4_3_u09_r13_network.node[2].content_store 	decision_ratio[2] 	1
scalar tree_4_3_u09_r13_network.node[3].core_layer 	interests[3] 	10073
scalar tree_4_3_u09_r13_network.node[3].core_layer 	data[3] 	10073
scalar tree_4_3_u09_r13_network.node[3].content_store 	p_hit[3] 	0
scalar tree_4_3_u09_r13_network.node[3].content_store 	hits[3] 	0
scalar tree_4_3_u09_r13_network.node[3].content_store 	misses[3] 	10073
scalar tree_4_3_u09_r13_network.node[3].content_store 	decision_yes[3] 	10073
scalar tree_4_3_u09_r13_network.node[3].content_store 	decision_no[3] 	0
scalar tree_4_3_u09_r13_network.node[3].content_store 	decision_ratio[3] 	1
scalar tree_4_3_u09_r13_network.node[4].core_layer 	interests[4] 	50522
scalar tree_4_3_u09_r13_network.node[4].core_layer 	data[4] 	48832
scalar tree_4_3_u09_r13_network.node[4].content_store 	p_hit[4] 	0.033351807133526
scalar tree_4_3_u09_r13_network.node[4].content_store 	hits[4] 	1685
scalar tree_4_3_u09_r13_network.node[4].content_store 	misses[4] 	48837
scalar tree_4_3_u09_r13_network.node[4].content_store 	decision_yes[4] 	48832
scalar tree_4_3_u09_r13_network.node[4].content_store 	decision_no[4] 	0
scalar tree_4_3_u09_r13_network.node[4].content_store 	decision_ratio[4] 	1
scalar tree_4_3_u09_r13_network.node[5].core_layer 	interests[5] 	30315
scalar tree_4_3_u09_r13_network.node[5].core_layer 	data[5] 	29459
scalar tree_4_3_u09_r13_network.node[5].content_store 	p_hit[5] 	0.028203859475507
scalar tree_4_3_u09_r13_network.node[5].content_store 	hits[5] 	855
scalar tree_4_3_u09_r13_network.node[5].content_store 	misses[5] 	29460
scalar tree_4_3_u09_r13_network.node[5].content_store 	decision_yes[5] 	29459
scalar tree_4_3_u09_r13_network.node[5].content_store 	decision_no[5] 	0
scalar tree_4_3_u09_r13_network.node[5].content_store 	decision_ratio[5] 	1
scalar tree_4_3_u09_r13_network.node[6].core_layer 	interests[6] 	10253
scalar tree_4_3_u09_r13_network.node[6].core_layer 	data[6] 	10222
scalar tree_4_3_u09_r13_network.node[6].content_store 	p_hit[6] 	0.0030235053155174
scalar tree_4_3_u09_r13_network.node[6].content_store 	hits[6] 	31
scalar tree_4_3_u09_r13_network.node[6].content_store 	misses[6] 	10222
scalar tree_4_3_u09_r13_network.node[6].content_store 	decision_yes[6] 	10222
scalar tree_4_3_u09_r13_network.node[6].content_store 	decision_no[6] 	0
scalar tree_4_3_u09_r13_network.node[6].content_store 	decision_ratio[6] 	1
scalar tree_4_3_u09_r13_network.node[7].core_layer 	interests[7] 	50426
scalar tree_4_3_u09_r13_network.node[7].core_layer 	data[7] 	48710
scalar tree_4_3_u09_r13_network.node[7].content_store 	p_hit[7] 	0.033930908658232
scalar tree_4_3_u09_r13_network.node[7].content_store 	hits[7] 	1711
scalar tree_4_3_u09_r13_network.node[7].content_store 	misses[7] 	48715
scalar tree_4_3_u09_r13_network.node[7].content_store 	decision_yes[7] 	48710
scalar tree_4_3_u09_r13_network.node[7].content_store 	decision_no[7] 	0
scalar tree_4_3_u09_r13_network.node[7].content_store 	decision_ratio[7] 	1
scalar tree_4_3_u09_r13_network.node[8].core_layer 	interests[8] 	30219
scalar tree_4_3_u09_r13_network.node[8].core_layer 	data[8] 	29336
scalar tree_4_3_u09_r13_network.node[8].content_store 	p_hit[8] 	0.029087660081406
scalar tree_4_3_u09_r13_network.node[8].content_store 	hits[8] 	879
scalar tree_4_3_u09_r13_network.node[8].content_store 	misses[8] 	29340
scalar tree_4_3_u09_r13_network.node[8].content_store 	decision_yes[8] 	29336
scalar tree_4_3_u09_r13_network.node[8].content_store 	decision_no[8] 	0
scalar tree_4_3_u09_r13_network.node[8].content_store 	decision_ratio[8] 	1
scalar tree_4_3_u09_r13_network.node[9].core_layer 	interests[9] 	10298
scalar tree_4_3_u09_r13_network.node[9].core_layer 	data[9] 	10272
scalar tree_4_3_u09_r13_network.node[9].content_store 	p_hit[9] 	0.0025247620897262
scalar tree_4_3_u09_r13_network.node[9].content_store 	hits[9] 	26
scalar tree_4_3_u09_r13_network.node[9].content_store 	misses[9] 	10272
scalar tree_4_3_u09_r13_network.node[9].content_store 	decision_yes[9] 	10272
scalar tree_4_3_u09_r13_network.node[9].content_store 	decision_no[9] 	0
scalar tree_4_3_u09_r13_network.node[9].content_store 	decision_ratio[9] 	1
scalar tree_4_3_u09_r13_network.node[10].core_layer 	interests[10] 	50313
scalar tree_4_3_u09_r13_network.node[10].core_layer 	data[10] 	48646
scalar tree_4_3_u09_r13_network.node[10].content_store 	p_hit[10] 	0.033013336513426
scalar tree_4_3_u09_r13_network.node[10].content_store 	hits[10] 	1661
scalar tree_4_3_u09_r13_network.node[10].content_store 	misses[10] 	48652
scalar tree_4_3_u09_r13_network.node[10].content_store 	decision_yes[10] 	48646
scalar tree_4_3_u09_r13_network.node[10].content_store 	decision_no[10] 	0
scalar tree_4_3_u09_r13_network.node[10].content_store 	decision_ratio[10] 	1
scalar tree_4_3_u09_r13_network.node[11].core_layer 	interests[11] 	30515
scalar tree_4_3_u09_r13_network.node[11].core_layer 	data[11] 	29625
scalar tree_4_3_u09_r13_network.node[11].content_store 	p_hit[11] 	0.029133213173849
scalar tree_4_3_u09_r13_network.node[11].content_store 	hits[11] 	889
scalar tree_4_3_u09_r13_network.node[11].content_store 	misses[11] 	29626
scalar tree_4_3_u09_r13_network.node[11].content_store 	decision_yes[11] 	29625
scalar tree_4_3_u09_r13_network.node[11].content_store 	decision_no[11] 	0
scalar tree_4_3_u09_r13_network.node[11].content_store 	decision_ratio[11] 	1
scalar tree_4_3_u09_r13_network.node[12].core_layer 	interests[12] 	10096
scalar tree_4_3_u09_r13_network.node[12].core_layer 	data[12] 	10073
scalar tree_4_3_u09_r13_network.node[12].content_store 	p_hit[12] 	0.0022781299524564
scalar tree_4_3_u09_r13_network.node[12].content_store 	hits[12] 	23
scalar tree_4_3_u09_r13_network.node[12].content_store 	misses[12] 	10073
scalar tree_4_3_u09_r13_network.node[12].content_store 	decision_yes[12] 	10073
scalar tree_4_3_u09_r13_network.node[12].content_store 	decision_no[12] 	0
scalar tree_4_3_u09_r13_network.node[12].content_store 	decision_ratio[12] 	1
scalar tree_4_3_u09_r13_network.node[13].core_layer 	interests[13] 	12090
scalar tree_4_3_u09_r13_network.node[13].core_layer 	data[13] 	10172
scalar tree_4_3_u09_r13_network.node[13].content_store 	p_hit[13] 	0.1586435070306
scalar tree_4_3_u09_r13_network.node[13].content_store 	hits[13] 	1918
scalar tree_4_3_u09_r13_network.node[13].content_store 	misses[13] 	10172
scalar tree_4_3_u09_r13_network.node[13].content_store 	decision_yes[13] 	10172
scalar tree_4_3_u09_r13_network.node[13].content_store 	decision_no[13] 	0
scalar tree_4_3_u09_r13_network.node[13].content_store 	decision_ratio[13] 	1
scalar tree_4_3_u09_r13_network.node[14].core_layer 	interests[14] 	11889
scalar tree_4_3_u09_r13_network.node[14].core_layer 	data[14] 	9983
scalar tree_4_3_u09_r13_network.node[14].content_store 	p_hit[14] 	0.16014803599966
scalar tree_4_3_u09_r13_network.node[14].content_store 	hits[14] 	1904
scalar tree_4_3_u09_r13_network.node[14].content_store 	misses[14] 	9985
scalar tree_4_3_u09_r13_network.node[14].content_store 	decision_yes[14] 	9983
scalar tree_4_3_u09_r13_network.node[14].content_store 	decision_no[14] 	0
scalar tree_4_3_u09_r13_network.node[14].content_store 	decision_ratio[14] 	1
scalar tree_4_3_u09_r13_network.node[15].core_layer 	interests[15] 	11938
scalar tree_4_3_u09_r13_network.node[15].core_layer 	data[15] 	10171
scalar tree_4_3_u09_r13_network.node[15].content_store 	p_hit[15] 	0.14793097671302
scalar tree_4_3_u09_r13_network.node[15].content_store 	hits[15] 	1766
scalar tree_4_3_u09_r13_network.node[15].content_store 	misses[15] 	10172
scalar tree_4_3_u09_r13_network.node[15].content_store 	decision_yes[15] 	10171
scalar tree_4_3_u09_r13_network.node[15].content_store 	decision_no[15] 	0
scalar tree_4_3_u09_r13_network.node[15].content_store 	decision_ratio[15] 	1
scalar tree_4_3_u09_r13_network.node[16].core_layer 	interests[16] 	12075
scalar tree_4_3_u09_r13_network.node[16].core_layer 	data[16] 	10188
scalar tree_4_3_u09_r13_network.node[16].content_store 	p_hit[16] 	0.15627329192547
scalar tree_4_3_u09_r13_network.node[16].content_store 	hits[16] 	1887
scalar tree_4_3_u09_r13_network.node[16].content_store 	misses[16] 	10188
scalar tree_4_3_u09_r13_network.node[16].content_store 	decision_yes[16] 	10188
scalar tree_4_3_u09_r13_network.node[16].content_store 	decision_no[16] 	0
scalar tree_4_3_u09_r13_network.node[16].content_store 	decision_ratio[16] 	1
scalar tree_4_3_u09_r13_network.node[17].core_layer 	interests[17] 	12087
scalar tree_4_3_u09_r13_network.node[17].core_layer 	data[17] 	10149
scalar tree_4_3_u09_r13_network.node[17].content_store 	p_hit[17] 	0.16033755274262
scalar tree_4_3_u09_r13_network.node[17].content_store 	hits[17] 	1938
scalar tree_4_3_u09_r13_network.node[17].content_store 	misses[17] 	10149
scalar tree_4_3_u09_r13_network.node[17].content_store 	decision_yes[17] 	10149
scalar tree_4_3_u09_r13_network.node[17].content_store 	decision_no[17] 	0
scalar tree_4_3_u09_r13_network.node[17].content_store 	decision_ratio[17] 	1
scalar tree_4_3_u09_r13_network.node[18].core_layer 	interests[18] 	11985
scalar tree_4_3_u09_r13_network.node[18].core_layer 	data[18] 	10078
scalar tree_4_3_u09_r13_network.node[18].content_store 	p_hit[18] 	0.15903212348769
scalar tree_4_3_u09_r13_network.node[18].content_store 	hits[18] 	1906
scalar tree_4_3_u09_r13_network.node[18].content_store 	misses[18] 	10079
scalar tree_4_3_u09_r13_network.node[18].content_store 	decision_yes[18] 	10078
scalar tree_4_3_u09_r13_network.node[18].content_store 	decision_no[18] 	0
scalar tree_4_3_u09_r13_network.node[18].content_store 	decision_ratio[18] 	1
scalar tree_4_3_u09_r13_network.node[19].core_layer 	interests[19] 	11903
scalar tree_4_3_u09_r13_network.node[19].core_layer 	data[19] 	10007
scalar tree_4_3_u09_r13_network.node[19].content_store 	p_hit[19] 	0.15920356212719
scalar tree_4_3_u09_r13_network.node[19].content_store 	hits[19] 	1895
scalar tree_4_3_u09_r13_network.node[19].content_store 	misses[19] 	10008
scalar tree_4_3_u09_r13_network.node[19].content_store 	decision_yes[19] 	10007
scalar tree_4_3_u09_r13_network.node[19].content_store 	decision_no[19] 	0
scalar tree_4_3_u09_r13_network.node[19].content_store 	decision_ratio[19] 	1
scalar tree_4_3_u09_r13_network.node[20].core_layer 	interests[20] 	11987
scalar tree_4_3_u09_r13_network.node[20].core_layer 	data[20] 	10089
scalar tree_4_3_u09_r13_network.node[20].content_store 	p_hit[20] 	0.15833819971636
scalar tree_4_3_u09_r13_network.node[20].content_store 	hits[20] 	1898
scalar tree_4_3_u09_r13_network.node[20].content_store 	misses[20] 	10089
scalar tree_4_3_u09_r13_network.node[20].content_store 	decision_yes[20] 	10089
scalar tree_4_3_u09_r13_network.node[20].content_store 	decision_no[20] 	0
scalar tree_4_3_u09_r13_network.node[20].content_store 	decision_ratio[20] 	1
scalar tree_4_3_u09_r13_network.node[21].core_layer 	interests[21] 	12088
scalar tree_4_3_u09_r13_network.node[21].core_layer 	data[21] 	10253
scalar tree_4_3_u09_r13_network.node[21].content_store 	p_hit[21] 	0.15163798808736
scalar tree_4_3_u09_r13_network.node[21].content_store 	hits[21] 	1833
scalar tree_4_3_u09_r13_network.node[21].content_store 	misses[21] 	10255
scalar tree_4_3_u09_r13_network.node[21].content_store 	decision_yes[21] 	10253
scalar tree_4_3_u09_r13_network.node[21].content_store 	decision_no[21] 	0
scalar tree_4_3_u09_r13_network.node[21].content_store 	decision_ratio[21] 	1
scalar tree_4_3_u09_r13_network.node[22].core_layer 	interests[22] 	11856
scalar tree_4_3_u09_r13_network.node[22].core_layer 	data[22] 	10066
scalar tree_4_3_u09_r13_network.node[22].content_store 	p_hit[22] 	0.15097840755735
scalar tree_4_3_u09_r13_network.node[22].content_store 	hits[22] 	1790
scalar tree_4_3_u09_r13_network.node[22].content_store 	misses[22] 	10066
scalar tree_4_3_u09_r13_network.node[22].content_store 	decision_yes[22] 	10066
scalar tree_4_3_u09_r13_network.node[22].content_store 	decision_no[22] 	0
scalar tree_4_3_u09_r13_network.node[22].content_store 	decision_ratio[22] 	1
scalar tree_4_3_u09_r13_network.node[23].core_layer 	interests[23] 	11856
scalar tree_4_3_u09_r13_network.node[23].core_layer 	data[23] 	9988
scalar tree_4_3_u09_r13_network.node[23].content_store 	p_hit[23] 	0.15755735492578
scalar tree_4_3_u09_r13_network.node[23].content_store 	hits[23] 	1868
scalar tree_4_3_u09_r13_network.node[23].content_store 	misses[23] 	9988
scalar tree_4_3_u09_r13_network.node[23].content_store 	decision_yes[23] 	9988
scalar tree_4_3_u09_r13_network.node[23].content_store 	decision_no[23] 	0
scalar tree_4_3_u09_r13_network.node[23].content_store 	decision_ratio[23] 	1
scalar tree_4_3_u09_r13_network.node[24].core_layer 	interests[24] 	12038
scalar tree_4_3_u09_r13_network.node[24].core_layer 	data[24] 	10206
scalar tree_4_3_u09_r13_network.node[24].content_store 	p_hit[24] 	0.15185246718724
scalar tree_4_3_u09_r13_network.node[24].content_store 	hits[24] 	1828
scalar tree_4_3_u09_r13_network.node[24].content_store 	misses[24] 	10210
scalar tree_4_3_u09_r13_network.node[24].content_store 	decision_yes[24] 	10206
scalar tree_4_3_u09_r13_network.node[24].content_store 	decision_no[24] 	0
scalar tree_4_3_u09_r13_network.node[24].content_store 	decision_ratio[24] 	1
scalar tree_4_3_u09_r13_network.node[25].core_layer 	interests[25] 	11899
scalar tree_4_3_u09_r13_network.node[25].core_layer 	data[25] 	10033
scalar tree_4_3_u09_r13_network.node[25].content_store 	p_hit[25] 	0.15673586015632
scalar tree_4_3_u09_r13_network.node[25].content_store 	hits[25] 	1865
scalar tree_4_3_u09_r13_network.node[25].content_store 	misses[25] 	10034
scalar tree_4_3_u09_r13_network.node[25].content_store 	decision_yes[25] 	10033
scalar tree_4_3_u09_r13_network.node[25].content_store 	decision_no[25] 	0
scalar tree_4_3_u09_r13_network.node[25].content_store 	decision_ratio[25] 	1
scalar tree_4_3_u09_r13_network.node[26].core_layer 	interests[26] 	12078
scalar tree_4_3_u09_r13_network.node[26].core_layer 	data[26] 	10242
scalar tree_4_3_u09_r13_network.node[26].content_store 	p_hit[26] 	0.15201192250373
scalar tree_4_3_u09_r13_network.node[26].content_store 	hits[26] 	1836
scalar tree_4_3_u09_r13_network.node[26].content_store 	misses[26] 	10242
scalar tree_4_3_u09_r13_network.node[26].content_store 	decision_yes[26] 	10242
scalar tree_4_3_u09_r13_network.node[26].content_store 	decision_no[26] 	0
scalar tree_4_3_u09_r13_network.node[26].content_store 	decision_ratio[26] 	1
scalar tree_4_3_u09_r13_network.node[27].core_layer 	interests[27] 	11986
scalar tree_4_3_u09_r13_network.node[27].core_layer 	data[27] 	9987
scalar tree_4_3_u09_r13_network.node[27].content_store 	p_hit[27] 	0.16677790755882
scalar tree_4_3_u09_r13_network.node[27].content_store 	hits[27] 	1999
scalar tree_4_3_u09_r13_network.node[27].content_store 	misses[27] 	9987
scalar tree_4_3_u09_r13_network.node[27].content_store 	decision_yes[27] 	9987
scalar tree_4_3_u09_r13_network.node[27].content_store 	decision_no[27] 	0
scalar tree_4_3_u09_r13_network.node[27].content_store 	decision_ratio[27] 	1
scalar tree_4_3_u09_r13_network.node[28].core_layer 	interests[28] 	12059
scalar tree_4_3_u09_r13_network.node[28].core_layer 	data[28] 	10134
scalar tree_4_3_u09_r13_network.node[28].content_store 	p_hit[28] 	0.15954888465047
scalar tree_4_3_u09_r13_network.node[28].content_store 	hits[28] 	1924
scalar tree_4_3_u09_r13_network.node[28].content_store 	misses[28] 	10135
scalar tree_4_3_u09_r13_network.node[28].content_store 	decision_yes[28] 	10134
scalar tree_4_3_u09_r13_network.node[28].content_store 	decision_no[28] 	0
scalar tree_4_3_u09_r13_network.node[28].content_store 	decision_ratio[28] 	1
scalar tree_4_3_u09_r13_network.node[29].core_layer 	interests[29] 	11857
scalar tree_4_3_u09_r13_network.node[29].core_layer 	data[29] 	9990
scalar tree_4_3_u09_r13_network.node[29].content_store 	p_hit[29] 	0.1572067133339
scalar tree_4_3_u09_r13_network.node[29].content_store 	hits[29] 	1864
scalar tree_4_3_u09_r13_network.node[29].content_store 	misses[29] 	9993
scalar tree_4_3_u09_r13_network.node[29].content_store 	decision_yes[29] 	9990
scalar tree_4_3_u09_r13_network.node[29].content_store 	decision_no[29] 	0
scalar tree_4_3_u09_r13_network.node[29].content_store 	decision_ratio[29] 	1
scalar tree_4_3_u09_r13_network.node[30].core_layer 	interests[30] 	12170
scalar tree_4_3_u09_r13_network.node[30].core_layer 	data[30] 	10298
scalar tree_4_3_u09_r13_network.node[30].content_store 	p_hit[30] 	0.15382087099425
scalar tree_4_3_u09_r13_network.node[30].content_store 	hits[30] 	1872
scalar tree_4_3_u09_r13_network.node[30].content_store 	misses[30] 	10298
scalar tree_4_3_u09_r13_network.node[30].content_store 	decision_yes[30] 	10298
scalar tree_4_3_u09_r13_network.node[30].content_store 	decision_no[30] 	0
scalar tree_4_3_u09_r13_network.node[30].content_store 	decision_ratio[30] 	1
scalar tree_4_3_u09_r13_network.node[31].core_layer 	interests[31] 	11780
scalar tree_4_3_u09_r13_network.node[31].core_layer 	data[31] 	9936
scalar tree_4_3_u09_r13_network.node[31].content_store 	p_hit[31] 	0.15636672325976
scalar tree_4_3_u09_r13_network.node[31].content_store 	hits[31] 	1842
scalar tree_4_3_u09_r13_network.node[31].content_store 	misses[31] 	9938
scalar tree_4_3_u09_r13_network.node[31].content_store 	decision_yes[31] 	9936
scalar tree_4_3_u09_r13_network.node[31].content_store 	decision_no[31] 	0
scalar tree_4_3_u09_r13_network.node[31].content_store 	decision_ratio[31] 	1
scalar tree_4_3_u09_r13_network.node[32].core_layer 	interests[32] 	11912
scalar tree_4_3_u09_r13_network.node[32].core_layer 	data[32] 	10056
scalar tree_4_3_u09_r13_network.node[32].content_store 	p_hit[32] 	0.15580926796508
scalar tree_4_3_u09_r13_network.node[32].content_store 	hits[32] 	1856
scalar tree_4_3_u09_r13_network.node[32].content_store 	misses[32] 	10056
scalar tree_4_3_u09_r13_network.node[32].content_store 	decision_yes[32] 	10056
scalar tree_4_3_u09_r13_network.node[32].content_store 	decision_no[32] 	0
scalar tree_4_3_u09_r13_network.node[32].content_store 	decision_ratio[32] 	1
scalar tree_4_3_u09_r13_network.node[33].core_layer 	interests[33] 	11991
scalar tree_4_3_u09_r13_network.node[33].core_layer 	data[33] 	10125
scalar tree_4_3_u09_r13_network.node[33].content_store 	p_hit[33] 	0.1556167125344
scalar tree_4_3_u09_r13_network.node[33].content_store 	hits[33] 	1866
scalar tree_4_3_u09_r13_network.node[33].content_store 	misses[33] 	10125
scalar tree_4_3_u09_r13_network.node[33].content_store 	decision_yes[33] 	10125
scalar tree_4_3_u09_r13_network.node[33].content_store 	decision_no[33] 	0
scalar tree_4_3_u09_r13_network.node[33].content_store 	decision_ratio[33] 	1
scalar tree_4_3_u09_r13_network.node[34].core_layer 	interests[34] 	11939
scalar tree_4_3_u09_r13_network.node[34].core_layer 	data[34] 	9987
scalar tree_4_3_u09_r13_network.node[34].content_store 	p_hit[34] 	0.16333026216601
scalar tree_4_3_u09_r13_network.node[34].content_store 	hits[34] 	1950
scalar tree_4_3_u09_r13_network.node[34].content_store 	misses[34] 	9989
scalar tree_4_3_u09_r13_network.node[34].content_store 	decision_yes[34] 	9987
scalar tree_4_3_u09_r13_network.node[34].content_store 	decision_no[34] 	0
scalar tree_4_3_u09_r13_network.node[34].content_store 	decision_ratio[34] 	1
scalar tree_4_3_u09_r13_network.node[35].core_layer 	interests[35] 	12088
scalar tree_4_3_u09_r13_network.node[35].core_layer 	data[35] 	10163
scalar tree_4_3_u09_r13_network.node[35].content_store 	p_hit[35] 	0.15916611515553
scalar tree_4_3_u09_r13_network.node[35].content_store 	hits[35] 	1924
scalar tree_4_3_u09_r13_network.node[35].content_store 	misses[35] 	10164
scalar tree_4_3_u09_r13_network.node[35].content_store 	decision_yes[35] 	10163
scalar tree_4_3_u09_r13_network.node[35].content_store 	decision_no[35] 	0
scalar tree_4_3_u09_r13_network.node[35].content_store 	decision_ratio[35] 	1
scalar tree_4_3_u09_r13_network.node[36].core_layer 	interests[36] 	12116
scalar tree_4_3_u09_r13_network.node[36].core_layer 	data[36] 	10220
scalar tree_4_3_u09_r13_network.node[36].content_store 	p_hit[36] 	0.1564872895345
scalar tree_4_3_u09_r13_network.node[36].content_store 	hits[36] 	1896
scalar tree_4_3_u09_r13_network.node[36].content_store 	misses[36] 	10220
scalar tree_4_3_u09_r13_network.node[36].content_store 	decision_yes[36] 	10220
scalar tree_4_3_u09_r13_network.node[36].content_store 	decision_no[36] 	0
scalar tree_4_3_u09_r13_network.node[36].content_store 	decision_ratio[36] 	1
scalar tree_4_3_u09_r13_network.node[37].core_layer 	interests[37] 	12088
scalar tree_4_3_u09_r13_network.node[37].core_layer 	data[37] 	10209
scalar tree_4_3_u09_r13_network.node[37].content_store 	p_hit[37] 	0.15544341495698
scalar tree_4_3_u09_r13_network.node[37].content_store 	hits[37] 	1879
scalar tree_4_3_u09_r13_network.node[37].content_store 	misses[37] 	10209
scalar tree_4_3_u09_r13_network.node[37].content_store 	decision_yes[37] 	10209
scalar tree_4_3_u09_r13_network.node[37].content_store 	decision_no[37] 	0
scalar tree_4_3_u09_r13_network.node[37].content_store 	decision_ratio[37] 	1
scalar tree_4_3_u09_r13_network.node[38].core_layer 	interests[38] 	12011
scalar tree_4_3_u09_r13_network.node[38].core_layer 	data[38] 	10132
scalar tree_4_3_u09_r13_network.node[38].content_store 	p_hit[38] 	0.15643993006411
scalar tree_4_3_u09_r13_network.node[38].content_store 	hits[38] 	1879
scalar tree_4_3_u09_r13_network.node[38].content_store 	misses[38] 	10132
scalar tree_4_3_u09_r13_network.node[38].content_store 	decision_yes[38] 	10132
scalar tree_4_3_u09_r13_network.node[38].content_store 	decision_no[38] 	0
scalar tree_4_3_u09_r13_network.node[38].content_store 	decision_ratio[38] 	1
scalar tree_4_3_u09_r13_network.node[39].core_layer 	interests[39] 	11957
scalar tree_4_3_u09_r13_network.node[39].core_layer 	data[39] 	10096
scalar tree_4_3_u09_r13_network.node[39].content_store 	p_hit[39] 	0.15555741406707
scalar tree_4_3_u09_r13_network.node[39].content_store 	hits[39] 	1860
scalar tree_4_3_u09_r13_network.node[39].content_store 	misses[39] 	10097
scalar tree_4_3_u09_r13_network.node[39].content_store 	decision_yes[39] 	10096
scalar tree_4_3_u09_r13_network.node[39].content_store 	decision_no[39] 	0
scalar tree_4_3_u09_r13_network.node[39].content_store 	decision_ratio[39] 	1
scalar tree_4_3_u09_r13_network.client[13] 	hdistance[13] 	3.2375516956162
scalar tree_4_3_u09_r13_network.client[13] 	downloads[13] 	12090
scalar tree_4_3_u09_r13_network.client[13] 	avg_time[13] 	0.00490471162
scalar tree_4_3_u09_r13_network.client[14] 	hdistance[14] 	3.2324387986876
scalar tree_4_3_u09_r13_network.client[14] 	downloads[14] 	11887
scalar tree_4_3_u09_r13_network.client[14] 	avg_time[14] 	0.004897244481
scalar tree_4_3_u09_r13_network.client[15] 	hdistance[15] 	3.2731004439977
scalar tree_4_3_u09_r13_network.client[15] 	downloads[15] 	11937
scalar tree_4_3_u09_r13_network.client[15] 	avg_time[15] 	0.004959181045
scalar tree_4_3_u09_r13_network.client[16] 	hdistance[16] 	3.2422360248447
scalar tree_4_3_u09_r13_network.client[16] 	downloads[16] 	12075
scalar tree_4_3_u09_r13_network.client[16] 	avg_time[16] 	0.004910692687
scalar tree_4_3_u09_r13_network.client[17] 	hdistance[17] 	3.2387689252916
scalar tree_4_3_u09_r13_network.client[17] 	downloads[17] 	12087
scalar tree_4_3_u09_r13_network.client[17] 	avg_time[17] 	0.0049055364
scalar tree_4_3_u09_r13_network.client[18] 	hdistance[18] 	3.2301401869159
scalar tree_4_3_u09_r13_network.client[18] 	downloads[18] 	11984
scalar tree_4_3_u09_r13_network.client[18] 	avg_time[18] 	0.0048961712
scalar tree_4_3_u09_r13_network.client[19] 	hdistance[19] 	3.2354226180474
scalar tree_4_3_u09_r13_network.client[19] 	downloads[19] 	11902
scalar tree_4_3_u09_r13_network.client[19] 	avg_time[19] 	0.004899991303
scalar tree_4_3_u09_r13_network.client[20] 	hdistance[20] 	3.2379244181196
scalar tree_4_3_u09_r13_network.client[20] 	downloads[20] 	11987
scalar tree_4_3_u09_r13_network.client[20] 	avg_time[20] 	0.004909559376
scalar tree_4_3_u09_r13_network.client[21] 	hdistance[21] 	3.3226046665563
scalar tree_4_3_u09_r13_network.client[21] 	downloads[21] 	12086
scalar tree_4_3_u09_r13_network.client[21] 	avg_time[21] 	0.005029166504
scalar tree_4_3_u09_r13_network.client[22] 	hdistance[22] 	3.267375168691
scalar tree_4_3_u09_r13_network.client[22] 	downloads[22] 	11856
scalar tree_4_3_u09_r13_network.client[22] 	avg_time[22] 	0.004951913445
scalar tree_4_3_u09_r13_network.client[23] 	hdistance[23] 	3.2361673414305
scalar tree_4_3_u09_r13_network.client[23] 	downloads[23] 	11856
scalar tree_4_3_u09_r13_network.client[23] 	avg_time[23] 	0.004905764548
scalar tree_4_3_u09_r13_network.client[24] 	hdistance[24] 	3.2595147083264
scalar tree_4_3_u09_r13_network.client[24] 	downloads[24] 	12034
scalar tree_4_3_u09_r13_network.client[24] 	avg_time[24] 	0.004939687115
scalar tree_4_3_u09_r13_network.client[25] 	hdistance[25] 	3.2456715414355
scalar tree_4_3_u09_r13_network.client[25] 	downloads[25] 	11898
scalar tree_4_3_u09_r13_network.client[25] 	avg_time[25] 	0.004917422417
scalar tree_4_3_u09_r13_network.client[26] 	hdistance[26] 	3.2695810564663
scalar tree_4_3_u09_r13_network.client[26] 	downloads[26] 	12078
scalar tree_4_3_u09_r13_network.client[26] 	avg_time[26] 	0.004955132465
scalar tree_4_3_u09_r13_network.client[27] 	hdistance[27] 	3.2047388620057
scalar tree_4_3_u09_r13_network.client[27] 	downloads[27] 	11986
scalar tree_4_3_u09_r13_network.client[27] 	avg_time[27] 	0.004858963197
scalar tree_4_3_u09_r13_network.client[28] 	hdistance[28] 	3.2261569082767
scalar tree_4_3_u09_r13_network.client[28] 	downloads[28] 	12058
scalar tree_4_3_u09_r13_network.client[28] 	avg_time[28] 	0.004889772845
scalar tree_4_3_u09_r13_network.client[29] 	hdistance[29] 	3.2435464822001
scalar tree_4_3_u09_r13_network.client[29] 	downloads[29] 	11854
scalar tree_4_3_u09_r13_network.client[29] 	avg_time[29] 	0.004912960839
scalar tree_4_3_u09_r13_network.client[30] 	hdistance[30] 	3.3077239112572
scalar tree_4_3_u09_r13_network.client[30] 	downloads[30] 	12170
scalar tree_4_3_u09_r13_network.client[30] 	avg_time[30] 	0.005012005834
scalar tree_4_3_u09_r13_network.client[31] 	hdistance[31] 	3.2384105960265
scalar tree_4_3_u09_r13_network.client[31] 	downloads[31] 	11778
scalar tree_4_3_u09_r13_network.client[31] 	avg_time[31] 	0.004905449595
scalar tree_4_3_u09_r13_network.client[32] 	hdistance[32] 	3.2506715916723
scalar tree_4_3_u09_r13_network.client[32] 	downloads[32] 	11912
scalar tree_4_3_u09_r13_network.client[32] 	avg_time[32] 	0.004922779554
scalar tree_4_3_u09_r13_network.client[33] 	hdistance[33] 	3.2559419564673
scalar tree_4_3_u09_r13_network.client[33] 	downloads[33] 	11991
scalar tree_4_3_u09_r13_network.client[33] 	avg_time[33] 	0.004930264605
scalar tree_4_3_u09_r13_network.client[34] 	hdistance[34] 	3.2194018597638
scalar tree_4_3_u09_r13_network.client[34] 	downloads[34] 	11937
scalar tree_4_3_u09_r13_network.client[34] 	avg_time[34] 	0.00487308625
scalar tree_4_3_u09_r13_network.client[35] 	hdistance[35] 	3.2374451890461
scalar tree_4_3_u09_r13_network.client[35] 	downloads[35] 	12087
scalar tree_4_3_u09_r13_network.client[35] 	avg_time[35] 	0.004906509048
scalar tree_4_3_u09_r13_network.client[36] 	hdistance[36] 	3.2442225156817
scalar tree_4_3_u09_r13_network.client[36] 	downloads[36] 	12116
scalar tree_4_3_u09_r13_network.client[36] 	avg_time[36] 	0.004920757632
scalar tree_4_3_u09_r13_network.client[37] 	hdistance[37] 	3.2460291197882
scalar tree_4_3_u09_r13_network.client[37] 	downloads[37] 	12088
scalar tree_4_3_u09_r13_network.client[37] 	avg_time[37] 	0.004918306601
scalar tree_4_3_u09_r13_network.client[38] 	hdistance[38] 	3.2452751644326
scalar tree_4_3_u09_r13_network.client[38] 	downloads[38] 	12011
scalar tree_4_3_u09_r13_network.client[38] 	avg_time[38] 	0.004918328234
scalar tree_4_3_u09_r13_network.client[39] 	hdistance[39] 	3.3451823352292
scalar tree_4_3_u09_r13_network.client[39] 	downloads[39] 	11956
scalar tree_4_3_u09_r13_network.client[39] 	avg_time[39] 	0.00505855528
