version 2
run General-184-20160820-17:01:20-2644
attr a 0.9
attr cd lce
attr configname General
attr cr lru
attr datetime 20160820-17:01:20
attr experiment General
attr fsize 1
attr inifile hw5115/scenario_A/SPR-LCE.ini
attr iterationvars "$name=tree_4_3, $un=09, $rep=5, $cd=lce, $cr=lru, $fsize=1, $a=0.9, $sl=spr, $ttl=1000, $variance=0.05"
attr iterationvars2 "$name=tree_4_3, $un=09, $rep=5, $cd=lce, $cr=lru, $fsize=1, $a=0.9, $sl=spr, $ttl=1000, $variance=0.05, $repetition=0"
attr measurement "$name=tree_4_3, $un=09, $rep=5, $cd=lce, $cr=lru, $fsize=1, $a=0.9, $sl=spr, $ttl=1000, $variance=0.05"
attr name tree_4_3
attr network networks.${name}_u${un}_r${rep}_network
attr processid 2644
attr rep 5
attr repetition 0
attr replication #0
attr resultdir results
attr runnumber 184
attr seedset 5
attr sl spr
attr ttl 1000
attr un 09
attr variance 0.05

scalar . 	a 	0.9
scalar . 	fsize 	1
scalar . 	rep 	5
scalar . 	ttl 	1000
scalar . 	un 	09
scalar . 	variance 	0.05
scalar tree_4_3_u09_r5_network.content_distribution 	repo-0 	0
scalar tree_4_3_u09_r5_network.content_distribution 	client-0 	13
scalar tree_4_3_u09_r5_network.content_distribution 	client-1 	14
scalar tree_4_3_u09_r5_network.content_distribution 	client-2 	15
scalar tree_4_3_u09_r5_network.content_distribution 	client-3 	16
scalar tree_4_3_u09_r5_network.content_distribution 	client-4 	17
scalar tree_4_3_u09_r5_network.content_distribution 	client-5 	18
scalar tree_4_3_u09_r5_network.content_distribution 	client-6 	19
scalar tree_4_3_u09_r5_network.content_distribution 	client-7 	20
scalar tree_4_3_u09_r5_network.content_distribution 	client-8 	21
scalar tree_4_3_u09_r5_network.content_distribution 	client-9 	22
scalar tree_4_3_u09_r5_network.content_distribution 	client-10 	23
scalar tree_4_3_u09_r5_network.content_distribution 	client-11 	24
scalar tree_4_3_u09_r5_network.content_distribution 	client-12 	25
scalar tree_4_3_u09_r5_network.content_distribution 	client-13 	26
scalar tree_4_3_u09_r5_network.content_distribution 	client-14 	27
scalar tree_4_3_u09_r5_network.content_distribution 	client-15 	28
scalar tree_4_3_u09_r5_network.content_distribution 	client-16 	29
scalar tree_4_3_u09_r5_network.content_distribution 	client-17 	30
scalar tree_4_3_u09_r5_network.content_distribution 	client-18 	31
scalar tree_4_3_u09_r5_network.content_distribution 	client-19 	32
scalar tree_4_3_u09_r5_network.content_distribution 	client-20 	33
scalar tree_4_3_u09_r5_network.content_distribution 	client-21 	34
scalar tree_4_3_u09_r5_network.content_distribution 	client-22 	35
scalar tree_4_3_u09_r5_network.content_distribution 	client-23 	36
scalar tree_4_3_u09_r5_network.content_distribution 	client-24 	37
scalar tree_4_3_u09_r5_network.content_distribution 	client-25 	38
scalar tree_4_3_u09_r5_network.content_distribution 	client-26 	39
scalar tree_4_3_u09_r5_network.content_distribution 	repo-0_card 	100000
scalar tree_4_3_u09_r5_network.content_distribution 	repo-0_price 	0
scalar tree_4_3_u09_r5_network.statistics 	stabilization_time 	1060.1
scalar tree_4_3_u09_r5_network.statistics 	p_hit 	0.1121898985985
scalar tree_4_3_u09_r5_network.statistics 	interests 	28092.525
scalar tree_4_3_u09_r5_network.statistics 	data 	19982.1
scalar tree_4_3_u09_r5_network.statistics 	hdistance 	3.2539535689713
scalar tree_4_3_u09_r5_network.statistics 	avg_time 	0.00492807912
scalar tree_4_3_u09_r5_network.statistics 	downloads 	324385
scalar tree_4_3_u09_r5_network.statistics 	total_cost 	0
scalar tree_4_3_u09_r5_network.statistics 	total_replicas 	100000
scalar tree_4_3_u09_r5_network.statistics 	inner_hit 	0.21037964147541
scalar tree_4_3_u09_r5_network.node[0].core_layer 	interests[0] 	259631
scalar tree_4_3_u09_r5_network.node[0].core_layer 	repo_load[0] 	256141
scalar tree_4_3_u09_r5_network.node[0].core_layer 	data[0] 	0
scalar tree_4_3_u09_r5_network.node[0].core_layer 	repo_int[0] 	256141
scalar tree_4_3_u09_r5_network.node[0].content_store 	p_hit[0] 	0.013442154442266
scalar tree_4_3_u09_r5_network.node[0].content_store 	hits[0] 	3490
scalar tree_4_3_u09_r5_network.node[0].content_store 	misses[0] 	256141
scalar tree_4_3_u09_r5_network.node[0].content_store 	decision_yes[0] 	256141
scalar tree_4_3_u09_r5_network.node[0].content_store 	decision_no[0] 	0
scalar tree_4_3_u09_r5_network.node[0].content_store 	decision_ratio[0] 	1
scalar tree_4_3_u09_r5_network.node[1].core_layer 	interests[1] 	176959
scalar tree_4_3_u09_r5_network.node[1].core_layer 	data[1] 	172429
scalar tree_4_3_u09_r5_network.node[1].content_store 	p_hit[1] 	0.025446572369871
scalar tree_4_3_u09_r5_network.node[1].content_store 	hits[1] 	4503
scalar tree_4_3_u09_r5_network.node[1].content_store 	misses[1] 	172456
scalar tree_4_3_u09_r5_network.node[1].content_store 	decision_yes[1] 	172429
scalar tree_4_3_u09_r5_network.node[1].content_store 	decision_no[1] 	0
scalar tree_4_3_u09_r5_network.node[1].content_store 	decision_ratio[1] 	1
scalar tree_4_3_u09_r5_network.node[2].core_layer 	interests[2] 	78919
scalar tree_4_3_u09_r5_network.node[2].core_layer 	data[2] 	77151
scalar tree_4_3_u09_r5_network.node[2].content_store 	p_hit[2] 	0.022390045489679
scalar tree_4_3_u09_r5_network.node[2].content_store 	hits[2] 	1767
scalar tree_4_3_u09_r5_network.node[2].content_store 	misses[2] 	77152
scalar tree_4_3_u09_r5_network.node[2].content_store 	decision_yes[2] 	77151
scalar tree_4_3_u09_r5_network.node[2].content_store 	decision_no[2] 	0
scalar tree_4_3_u09_r5_network.node[2].content_store 	decision_ratio[2] 	1
scalar tree_4_3_u09_r5_network.node[3].core_layer 	interests[3] 	10051
scalar tree_4_3_u09_r5_network.node[3].core_layer 	data[3] 	10051
scalar tree_4_3_u09_r5_network.node[3].content_store 	p_hit[3] 	0
scalar tree_4_3_u09_r5_network.node[3].content_store 	hits[3] 	0
scalar tree_4_3_u09_r5_network.node[3].content_store 	misses[3] 	10051
scalar tree_4_3_u09_r5_network.node[3].content_store 	decision_yes[3] 	10051
scalar tree_4_3_u09_r5_network.node[3].content_store 	decision_no[3] 	0
scalar tree_4_3_u09_r5_network.node[3].content_store 	decision_ratio[3] 	1
scalar tree_4_3_u09_r5_network.node[4].core_layer 	interests[4] 	50729
scalar tree_4_3_u09_r5_network.node[4].core_layer 	data[4] 	48971
scalar tree_4_3_u09_r5_network.node[4].content_store 	p_hit[4] 	0.034556171026435
scalar tree_4_3_u09_r5_network.node[4].content_store 	hits[4] 	1753
scalar tree_4_3_u09_r5_network.node[4].content_store 	misses[4] 	48976
scalar tree_4_3_u09_r5_network.node[4].content_store 	decision_yes[4] 	48971
scalar tree_4_3_u09_r5_network.node[4].content_store 	decision_no[4] 	0
scalar tree_4_3_u09_r5_network.node[4].content_store 	decision_ratio[4] 	1
scalar tree_4_3_u09_r5_network.node[5].core_layer 	interests[5] 	30475
scalar tree_4_3_u09_r5_network.node[5].core_layer 	data[5] 	29613
scalar tree_4_3_u09_r5_network.node[5].content_store 	p_hit[5] 	0.028285479901559
scalar tree_4_3_u09_r5_network.node[5].content_store 	hits[5] 	862
scalar tree_4_3_u09_r5_network.node[5].content_store 	misses[5] 	29613
scalar tree_4_3_u09_r5_network.node[5].content_store 	decision_yes[5] 	29613
scalar tree_4_3_u09_r5_network.node[5].content_store 	decision_no[5] 	0
scalar tree_4_3_u09_r5_network.node[5].content_store 	decision_ratio[5] 	1
scalar tree_4_3_u09_r5_network.node[6].core_layer 	interests[6] 	9853
scalar tree_4_3_u09_r5_network.node[6].core_layer 	data[6] 	9828
scalar tree_4_3_u09_r5_network.node[6].content_store 	p_hit[6] 	0.0026387902161778
scalar tree_4_3_u09_r5_network.node[6].content_store 	hits[6] 	26
scalar tree_4_3_u09_r5_network.node[6].content_store 	misses[6] 	9827
scalar tree_4_3_u09_r5_network.node[6].content_store 	decision_yes[6] 	9828
scalar tree_4_3_u09_r5_network.node[6].content_store 	decision_no[6] 	0
scalar tree_4_3_u09_r5_network.node[6].content_store 	decision_ratio[6] 	1
scalar tree_4_3_u09_r5_network.node[7].core_layer 	interests[7] 	40449
scalar tree_4_3_u09_r5_network.node[7].core_layer 	data[7] 	39159
scalar tree_4_3_u09_r5_network.node[7].content_store 	p_hit[7] 	0.031768399713219
scalar tree_4_3_u09_r5_network.node[7].content_store 	hits[7] 	1285
scalar tree_4_3_u09_r5_network.node[7].content_store 	misses[7] 	39164
scalar tree_4_3_u09_r5_network.node[7].content_store 	decision_yes[7] 	39159
scalar tree_4_3_u09_r5_network.node[7].content_store 	decision_no[7] 	0
scalar tree_4_3_u09_r5_network.node[7].content_store 	decision_ratio[7] 	1
scalar tree_4_3_u09_r5_network.node[8].core_layer 	interests[8] 	30488
scalar tree_4_3_u09_r5_network.node[8].core_layer 	data[8] 	29695
scalar tree_4_3_u09_r5_network.node[8].content_store 	p_hit[8] 	0.026010233534505
scalar tree_4_3_u09_r5_network.node[8].content_store 	hits[8] 	793
scalar tree_4_3_u09_r5_network.node[8].content_store 	misses[8] 	29695
scalar tree_4_3_u09_r5_network.node[8].content_store 	decision_yes[8] 	29695
scalar tree_4_3_u09_r5_network.node[8].content_store 	decision_no[8] 	0
scalar tree_4_3_u09_r5_network.node[8].content_store 	decision_ratio[8] 	1
scalar tree_4_3_u09_r5_network.node[9].core_layer 	interests[9] 	20145
scalar tree_4_3_u09_r5_network.node[9].core_layer 	data[9] 	19707
scalar tree_4_3_u09_r5_network.node[9].content_store 	p_hit[9] 	0.021742367833209
scalar tree_4_3_u09_r5_network.node[9].content_store 	hits[9] 	438
scalar tree_4_3_u09_r5_network.node[9].content_store 	misses[9] 	19707
scalar tree_4_3_u09_r5_network.node[9].content_store 	decision_yes[9] 	19707
scalar tree_4_3_u09_r5_network.node[9].content_store 	decision_no[9] 	0
scalar tree_4_3_u09_r5_network.node[9].content_store 	decision_ratio[9] 	1
scalar tree_4_3_u09_r5_network.node[10].core_layer 	interests[10] 	51144
scalar tree_4_3_u09_r5_network.node[10].core_layer 	data[10] 	49385
scalar tree_4_3_u09_r5_network.node[10].content_store 	p_hit[10] 	0.034256217738151
scalar tree_4_3_u09_r5_network.node[10].content_store 	hits[10] 	1752
scalar tree_4_3_u09_r5_network.node[10].content_store 	misses[10] 	49392
scalar tree_4_3_u09_r5_network.node[10].content_store 	decision_yes[10] 	49385
scalar tree_4_3_u09_r5_network.node[10].content_store 	decision_no[10] 	0
scalar tree_4_3_u09_r5_network.node[10].content_store 	decision_ratio[10] 	1
scalar tree_4_3_u09_r5_network.node[11].core_layer 	interests[11] 	30369
scalar tree_4_3_u09_r5_network.node[11].core_layer 	data[11] 	29517
scalar tree_4_3_u09_r5_network.node[11].content_store 	p_hit[11] 	0.027956139484343
scalar tree_4_3_u09_r5_network.node[11].content_store 	hits[11] 	849
scalar tree_4_3_u09_r5_network.node[11].content_store 	misses[11] 	29520
scalar tree_4_3_u09_r5_network.node[11].content_store 	decision_yes[11] 	29517
scalar tree_4_3_u09_r5_network.node[11].content_store 	decision_no[11] 	0
scalar tree_4_3_u09_r5_network.node[11].content_store 	decision_ratio[11] 	1
scalar tree_4_3_u09_r5_network.node[12].core_layer 	interests[12] 	10078
scalar tree_4_3_u09_r5_network.node[12].core_layer 	data[12] 	10051
scalar tree_4_3_u09_r5_network.node[12].content_store 	p_hit[12] 	0.0026791029966263
scalar tree_4_3_u09_r5_network.node[12].content_store 	hits[12] 	27
scalar tree_4_3_u09_r5_network.node[12].content_store 	misses[12] 	10051
scalar tree_4_3_u09_r5_network.node[12].content_store 	decision_yes[12] 	10051
scalar tree_4_3_u09_r5_network.node[12].content_store 	decision_no[12] 	0
scalar tree_4_3_u09_r5_network.node[12].content_store 	decision_ratio[12] 	1
scalar tree_4_3_u09_r5_network.node[13].core_layer 	interests[13] 	12014
scalar tree_4_3_u09_r5_network.node[13].core_layer 	data[13] 	10103
scalar tree_4_3_u09_r5_network.node[13].content_store 	p_hit[13] 	0.15881471616447
scalar tree_4_3_u09_r5_network.node[13].content_store 	hits[13] 	1908
scalar tree_4_3_u09_r5_network.node[13].content_store 	misses[13] 	10106
scalar tree_4_3_u09_r5_network.node[13].content_store 	decision_yes[13] 	10103
scalar tree_4_3_u09_r5_network.node[13].content_store 	decision_no[13] 	0
scalar tree_4_3_u09_r5_network.node[13].content_store 	decision_ratio[13] 	1
scalar tree_4_3_u09_r5_network.node[14].core_layer 	interests[14] 	12108
scalar tree_4_3_u09_r5_network.node[14].core_layer 	data[14] 	10128
scalar tree_4_3_u09_r5_network.node[14].content_store 	p_hit[14] 	0.16352824578791
scalar tree_4_3_u09_r5_network.node[14].content_store 	hits[14] 	1980
scalar tree_4_3_u09_r5_network.node[14].content_store 	misses[14] 	10128
scalar tree_4_3_u09_r5_network.node[14].content_store 	decision_yes[14] 	10128
scalar tree_4_3_u09_r5_network.node[14].content_store 	decision_no[14] 	0
scalar tree_4_3_u09_r5_network.node[14].content_store 	decision_ratio[14] 	1
scalar tree_4_3_u09_r5_network.node[15].core_layer 	interests[15] 	12060
scalar tree_4_3_u09_r5_network.node[15].core_layer 	data[15] 	10152
scalar tree_4_3_u09_r5_network.node[15].content_store 	p_hit[15] 	0.15812603648425
scalar tree_4_3_u09_r5_network.node[15].content_store 	hits[15] 	1907
scalar tree_4_3_u09_r5_network.node[15].content_store 	misses[15] 	10153
scalar tree_4_3_u09_r5_network.node[15].content_store 	decision_yes[15] 	10152
scalar tree_4_3_u09_r5_network.node[15].content_store 	decision_no[15] 	0
scalar tree_4_3_u09_r5_network.node[15].content_store 	decision_ratio[15] 	1
scalar tree_4_3_u09_r5_network.node[16].core_layer 	interests[16] 	12237
scalar tree_4_3_u09_r5_network.node[16].core_layer 	data[16] 	10366
scalar tree_4_3_u09_r5_network.node[16].content_store 	p_hit[16] 	0.15281523249162
scalar tree_4_3_u09_r5_network.node[16].content_store 	hits[16] 	1870
scalar tree_4_3_u09_r5_network.node[16].content_store 	misses[16] 	10367
scalar tree_4_3_u09_r5_network.node[16].content_store 	decision_yes[16] 	10366
scalar tree_4_3_u09_r5_network.node[16].content_store 	decision_no[16] 	0
scalar tree_4_3_u09_r5_network.node[16].content_store 	decision_ratio[16] 	1
scalar tree_4_3_u09_r5_network.node[17].core_layer 	interests[17] 	12223
scalar tree_4_3_u09_r5_network.node[17].core_layer 	data[17] 	10326
scalar tree_4_3_u09_r5_network.node[17].content_store 	p_hit[17] 	0.15503558864436
scalar tree_4_3_u09_r5_network.node[17].content_store 	hits[17] 	1895
scalar tree_4_3_u09_r5_network.node[17].content_store 	misses[17] 	10328
scalar tree_4_3_u09_r5_network.node[17].content_store 	decision_yes[17] 	10326
scalar tree_4_3_u09_r5_network.node[17].content_store 	decision_no[17] 	0
scalar tree_4_3_u09_r5_network.node[17].content_store 	decision_ratio[17] 	1
scalar tree_4_3_u09_r5_network.node[18].core_layer 	interests[18] 	11997
scalar tree_4_3_u09_r5_network.node[18].core_layer 	data[18] 	10112
scalar tree_4_3_u09_r5_network.node[18].content_store 	p_hit[18] 	0.15720596815871
scalar tree_4_3_u09_r5_network.node[18].content_store 	hits[18] 	1886
scalar tree_4_3_u09_r5_network.node[18].content_store 	misses[18] 	10111
scalar tree_4_3_u09_r5_network.node[18].content_store 	decision_yes[18] 	10112
scalar tree_4_3_u09_r5_network.node[18].content_store 	decision_no[18] 	0
scalar tree_4_3_u09_r5_network.node[18].content_store 	decision_ratio[18] 	1
scalar tree_4_3_u09_r5_network.node[19].core_layer 	interests[19] 	11838
scalar tree_4_3_u09_r5_network.node[19].core_layer 	data[19] 	9978
scalar tree_4_3_u09_r5_network.node[19].content_store 	p_hit[19] 	0.15703666159824
scalar tree_4_3_u09_r5_network.node[19].content_store 	hits[19] 	1859
scalar tree_4_3_u09_r5_network.node[19].content_store 	misses[19] 	9979
scalar tree_4_3_u09_r5_network.node[19].content_store 	decision_yes[19] 	9978
scalar tree_4_3_u09_r5_network.node[19].content_store 	decision_no[19] 	0
scalar tree_4_3_u09_r5_network.node[19].content_store 	decision_ratio[19] 	1
scalar tree_4_3_u09_r5_network.node[20].core_layer 	interests[20] 	11881
scalar tree_4_3_u09_r5_network.node[20].core_layer 	data[20] 	10038
scalar tree_4_3_u09_r5_network.node[20].content_store 	p_hit[20] 	0.1550374547597
scalar tree_4_3_u09_r5_network.node[20].content_store 	hits[20] 	1842
scalar tree_4_3_u09_r5_network.node[20].content_store 	misses[20] 	10039
scalar tree_4_3_u09_r5_network.node[20].content_store 	decision_yes[20] 	10038
scalar tree_4_3_u09_r5_network.node[20].content_store 	decision_no[20] 	0
scalar tree_4_3_u09_r5_network.node[20].content_store 	decision_ratio[20] 	1
scalar tree_4_3_u09_r5_network.node[21].core_layer 	interests[21] 	11714
scalar tree_4_3_u09_r5_network.node[21].core_layer 	data[21] 	9854
scalar tree_4_3_u09_r5_network.node[21].content_store 	p_hit[21] 	0.15878436059416
scalar tree_4_3_u09_r5_network.node[21].content_store 	hits[21] 	1860
scalar tree_4_3_u09_r5_network.node[21].content_store 	misses[21] 	9854
scalar tree_4_3_u09_r5_network.node[21].content_store 	decision_yes[21] 	9854
scalar tree_4_3_u09_r5_network.node[21].content_store 	decision_no[21] 	0
scalar tree_4_3_u09_r5_network.node[21].content_store 	decision_ratio[21] 	1
scalar tree_4_3_u09_r5_network.node[22].core_layer 	interests[22] 	11714
scalar tree_4_3_u09_r5_network.node[22].core_layer 	data[22] 	9888
scalar tree_4_3_u09_r5_network.node[22].content_store 	p_hit[22] 	0.15588185077685
scalar tree_4_3_u09_r5_network.node[22].content_store 	hits[22] 	1826
scalar tree_4_3_u09_r5_network.node[22].content_store 	misses[22] 	9888
scalar tree_4_3_u09_r5_network.node[22].content_store 	decision_yes[22] 	9888
scalar tree_4_3_u09_r5_network.node[22].content_store 	decision_no[22] 	0
scalar tree_4_3_u09_r5_network.node[22].content_store 	decision_ratio[22] 	1
scalar tree_4_3_u09_r5_network.node[23].core_layer 	interests[23] 	12132
scalar tree_4_3_u09_r5_network.node[23].core_layer 	data[23] 	10226
scalar tree_4_3_u09_r5_network.node[23].content_store 	p_hit[23] 	0.15710517639301
scalar tree_4_3_u09_r5_network.node[23].content_store 	hits[23] 	1906
scalar tree_4_3_u09_r5_network.node[23].content_store 	misses[23] 	10226
scalar tree_4_3_u09_r5_network.node[23].content_store 	decision_yes[23] 	10226
scalar tree_4_3_u09_r5_network.node[23].content_store 	decision_no[23] 	0
scalar tree_4_3_u09_r5_network.node[23].content_store 	decision_ratio[23] 	1
scalar tree_4_3_u09_r5_network.node[24].core_layer 	interests[24] 	12129
scalar tree_4_3_u09_r5_network.node[24].core_layer 	data[24] 	10164
scalar tree_4_3_u09_r5_network.node[24].content_store 	p_hit[24] 	0.16176106851348
scalar tree_4_3_u09_r5_network.node[24].content_store 	hits[24] 	1962
scalar tree_4_3_u09_r5_network.node[24].content_store 	misses[24] 	10167
scalar tree_4_3_u09_r5_network.node[24].content_store 	decision_yes[24] 	10164
scalar tree_4_3_u09_r5_network.node[24].content_store 	decision_no[24] 	0
scalar tree_4_3_u09_r5_network.node[24].content_store 	decision_ratio[24] 	1
scalar tree_4_3_u09_r5_network.node[25].core_layer 	interests[25] 	12105
scalar tree_4_3_u09_r5_network.node[25].core_layer 	data[25] 	10170
scalar tree_4_3_u09_r5_network.node[25].content_store 	p_hit[25] 	0.15968608013218
scalar tree_4_3_u09_r5_network.node[25].content_store 	hits[25] 	1933
scalar tree_4_3_u09_r5_network.node[25].content_store 	misses[25] 	10172
scalar tree_4_3_u09_r5_network.node[25].content_store 	decision_yes[25] 	10170
scalar tree_4_3_u09_r5_network.node[25].content_store 	decision_no[25] 	0
scalar tree_4_3_u09_r5_network.node[25].content_store 	decision_ratio[25] 	1
scalar tree_4_3_u09_r5_network.node[26].core_layer 	interests[26] 	12024
scalar tree_4_3_u09_r5_network.node[26].core_layer 	data[26] 	10209
scalar tree_4_3_u09_r5_network.node[26].content_store 	p_hit[26] 	0.15094810379242
scalar tree_4_3_u09_r5_network.node[26].content_store 	hits[26] 	1815
scalar tree_4_3_u09_r5_network.node[26].content_store 	misses[26] 	10209
scalar tree_4_3_u09_r5_network.node[26].content_store 	decision_yes[26] 	10209
scalar tree_4_3_u09_r5_network.node[26].content_store 	decision_no[26] 	0
scalar tree_4_3_u09_r5_network.node[26].content_store 	decision_ratio[26] 	1
scalar tree_4_3_u09_r5_network.node[27].core_layer 	interests[27] 	12005
scalar tree_4_3_u09_r5_network.node[27].core_layer 	data[27] 	10160
scalar tree_4_3_u09_r5_network.node[27].content_store 	p_hit[27] 	0.15343606830487
scalar tree_4_3_u09_r5_network.node[27].content_store 	hits[27] 	1842
scalar tree_4_3_u09_r5_network.node[27].content_store 	misses[27] 	10163
scalar tree_4_3_u09_r5_network.node[27].content_store 	decision_yes[27] 	10160
scalar tree_4_3_u09_r5_network.node[27].content_store 	decision_no[27] 	0
scalar tree_4_3_u09_r5_network.node[27].content_store 	decision_ratio[27] 	1
scalar tree_4_3_u09_r5_network.node[28].core_layer 	interests[28] 	11992
scalar tree_4_3_u09_r5_network.node[28].core_layer 	data[28] 	10159
scalar tree_4_3_u09_r5_network.node[28].content_store 	p_hit[28] 	0.15276851234156
scalar tree_4_3_u09_r5_network.node[28].content_store 	hits[28] 	1832
scalar tree_4_3_u09_r5_network.node[28].content_store 	misses[28] 	10160
scalar tree_4_3_u09_r5_network.node[28].content_store 	decision_yes[28] 	10159
scalar tree_4_3_u09_r5_network.node[28].content_store 	decision_no[28] 	0
scalar tree_4_3_u09_r5_network.node[28].content_store 	decision_ratio[28] 	1
scalar tree_4_3_u09_r5_network.node[29].core_layer 	interests[29] 	11970
scalar tree_4_3_u09_r5_network.node[29].core_layer 	data[29] 	10119
scalar tree_4_3_u09_r5_network.node[29].content_store 	p_hit[29] 	0.1546365914787
scalar tree_4_3_u09_r5_network.node[29].content_store 	hits[29] 	1851
scalar tree_4_3_u09_r5_network.node[29].content_store 	misses[29] 	10119
scalar tree_4_3_u09_r5_network.node[29].content_store 	decision_yes[29] 	10119
scalar tree_4_3_u09_r5_network.node[29].content_store 	decision_no[29] 	0
scalar tree_4_3_u09_r5_network.node[29].content_store 	decision_ratio[29] 	1
scalar tree_4_3_u09_r5_network.node[30].core_layer 	interests[30] 	11943
scalar tree_4_3_u09_r5_network.node[30].core_layer 	data[30] 	9986
scalar tree_4_3_u09_r5_network.node[30].content_store 	p_hit[30] 	0.16377794523989
scalar tree_4_3_u09_r5_network.node[30].content_store 	hits[30] 	1956
scalar tree_4_3_u09_r5_network.node[30].content_store 	misses[30] 	9987
scalar tree_4_3_u09_r5_network.node[30].content_store 	decision_yes[30] 	9986
scalar tree_4_3_u09_r5_network.node[30].content_store 	decision_no[30] 	0
scalar tree_4_3_u09_r5_network.node[30].content_store 	decision_ratio[30] 	1
scalar tree_4_3_u09_r5_network.node[31].core_layer 	interests[31] 	11905
scalar tree_4_3_u09_r5_network.node[31].core_layer 	data[31] 	10029
scalar tree_4_3_u09_r5_network.node[31].content_store 	p_hit[31] 	0.15741285174297
scalar tree_4_3_u09_r5_network.node[31].content_store 	hits[31] 	1874
scalar tree_4_3_u09_r5_network.node[31].content_store 	misses[31] 	10031
scalar tree_4_3_u09_r5_network.node[31].content_store 	decision_yes[31] 	10029
scalar tree_4_3_u09_r5_network.node[31].content_store 	decision_no[31] 	0
scalar tree_4_3_u09_r5_network.node[31].content_store 	decision_ratio[31] 	1
scalar tree_4_3_u09_r5_network.node[32].core_layer 	interests[32] 	12119
scalar tree_4_3_u09_r5_network.node[32].core_layer 	data[32] 	10227
scalar tree_4_3_u09_r5_network.node[32].content_store 	p_hit[32] 	0.15595346150672
scalar tree_4_3_u09_r5_network.node[32].content_store 	hits[32] 	1890
scalar tree_4_3_u09_r5_network.node[32].content_store 	misses[32] 	10229
scalar tree_4_3_u09_r5_network.node[32].content_store 	decision_yes[32] 	10227
scalar tree_4_3_u09_r5_network.node[32].content_store 	decision_no[32] 	0
scalar tree_4_3_u09_r5_network.node[32].content_store 	decision_ratio[32] 	1
scalar tree_4_3_u09_r5_network.node[33].core_layer 	interests[33] 	12019
scalar tree_4_3_u09_r5_network.node[33].core_layer 	data[33] 	10188
scalar tree_4_3_u09_r5_network.node[33].content_store 	p_hit[33] 	0.15225892337133
scalar tree_4_3_u09_r5_network.node[33].content_store 	hits[33] 	1830
scalar tree_4_3_u09_r5_network.node[33].content_store 	misses[33] 	10189
scalar tree_4_3_u09_r5_network.node[33].content_store 	decision_yes[33] 	10188
scalar tree_4_3_u09_r5_network.node[33].content_store 	decision_no[33] 	0
scalar tree_4_3_u09_r5_network.node[33].content_store 	decision_ratio[33] 	1
scalar tree_4_3_u09_r5_network.node[34].core_layer 	interests[34] 	12160
scalar tree_4_3_u09_r5_network.node[34].core_layer 	data[34] 	10312
scalar tree_4_3_u09_r5_network.node[34].content_store 	p_hit[34] 	0.15197368421053
scalar tree_4_3_u09_r5_network.node[34].content_store 	hits[34] 	1848
scalar tree_4_3_u09_r5_network.node[34].content_store 	misses[34] 	10312
scalar tree_4_3_u09_r5_network.node[34].content_store 	decision_yes[34] 	10312
scalar tree_4_3_u09_r5_network.node[34].content_store 	decision_no[34] 	0
scalar tree_4_3_u09_r5_network.node[34].content_store 	decision_ratio[34] 	1
scalar tree_4_3_u09_r5_network.node[35].core_layer 	interests[35] 	12117
scalar tree_4_3_u09_r5_network.node[35].core_layer 	data[35] 	10227
scalar tree_4_3_u09_r5_network.node[35].content_store 	p_hit[35] 	0.15589667409425
scalar tree_4_3_u09_r5_network.node[35].content_store 	hits[35] 	1889
scalar tree_4_3_u09_r5_network.node[35].content_store 	misses[35] 	10228
scalar tree_4_3_u09_r5_network.node[35].content_store 	decision_yes[35] 	10227
scalar tree_4_3_u09_r5_network.node[35].content_store 	decision_no[35] 	0
scalar tree_4_3_u09_r5_network.node[35].content_store 	decision_ratio[35] 	1
scalar tree_4_3_u09_r5_network.node[36].core_layer 	interests[36] 	12084
scalar tree_4_3_u09_r5_network.node[36].core_layer 	data[36] 	10214
scalar tree_4_3_u09_r5_network.node[36].content_store 	p_hit[36] 	0.15466732869911
scalar tree_4_3_u09_r5_network.node[36].content_store 	hits[36] 	1869
scalar tree_4_3_u09_r5_network.node[36].content_store 	misses[36] 	10215
scalar tree_4_3_u09_r5_network.node[36].content_store 	decision_yes[36] 	10214
scalar tree_4_3_u09_r5_network.node[36].content_store 	decision_no[36] 	0
scalar tree_4_3_u09_r5_network.node[36].content_store 	decision_ratio[36] 	1
scalar tree_4_3_u09_r5_network.node[37].core_layer 	interests[37] 	12153
scalar tree_4_3_u09_r5_network.node[37].core_layer 	data[37] 	10386
scalar tree_4_3_u09_r5_network.node[37].content_store 	p_hit[37] 	0.14539619846951
scalar tree_4_3_u09_r5_network.node[37].content_store 	hits[37] 	1767
scalar tree_4_3_u09_r5_network.node[37].content_store 	misses[37] 	10386
scalar tree_4_3_u09_r5_network.node[37].content_store 	decision_yes[37] 	10386
scalar tree_4_3_u09_r5_network.node[37].content_store 	decision_no[37] 	0
scalar tree_4_3_u09_r5_network.node[37].content_store 	decision_ratio[37] 	1
scalar tree_4_3_u09_r5_network.node[38].core_layer 	interests[38] 	11799
scalar tree_4_3_u09_r5_network.node[38].core_layer 	data[38] 	9928
scalar tree_4_3_u09_r5_network.node[38].content_store 	p_hit[38] 	0.15848800745826
scalar tree_4_3_u09_r5_network.node[38].content_store 	hits[38] 	1870
scalar tree_4_3_u09_r5_network.node[38].content_store 	misses[38] 	9929
scalar tree_4_3_u09_r5_network.node[38].content_store 	decision_yes[38] 	9928
scalar tree_4_3_u09_r5_network.node[38].content_store 	decision_no[38] 	0
scalar tree_4_3_u09_r5_network.node[38].content_store 	decision_ratio[38] 	1
scalar tree_4_3_u09_r5_network.node[39].core_layer 	interests[39] 	11969
scalar tree_4_3_u09_r5_network.node[39].core_layer 	data[39] 	10078
scalar tree_4_3_u09_r5_network.node[39].content_store 	p_hit[39] 	0.15799147798479
scalar tree_4_3_u09_r5_network.node[39].content_store 	hits[39] 	1891
scalar tree_4_3_u09_r5_network.node[39].content_store 	misses[39] 	10078
scalar tree_4_3_u09_r5_network.node[39].content_store 	decision_yes[39] 	10078
scalar tree_4_3_u09_r5_network.node[39].content_store 	decision_no[39] 	0
scalar tree_4_3_u09_r5_network.node[39].content_store 	decision_ratio[39] 	1
scalar tree_4_3_u09_r5_network.client[13] 	hdistance[13] 	3.234618266589
scalar tree_4_3_u09_r5_network.client[13] 	downloads[13] 	12011
scalar tree_4_3_u09_r5_network.client[13] 	avg_time[13] 	0.004896306516
scalar tree_4_3_u09_r5_network.client[14] 	hdistance[14] 	3.2087875784605
scalar tree_4_3_u09_r5_network.client[14] 	downloads[14] 	12108
scalar tree_4_3_u09_r5_network.client[14] 	avg_time[14] 	0.004859313327
scalar tree_4_3_u09_r5_network.client[15] 	hdistance[15] 	3.2360063023468
scalar tree_4_3_u09_r5_network.client[15] 	downloads[15] 	12059
scalar tree_4_3_u09_r5_network.client[15] 	avg_time[15] 	0.004899438393
scalar tree_4_3_u09_r5_network.client[16] 	hdistance[16] 	3.2540863027133
scalar tree_4_3_u09_r5_network.client[16] 	downloads[16] 	12236
scalar tree_4_3_u09_r5_network.client[16] 	avg_time[16] 	0.004924078732
scalar tree_4_3_u09_r5_network.client[17] 	hdistance[17] 	3.2522706816136
scalar tree_4_3_u09_r5_network.client[17] 	downloads[17] 	12221
scalar tree_4_3_u09_r5_network.client[17] 	avg_time[17] 	0.004924598293
scalar tree_4_3_u09_r5_network.client[18] 	hdistance[18] 	3.2545424237373
scalar tree_4_3_u09_r5_network.client[18] 	downloads[18] 	11998
scalar tree_4_3_u09_r5_network.client[18] 	avg_time[18] 	0.004924177407
scalar tree_4_3_u09_r5_network.client[19] 	hdistance[19] 	3.2379825969418
scalar tree_4_3_u09_r5_network.client[19] 	downloads[19] 	11837
scalar tree_4_3_u09_r5_network.client[19] 	avg_time[19] 	0.00490223978
scalar tree_4_3_u09_r5_network.client[20] 	hdistance[20] 	3.2503367003367
scalar tree_4_3_u09_r5_network.client[20] 	downloads[20] 	11880
scalar tree_4_3_u09_r5_network.client[20] 	avg_time[20] 	0.004924671291
scalar tree_4_3_u09_r5_network.client[21] 	hdistance[21] 	3.2928120198054
scalar tree_4_3_u09_r5_network.client[21] 	downloads[21] 	11714
scalar tree_4_3_u09_r5_network.client[21] 	avg_time[21] 	0.00498007568
scalar tree_4_3_u09_r5_network.client[22] 	hdistance[22] 	3.2450913436913
scalar tree_4_3_u09_r5_network.client[22] 	downloads[22] 	11714
scalar tree_4_3_u09_r5_network.client[22] 	avg_time[22] 	0.004913141972
scalar tree_4_3_u09_r5_network.client[23] 	hdistance[23] 	3.2326904055391
scalar tree_4_3_u09_r5_network.client[23] 	downloads[23] 	12132
scalar tree_4_3_u09_r5_network.client[23] 	avg_time[23] 	0.004898330779
scalar tree_4_3_u09_r5_network.client[24] 	hdistance[24] 	3.2309087910275
scalar tree_4_3_u09_r5_network.client[24] 	downloads[24] 	12126
scalar tree_4_3_u09_r5_network.client[24] 	avg_time[24] 	0.004888107004
scalar tree_4_3_u09_r5_network.client[25] 	hdistance[25] 	3.2382880277617
scalar tree_4_3_u09_r5_network.client[25] 	downloads[25] 	12103
scalar tree_4_3_u09_r5_network.client[25] 	avg_time[25] 	0.004899260747
scalar tree_4_3_u09_r5_network.client[26] 	hdistance[26] 	3.2828509647372
scalar tree_4_3_u09_r5_network.client[26] 	downloads[26] 	12024
scalar tree_4_3_u09_r5_network.client[26] 	avg_time[26] 	0.004976211245
scalar tree_4_3_u09_r5_network.client[27] 	hdistance[27] 	3.2655390768205
scalar tree_4_3_u09_r5_network.client[27] 	downloads[27] 	12002
scalar tree_4_3_u09_r5_network.client[27] 	avg_time[27] 	0.004950966228
scalar tree_4_3_u09_r5_network.client[28] 	hdistance[28] 	3.2742890501209
scalar tree_4_3_u09_r5_network.client[28] 	downloads[28] 	11991
scalar tree_4_3_u09_r5_network.client[28] 	avg_time[28] 	0.004964321192
scalar tree_4_3_u09_r5_network.client[29] 	hdistance[29] 	3.2657477025898
scalar tree_4_3_u09_r5_network.client[29] 	downloads[29] 	11970
scalar tree_4_3_u09_r5_network.client[29] 	avg_time[29] 	0.004948375854
scalar tree_4_3_u09_r5_network.client[30] 	hdistance[30] 	3.2311170658181
scalar tree_4_3_u09_r5_network.client[30] 	downloads[30] 	11942
scalar tree_4_3_u09_r5_network.client[30] 	avg_time[30] 	0.00490280196
scalar tree_4_3_u09_r5_network.client[31] 	hdistance[31] 	3.238175249937
scalar tree_4_3_u09_r5_network.client[31] 	downloads[31] 	11903
scalar tree_4_3_u09_r5_network.client[31] 	avg_time[31] 	0.004904118245
scalar tree_4_3_u09_r5_network.client[32] 	hdistance[32] 	3.2365271931996
scalar tree_4_3_u09_r5_network.client[32] 	downloads[32] 	12117
scalar tree_4_3_u09_r5_network.client[32] 	avg_time[32] 	0.004901384587
scalar tree_4_3_u09_r5_network.client[33] 	hdistance[33] 	3.2578632051922
scalar tree_4_3_u09_r5_network.client[33] 	downloads[33] 	12018
scalar tree_4_3_u09_r5_network.client[33] 	avg_time[33] 	0.00493223802
scalar tree_4_3_u09_r5_network.client[34] 	hdistance[34] 	3.2582236842105
scalar tree_4_3_u09_r5_network.client[34] 	downloads[34] 	12160
scalar tree_4_3_u09_r5_network.client[34] 	avg_time[34] 	0.00493284301
scalar tree_4_3_u09_r5_network.client[35] 	hdistance[35] 	3.2563552327501
scalar tree_4_3_u09_r5_network.client[35] 	downloads[35] 	12116
scalar tree_4_3_u09_r5_network.client[35] 	avg_time[35] 	0.004938147457
scalar tree_4_3_u09_r5_network.client[36] 	hdistance[36] 	3.2615244558471
scalar tree_4_3_u09_r5_network.client[36] 	downloads[36] 	12083
scalar tree_4_3_u09_r5_network.client[36] 	avg_time[36] 	0.004943171941
scalar tree_4_3_u09_r5_network.client[37] 	hdistance[37] 	3.2822348391344
scalar tree_4_3_u09_r5_network.client[37] 	downloads[37] 	12153
scalar tree_4_3_u09_r5_network.client[37] 	avg_time[37] 	0.004970090479
scalar tree_4_3_u09_r5_network.client[38] 	hdistance[38] 	3.2433463298864
scalar tree_4_3_u09_r5_network.client[38] 	downloads[38] 	11798
scalar tree_4_3_u09_r5_network.client[38] 	avg_time[38] 	0.004916701311
scalar tree_4_3_u09_r5_network.client[39] 	hdistance[39] 	3.3345308714178
scalar tree_4_3_u09_r5_network.client[39] 	downloads[39] 	11969
scalar tree_4_3_u09_r5_network.client[39] 	avg_time[39] 	0.0050430248
