version 2
run General-59-20160820-07:39:11-856
attr a 0.9
attr cd lcd
attr configname General
attr cr lru
attr datetime 20160820-07:39:11
attr experiment General
attr fsize 1
attr inifile hw5115/scenario_A/SPR-LCD.ini
attr iterationvars "$name=tree_4_3, $un=02, $rep=20, $cd=lcd, $cr=lru, $fsize=1, $a=0.9, $sl=spr, $ttl=1000, $variance=0.05"
attr iterationvars2 "$name=tree_4_3, $un=02, $rep=20, $cd=lcd, $cr=lru, $fsize=1, $a=0.9, $sl=spr, $ttl=1000, $variance=0.05, $repetition=0"
attr measurement "$name=tree_4_3, $un=02, $rep=20, $cd=lcd, $cr=lru, $fsize=1, $a=0.9, $sl=spr, $ttl=1000, $variance=0.05"
attr name tree_4_3
attr network networks.${name}_u${un}_r${rep}_network
attr processid 856
attr rep 20
attr repetition 0
attr replication #0
attr resultdir results
attr runnumber 59
attr seedset 20
attr sl spr
attr ttl 1000
attr un 02
attr variance 0.05

scalar . 	a 	0.9
scalar . 	fsize 	1
scalar . 	rep 	20
scalar . 	ttl 	1000
scalar . 	un 	02
scalar . 	variance 	0.05
scalar tree_4_3_u02_r20_network.content_distribution 	repo-0 	0
scalar tree_4_3_u02_r20_network.content_distribution 	client-0 	13
scalar tree_4_3_u02_r20_network.content_distribution 	client-1 	14
scalar tree_4_3_u02_r20_network.content_distribution 	client-2 	15
scalar tree_4_3_u02_r20_network.content_distribution 	client-3 	16
scalar tree_4_3_u02_r20_network.content_distribution 	client-4 	17
scalar tree_4_3_u02_r20_network.content_distribution 	client-5 	18
scalar tree_4_3_u02_r20_network.content_distribution 	client-6 	19
scalar tree_4_3_u02_r20_network.content_distribution 	client-7 	20
scalar tree_4_3_u02_r20_network.content_distribution 	client-8 	21
scalar tree_4_3_u02_r20_network.content_distribution 	client-9 	22
scalar tree_4_3_u02_r20_network.content_distribution 	client-10 	23
scalar tree_4_3_u02_r20_network.content_distribution 	client-11 	24
scalar tree_4_3_u02_r20_network.content_distribution 	client-12 	25
scalar tree_4_3_u02_r20_network.content_distribution 	client-13 	26
scalar tree_4_3_u02_r20_network.content_distribution 	client-14 	27
scalar tree_4_3_u02_r20_network.content_distribution 	client-15 	28
scalar tree_4_3_u02_r20_network.content_distribution 	client-16 	29
scalar tree_4_3_u02_r20_network.content_distribution 	client-17 	30
scalar tree_4_3_u02_r20_network.content_distribution 	client-18 	31
scalar tree_4_3_u02_r20_network.content_distribution 	client-19 	32
scalar tree_4_3_u02_r20_network.content_distribution 	client-20 	33
scalar tree_4_3_u02_r20_network.content_distribution 	client-21 	34
scalar tree_4_3_u02_r20_network.content_distribution 	client-22 	35
scalar tree_4_3_u02_r20_network.content_distribution 	client-23 	36
scalar tree_4_3_u02_r20_network.content_distribution 	client-24 	37
scalar tree_4_3_u02_r20_network.content_distribution 	client-25 	38
scalar tree_4_3_u02_r20_network.content_distribution 	client-26 	39
scalar tree_4_3_u02_r20_network.content_distribution 	repo-0_card 	100000
scalar tree_4_3_u02_r20_network.content_distribution 	repo-0_price 	0
scalar tree_4_3_u02_r20_network.statistics 	stabilization_time 	1066.7
scalar tree_4_3_u02_r20_network.statistics 	p_hit 	0.18798090723241
scalar tree_4_3_u02_r20_network.statistics 	interests 	25513.35
scalar tree_4_3_u02_r20_network.statistics 	data 	17399.05
scalar tree_4_3_u02_r20_network.statistics 	hdistance 	2.8362286815906
scalar tree_4_3_u02_r20_network.statistics 	avg_time 	0.004288557627
scalar tree_4_3_u02_r20_network.statistics 	downloads 	324570
scalar tree_4_3_u02_r20_network.statistics 	total_cost 	0
scalar tree_4_3_u02_r20_network.statistics 	total_replicas 	100000
scalar tree_4_3_u02_r20_network.statistics 	inner_hit 	0.30811535262039
scalar tree_4_3_u02_r20_network.node[0].core_layer 	interests[0] 	226846
scalar tree_4_3_u02_r20_network.node[0].core_layer 	repo_load[0] 	224565
scalar tree_4_3_u02_r20_network.node[0].core_layer 	data[0] 	0
scalar tree_4_3_u02_r20_network.node[0].core_layer 	repo_int[0] 	224565
scalar tree_4_3_u02_r20_network.node[0].content_store 	p_hit[0] 	0.01005527979334
scalar tree_4_3_u02_r20_network.node[0].content_store 	hits[0] 	2281
scalar tree_4_3_u02_r20_network.node[0].content_store 	misses[0] 	224565
scalar tree_4_3_u02_r20_network.node[0].content_store 	decision_yes[0] 	224565
scalar tree_4_3_u02_r20_network.node[0].content_store 	decision_no[0] 	0
scalar tree_4_3_u02_r20_network.node[0].content_store 	decision_ratio[0] 	1
scalar tree_4_3_u02_r20_network.node[1].core_layer 	interests[1] 	76876
scalar tree_4_3_u02_r20_network.node[1].core_layer 	data[1] 	75524
scalar tree_4_3_u02_r20_network.node[1].content_store 	p_hit[1] 	0.0175477392164
scalar tree_4_3_u02_r20_network.node[1].content_store 	hits[1] 	1349
scalar tree_4_3_u02_r20_network.node[1].content_store 	misses[1] 	75527
scalar tree_4_3_u02_r20_network.node[1].content_store 	decision_yes[1] 	775
scalar tree_4_3_u02_r20_network.node[1].content_store 	decision_no[1] 	74749
scalar tree_4_3_u02_r20_network.node[1].content_store 	decision_ratio[1] 	0.010261638684392
scalar tree_4_3_u02_r20_network.node[2].core_layer 	interests[2] 	76872
scalar tree_4_3_u02_r20_network.node[2].core_layer 	data[2] 	75506
scalar tree_4_3_u02_r20_network.node[2].content_store 	p_hit[2] 	0.017756790508898
scalar tree_4_3_u02_r20_network.node[2].content_store 	hits[2] 	1365
scalar tree_4_3_u02_r20_network.node[2].content_store 	misses[2] 	75507
scalar tree_4_3_u02_r20_network.node[2].content_store 	decision_yes[2] 	764
scalar tree_4_3_u02_r20_network.node[2].content_store 	decision_no[2] 	74742
scalar tree_4_3_u02_r20_network.node[2].content_store 	decision_ratio[2] 	0.010118401186661
scalar tree_4_3_u02_r20_network.node[3].core_layer 	interests[3] 	77108
scalar tree_4_3_u02_r20_network.node[3].core_layer 	data[3] 	75816
scalar tree_4_3_u02_r20_network.node[3].content_store 	p_hit[3] 	0.016742750427971
scalar tree_4_3_u02_r20_network.node[3].content_store 	hits[3] 	1291
scalar tree_4_3_u02_r20_network.node[3].content_store 	misses[3] 	75817
scalar tree_4_3_u02_r20_network.node[3].content_store 	decision_yes[3] 	742
scalar tree_4_3_u02_r20_network.node[3].content_store 	decision_no[3] 	75074
scalar tree_4_3_u02_r20_network.node[3].content_store 	decision_ratio[3] 	0.009786852379445
scalar tree_4_3_u02_r20_network.node[4].core_layer 	interests[4] 	35240
scalar tree_4_3_u02_r20_network.node[4].core_layer 	data[4] 	34085
scalar tree_4_3_u02_r20_network.node[4].content_store 	p_hit[4] 	0.0327752553916
scalar tree_4_3_u02_r20_network.node[4].content_store 	hits[4] 	1155
scalar tree_4_3_u02_r20_network.node[4].content_store 	misses[4] 	34085
scalar tree_4_3_u02_r20_network.node[4].content_store 	decision_yes[4] 	528
scalar tree_4_3_u02_r20_network.node[4].content_store 	decision_no[4] 	33557
scalar tree_4_3_u02_r20_network.node[4].content_store 	decision_ratio[4] 	0.015490685052076
scalar tree_4_3_u02_r20_network.node[5].core_layer 	interests[5] 	17725
scalar tree_4_3_u02_r20_network.node[5].core_layer 	data[5] 	17219
scalar tree_4_3_u02_r20_network.node[5].content_store 	p_hit[5] 	0.028547249647391
scalar tree_4_3_u02_r20_network.node[5].content_store 	hits[5] 	506
scalar tree_4_3_u02_r20_network.node[5].content_store 	misses[5] 	17219
scalar tree_4_3_u02_r20_network.node[5].content_store 	decision_yes[5] 	367
scalar tree_4_3_u02_r20_network.node[5].content_store 	decision_no[5] 	16852
scalar tree_4_3_u02_r20_network.node[5].content_store 	decision_ratio[5] 	0.021313665137348
scalar tree_4_3_u02_r20_network.node[6].core_layer 	interests[6] 	26367
scalar tree_4_3_u02_r20_network.node[6].core_layer 	data[6] 	25572
scalar tree_4_3_u02_r20_network.node[6].content_store 	p_hit[6] 	0.030113399324914
scalar tree_4_3_u02_r20_network.node[6].content_store 	hits[6] 	794
scalar tree_4_3_u02_r20_network.node[6].content_store 	misses[6] 	25573
scalar tree_4_3_u02_r20_network.node[6].content_store 	decision_yes[6] 	454
scalar tree_4_3_u02_r20_network.node[6].content_store 	decision_no[6] 	25118
scalar tree_4_3_u02_r20_network.node[6].content_store 	decision_ratio[6] 	0.017753793211325
scalar tree_4_3_u02_r20_network.node[7].core_layer 	interests[7] 	26300
scalar tree_4_3_u02_r20_network.node[7].core_layer 	data[7] 	25453
scalar tree_4_3_u02_r20_network.node[7].content_store 	p_hit[7] 	0.032205323193916
scalar tree_4_3_u02_r20_network.node[7].content_store 	hits[7] 	847
scalar tree_4_3_u02_r20_network.node[7].content_store 	misses[7] 	25453
scalar tree_4_3_u02_r20_network.node[7].content_store 	decision_yes[7] 	453
scalar tree_4_3_u02_r20_network.node[7].content_store 	decision_no[7] 	25000
scalar tree_4_3_u02_r20_network.node[7].content_store 	decision_ratio[7] 	0.017797509134483
scalar tree_4_3_u02_r20_network.node[8].core_layer 	interests[8] 	26550
scalar tree_4_3_u02_r20_network.node[8].core_layer 	data[8] 	25722
scalar tree_4_3_u02_r20_network.node[8].content_store 	p_hit[8] 	0.031186440677966
scalar tree_4_3_u02_r20_network.node[8].content_store 	hits[8] 	828
scalar tree_4_3_u02_r20_network.node[8].content_store 	misses[8] 	25722
scalar tree_4_3_u02_r20_network.node[8].content_store 	decision_yes[8] 	476
scalar tree_4_3_u02_r20_network.node[8].content_store 	decision_no[8] 	25246
scalar tree_4_3_u02_r20_network.node[8].content_store 	decision_ratio[8] 	0.018505559443278
scalar tree_4_3_u02_r20_network.node[9].core_layer 	interests[9] 	26510
scalar tree_4_3_u02_r20_network.node[9].core_layer 	data[9] 	25697
scalar tree_4_3_u02_r20_network.node[9].content_store 	p_hit[9] 	0.030629950961901
scalar tree_4_3_u02_r20_network.node[9].content_store 	hits[9] 	812
scalar tree_4_3_u02_r20_network.node[9].content_store 	misses[9] 	25698
scalar tree_4_3_u02_r20_network.node[9].content_store 	decision_yes[9] 	436
scalar tree_4_3_u02_r20_network.node[9].content_store 	decision_no[9] 	25261
scalar tree_4_3_u02_r20_network.node[9].content_store 	decision_ratio[9] 	0.016966961123867
scalar tree_4_3_u02_r20_network.node[10].core_layer 	interests[10] 	35488
scalar tree_4_3_u02_r20_network.node[10].core_layer 	data[10] 	34363
scalar tree_4_3_u02_r20_network.node[10].content_store 	p_hit[10] 	0.031672678088368
scalar tree_4_3_u02_r20_network.node[10].content_store 	hits[10] 	1124
scalar tree_4_3_u02_r20_network.node[10].content_store 	misses[10] 	34364
scalar tree_4_3_u02_r20_network.node[10].content_store 	decision_yes[10] 	500
scalar tree_4_3_u02_r20_network.node[10].content_store 	decision_no[10] 	33863
scalar tree_4_3_u02_r20_network.node[10].content_store 	decision_ratio[10] 	0.014550534004598
scalar tree_4_3_u02_r20_network.node[11].core_layer 	interests[11] 	26364
scalar tree_4_3_u02_r20_network.node[11].core_layer 	data[11] 	25559
scalar tree_4_3_u02_r20_network.node[11].content_store 	p_hit[11] 	0.03053406159915
scalar tree_4_3_u02_r20_network.node[11].content_store 	hits[11] 	805
scalar tree_4_3_u02_r20_network.node[11].content_store 	misses[11] 	25559
scalar tree_4_3_u02_r20_network.node[11].content_store 	decision_yes[11] 	429
scalar tree_4_3_u02_r20_network.node[11].content_store 	decision_no[11] 	25130
scalar tree_4_3_u02_r20_network.node[11].content_store 	decision_ratio[11] 	0.016784694236864
scalar tree_4_3_u02_r20_network.node[12].core_layer 	interests[12] 	17716
scalar tree_4_3_u02_r20_network.node[12].core_layer 	data[12] 	17186
scalar tree_4_3_u02_r20_network.node[12].content_store 	p_hit[12] 	0.029916459697449
scalar tree_4_3_u02_r20_network.node[12].content_store 	hits[12] 	530
scalar tree_4_3_u02_r20_network.node[12].content_store 	misses[12] 	17186
scalar tree_4_3_u02_r20_network.node[12].content_store 	decision_yes[12] 	362
scalar tree_4_3_u02_r20_network.node[12].content_store 	decision_no[12] 	16824
scalar tree_4_3_u02_r20_network.node[12].content_store 	decision_ratio[12] 	0.021063656464564
scalar tree_4_3_u02_r20_network.node[13].core_layer 	interests[13] 	11828
scalar tree_4_3_u02_r20_network.node[13].core_layer 	data[13] 	8673
scalar tree_4_3_u02_r20_network.node[13].content_store 	p_hit[13] 	0.26673993912749
scalar tree_4_3_u02_r20_network.node[13].content_store 	hits[13] 	3155
scalar tree_4_3_u02_r20_network.node[13].content_store 	misses[13] 	8673
scalar tree_4_3_u02_r20_network.node[13].content_store 	decision_yes[13] 	305
scalar tree_4_3_u02_r20_network.node[13].content_store 	decision_no[13] 	8368
scalar tree_4_3_u02_r20_network.node[13].content_store 	decision_ratio[13] 	0.035166609016488
scalar tree_4_3_u02_r20_network.node[14].core_layer 	interests[14] 	12054
scalar tree_4_3_u02_r20_network.node[14].core_layer 	data[14] 	8870
scalar tree_4_3_u02_r20_network.node[14].content_store 	p_hit[14] 	0.26414468226315
scalar tree_4_3_u02_r20_network.node[14].content_store 	hits[14] 	3184
scalar tree_4_3_u02_r20_network.node[14].content_store 	misses[14] 	8870
scalar tree_4_3_u02_r20_network.node[14].content_store 	decision_yes[14] 	279
scalar tree_4_3_u02_r20_network.node[14].content_store 	decision_no[14] 	8591
scalar tree_4_3_u02_r20_network.node[14].content_store 	decision_ratio[14] 	0.031454340473506
scalar tree_4_3_u02_r20_network.node[15].core_layer 	interests[15] 	12008
scalar tree_4_3_u02_r20_network.node[15].core_layer 	data[15] 	8871
scalar tree_4_3_u02_r20_network.node[15].content_store 	p_hit[15] 	0.26124250499667
scalar tree_4_3_u02_r20_network.node[15].content_store 	hits[15] 	3137
scalar tree_4_3_u02_r20_network.node[15].content_store 	misses[15] 	8871
scalar tree_4_3_u02_r20_network.node[15].content_store 	decision_yes[15] 	281
scalar tree_4_3_u02_r20_network.node[15].content_store 	decision_no[15] 	8590
scalar tree_4_3_u02_r20_network.node[15].content_store 	decision_ratio[15] 	0.031676248450006
scalar tree_4_3_u02_r20_network.node[16].core_layer 	interests[16] 	11843
scalar tree_4_3_u02_r20_network.node[16].core_layer 	data[16] 	8826
scalar tree_4_3_u02_r20_network.node[16].content_store 	p_hit[16] 	0.25474964113823
scalar tree_4_3_u02_r20_network.node[16].content_store 	hits[16] 	3017
scalar tree_4_3_u02_r20_network.node[16].content_store 	misses[16] 	8826
scalar tree_4_3_u02_r20_network.node[16].content_store 	decision_yes[16] 	290
scalar tree_4_3_u02_r20_network.node[16].content_store 	decision_no[16] 	8536
scalar tree_4_3_u02_r20_network.node[16].content_store 	decision_ratio[16] 	0.032857466576025
scalar tree_4_3_u02_r20_network.node[17].core_layer 	interests[17] 	12150
scalar tree_4_3_u02_r20_network.node[17].core_layer 	data[17] 	8879
scalar tree_4_3_u02_r20_network.node[17].content_store 	p_hit[17] 	0.26913580246914
scalar tree_4_3_u02_r20_network.node[17].content_store 	hits[17] 	3270
scalar tree_4_3_u02_r20_network.node[17].content_store 	misses[17] 	8880
scalar tree_4_3_u02_r20_network.node[17].content_store 	decision_yes[17] 	257
scalar tree_4_3_u02_r20_network.node[17].content_store 	decision_no[17] 	8622
scalar tree_4_3_u02_r20_network.node[17].content_store 	decision_ratio[17] 	0.02894470097984
scalar tree_4_3_u02_r20_network.node[18].core_layer 	interests[18] 	12100
scalar tree_4_3_u02_r20_network.node[18].core_layer 	data[18] 	8846
scalar tree_4_3_u02_r20_network.node[18].content_store 	p_hit[18] 	0.26884297520661
scalar tree_4_3_u02_r20_network.node[18].content_store 	hits[18] 	3253
scalar tree_4_3_u02_r20_network.node[18].content_store 	misses[18] 	8847
scalar tree_4_3_u02_r20_network.node[18].content_store 	decision_yes[18] 	249
scalar tree_4_3_u02_r20_network.node[18].content_store 	decision_no[18] 	8597
scalar tree_4_3_u02_r20_network.node[18].content_store 	decision_ratio[18] 	0.02814831562288
scalar tree_4_3_u02_r20_network.node[19].core_layer 	interests[19] 	11875
scalar tree_4_3_u02_r20_network.node[19].core_layer 	data[19] 	8768
scalar tree_4_3_u02_r20_network.node[19].content_store 	p_hit[19] 	0.26164210526316
scalar tree_4_3_u02_r20_network.node[19].content_store 	hits[19] 	3107
scalar tree_4_3_u02_r20_network.node[19].content_store 	misses[19] 	8768
scalar tree_4_3_u02_r20_network.node[19].content_store 	decision_yes[19] 	263
scalar tree_4_3_u02_r20_network.node[19].content_store 	decision_no[19] 	8505
scalar tree_4_3_u02_r20_network.node[19].content_store 	decision_ratio[19] 	0.029995437956204
scalar tree_4_3_u02_r20_network.node[20].core_layer 	interests[20] 	12035
scalar tree_4_3_u02_r20_network.node[20].core_layer 	data[20] 	8752
scalar tree_4_3_u02_r20_network.node[20].content_store 	p_hit[20] 	0.27278770253428
scalar tree_4_3_u02_r20_network.node[20].content_store 	hits[20] 	3283
scalar tree_4_3_u02_r20_network.node[20].content_store 	misses[20] 	8752
scalar tree_4_3_u02_r20_network.node[20].content_store 	decision_yes[20] 	254
scalar tree_4_3_u02_r20_network.node[20].content_store 	decision_no[20] 	8498
scalar tree_4_3_u02_r20_network.node[20].content_store 	decision_ratio[20] 	0.029021937842779
scalar tree_4_3_u02_r20_network.node[21].core_layer 	interests[21] 	11995
scalar tree_4_3_u02_r20_network.node[21].core_layer 	data[21] 	8847
scalar tree_4_3_u02_r20_network.node[21].content_store 	p_hit[21] 	0.26244268445185
scalar tree_4_3_u02_r20_network.node[21].content_store 	hits[21] 	3148
scalar tree_4_3_u02_r20_network.node[21].content_store 	misses[21] 	8847
scalar tree_4_3_u02_r20_network.node[21].content_store 	decision_yes[21] 	277
scalar tree_4_3_u02_r20_network.node[21].content_store 	decision_no[21] 	8570
scalar tree_4_3_u02_r20_network.node[21].content_store 	decision_ratio[21] 	0.031310048604047
scalar tree_4_3_u02_r20_network.node[22].core_layer 	interests[22] 	12150
scalar tree_4_3_u02_r20_network.node[22].core_layer 	data[22] 	8870
scalar tree_4_3_u02_r20_network.node[22].content_store 	p_hit[22] 	0.26995884773663
scalar tree_4_3_u02_r20_network.node[22].content_store 	hits[22] 	3280
scalar tree_4_3_u02_r20_network.node[22].content_store 	misses[22] 	8870
scalar tree_4_3_u02_r20_network.node[22].content_store 	decision_yes[22] 	283
scalar tree_4_3_u02_r20_network.node[22].content_store 	decision_no[22] 	8587
scalar tree_4_3_u02_r20_network.node[22].content_store 	decision_ratio[22] 	0.031905298759865
scalar tree_4_3_u02_r20_network.node[23].core_layer 	interests[23] 	12059
scalar tree_4_3_u02_r20_network.node[23].core_layer 	data[23] 	8777
scalar tree_4_3_u02_r20_network.node[23].content_store 	p_hit[23] 	0.27216187080189
scalar tree_4_3_u02_r20_network.node[23].content_store 	hits[23] 	3282
scalar tree_4_3_u02_r20_network.node[23].content_store 	misses[23] 	8777
scalar tree_4_3_u02_r20_network.node[23].content_store 	decision_yes[23] 	279
scalar tree_4_3_u02_r20_network.node[23].content_store 	decision_no[23] 	8498
scalar tree_4_3_u02_r20_network.node[23].content_store 	decision_ratio[23] 	0.031787626751737
scalar tree_4_3_u02_r20_network.node[24].core_layer 	interests[24] 	11892
scalar tree_4_3_u02_r20_network.node[24].core_layer 	data[24] 	8653
scalar tree_4_3_u02_r20_network.node[24].content_store 	p_hit[24] 	0.27236797847292
scalar tree_4_3_u02_r20_network.node[24].content_store 	hits[24] 	3239
scalar tree_4_3_u02_r20_network.node[24].content_store 	misses[24] 	8653
scalar tree_4_3_u02_r20_network.node[24].content_store 	decision_yes[24] 	285
scalar tree_4_3_u02_r20_network.node[24].content_store 	decision_no[24] 	8368
scalar tree_4_3_u02_r20_network.node[24].content_store 	decision_ratio[24] 	0.032936553796371
scalar tree_4_3_u02_r20_network.node[25].core_layer 	interests[25] 	12145
scalar tree_4_3_u02_r20_network.node[25].core_layer 	data[25] 	8891
scalar tree_4_3_u02_r20_network.node[25].content_store 	p_hit[25] 	0.26792918896665
scalar tree_4_3_u02_r20_network.node[25].content_store 	hits[25] 	3254
scalar tree_4_3_u02_r20_network.node[25].content_store 	misses[25] 	8891
scalar tree_4_3_u02_r20_network.node[25].content_store 	decision_yes[25] 	268
scalar tree_4_3_u02_r20_network.node[25].content_store 	decision_no[25] 	8623
scalar tree_4_3_u02_r20_network.node[25].content_store 	decision_ratio[25] 	0.030142841075245
scalar tree_4_3_u02_r20_network.node[26].core_layer 	interests[26] 	11963
scalar tree_4_3_u02_r20_network.node[26].core_layer 	data[26] 	8769
scalar tree_4_3_u02_r20_network.node[26].content_store 	p_hit[26] 	0.26698988548023
scalar tree_4_3_u02_r20_network.node[26].content_store 	hits[26] 	3194
scalar tree_4_3_u02_r20_network.node[26].content_store 	misses[26] 	8769
scalar tree_4_3_u02_r20_network.node[26].content_store 	decision_yes[26] 	253
scalar tree_4_3_u02_r20_network.node[26].content_store 	decision_no[26] 	8516
scalar tree_4_3_u02_r20_network.node[26].content_store 	decision_ratio[26] 	0.028851636446573
scalar tree_4_3_u02_r20_network.node[27].core_layer 	interests[27] 	12131
scalar tree_4_3_u02_r20_network.node[27].core_layer 	data[27] 	8890
scalar tree_4_3_u02_r20_network.node[27].content_store 	p_hit[27] 	0.26716676283901
scalar tree_4_3_u02_r20_network.node[27].content_store 	hits[27] 	3241
scalar tree_4_3_u02_r20_network.node[27].content_store 	misses[27] 	8890
scalar tree_4_3_u02_r20_network.node[27].content_store 	decision_yes[27] 	307
scalar tree_4_3_u02_r20_network.node[27].content_store 	decision_no[27] 	8583
scalar tree_4_3_u02_r20_network.node[27].content_store 	decision_ratio[27] 	0.034533183352081
scalar tree_4_3_u02_r20_network.node[28].core_layer 	interests[28] 	12082
scalar tree_4_3_u02_r20_network.node[28].core_layer 	data[28] 	8846
scalar tree_4_3_u02_r20_network.node[28].content_store 	p_hit[28] 	0.26783645091872
scalar tree_4_3_u02_r20_network.node[28].content_store 	hits[28] 	3236
scalar tree_4_3_u02_r20_network.node[28].content_store 	misses[28] 	8846
scalar tree_4_3_u02_r20_network.node[28].content_store 	decision_yes[28] 	267
scalar tree_4_3_u02_r20_network.node[28].content_store 	decision_no[28] 	8579
scalar tree_4_3_u02_r20_network.node[28].content_store 	decision_ratio[28] 	0.030183133619715
scalar tree_4_3_u02_r20_network.node[29].core_layer 	interests[29] 	11919
scalar tree_4_3_u02_r20_network.node[29].core_layer 	data[29] 	8824
scalar tree_4_3_u02_r20_network.node[29].content_store 	p_hit[29] 	0.25966943535532
scalar tree_4_3_u02_r20_network.node[29].content_store 	hits[29] 	3095
scalar tree_4_3_u02_r20_network.node[29].content_store 	misses[29] 	8824
scalar tree_4_3_u02_r20_network.node[29].content_store 	decision_yes[29] 	295
scalar tree_4_3_u02_r20_network.node[29].content_store 	decision_no[29] 	8529
scalar tree_4_3_u02_r20_network.node[29].content_store 	decision_ratio[29] 	0.033431550317316
scalar tree_4_3_u02_r20_network.node[30].core_layer 	interests[30] 	12001
scalar tree_4_3_u02_r20_network.node[30].core_layer 	data[30] 	8840
scalar tree_4_3_u02_r20_network.node[30].content_store 	p_hit[30] 	0.26339471710691
scalar tree_4_3_u02_r20_network.node[30].content_store 	hits[30] 	3161
scalar tree_4_3_u02_r20_network.node[30].content_store 	misses[30] 	8840
scalar tree_4_3_u02_r20_network.node[30].content_store 	decision_yes[30] 	250
scalar tree_4_3_u02_r20_network.node[30].content_store 	decision_no[30] 	8590
scalar tree_4_3_u02_r20_network.node[30].content_store 	decision_ratio[30] 	0.028280542986425
scalar tree_4_3_u02_r20_network.node[31].core_layer 	interests[31] 	12081
scalar tree_4_3_u02_r20_network.node[31].core_layer 	data[31] 	8857
scalar tree_4_3_u02_r20_network.node[31].content_store 	p_hit[31] 	0.26686532571807
scalar tree_4_3_u02_r20_network.node[31].content_store 	hits[31] 	3224
scalar tree_4_3_u02_r20_network.node[31].content_store 	misses[31] 	8857
scalar tree_4_3_u02_r20_network.node[31].content_store 	decision_yes[31] 	272
scalar tree_4_3_u02_r20_network.node[31].content_store 	decision_no[31] 	8585
scalar tree_4_3_u02_r20_network.node[31].content_store 	decision_ratio[31] 	0.030710172744722
scalar tree_4_3_u02_r20_network.node[32].core_layer 	interests[32] 	12009
scalar tree_4_3_u02_r20_network.node[32].core_layer 	data[32] 	8829
scalar tree_4_3_u02_r20_network.node[32].content_store 	p_hit[32] 	0.26480139895079
scalar tree_4_3_u02_r20_network.node[32].content_store 	hits[32] 	3180
scalar tree_4_3_u02_r20_network.node[32].content_store 	misses[32] 	8829
scalar tree_4_3_u02_r20_network.node[32].content_store 	decision_yes[32] 	287
scalar tree_4_3_u02_r20_network.node[32].content_store 	decision_no[32] 	8542
scalar tree_4_3_u02_r20_network.node[32].content_store 	decision_ratio[32] 	0.032506512628837
scalar tree_4_3_u02_r20_network.node[33].core_layer 	interests[33] 	12149
scalar tree_4_3_u02_r20_network.node[33].core_layer 	data[33] 	9007
scalar tree_4_3_u02_r20_network.node[33].content_store 	p_hit[33] 	0.25862210881554
scalar tree_4_3_u02_r20_network.node[33].content_store 	hits[33] 	3142
scalar tree_4_3_u02_r20_network.node[33].content_store 	misses[33] 	9007
scalar tree_4_3_u02_r20_network.node[33].content_store 	decision_yes[33] 	283
scalar tree_4_3_u02_r20_network.node[33].content_store 	decision_no[33] 	8724
scalar tree_4_3_u02_r20_network.node[33].content_store 	decision_ratio[33] 	0.031420006661486
scalar tree_4_3_u02_r20_network.node[34].core_layer 	interests[34] 	12145
scalar tree_4_3_u02_r20_network.node[34].core_layer 	data[34] 	8916
scalar tree_4_3_u02_r20_network.node[34].content_store 	p_hit[34] 	0.26587072869494
scalar tree_4_3_u02_r20_network.node[34].content_store 	hits[34] 	3229
scalar tree_4_3_u02_r20_network.node[34].content_store 	misses[34] 	8916
scalar tree_4_3_u02_r20_network.node[34].content_store 	decision_yes[34] 	255
scalar tree_4_3_u02_r20_network.node[34].content_store 	decision_no[34] 	8661
scalar tree_4_3_u02_r20_network.node[34].content_store 	decision_ratio[34] 	0.028600269179004
scalar tree_4_3_u02_r20_network.node[35].core_layer 	interests[35] 	11963
scalar tree_4_3_u02_r20_network.node[35].core_layer 	data[35] 	8731
scalar tree_4_3_u02_r20_network.node[35].content_store 	p_hit[35] 	0.27016634623422
scalar tree_4_3_u02_r20_network.node[35].content_store 	hits[35] 	3232
scalar tree_4_3_u02_r20_network.node[35].content_store 	misses[35] 	8731
scalar tree_4_3_u02_r20_network.node[35].content_store 	decision_yes[35] 	277
scalar tree_4_3_u02_r20_network.node[35].content_store 	decision_no[35] 	8454
scalar tree_4_3_u02_r20_network.node[35].content_store 	decision_ratio[35] 	0.031726033673119
scalar tree_4_3_u02_r20_network.node[36].core_layer 	interests[36] 	11992
scalar tree_4_3_u02_r20_network.node[36].core_layer 	data[36] 	8717
scalar tree_4_3_u02_r20_network.node[36].content_store 	p_hit[36] 	0.27309873248833
scalar tree_4_3_u02_r20_network.node[36].content_store 	hits[36] 	3275
scalar tree_4_3_u02_r20_network.node[36].content_store 	misses[36] 	8717
scalar tree_4_3_u02_r20_network.node[36].content_store 	decision_yes[36] 	273
scalar tree_4_3_u02_r20_network.node[36].content_store 	decision_no[36] 	8444
scalar tree_4_3_u02_r20_network.node[36].content_store 	decision_ratio[36] 	0.031318114030056
scalar tree_4_3_u02_r20_network.node[37].core_layer 	interests[37] 	11979
scalar tree_4_3_u02_r20_network.node[37].core_layer 	data[37] 	8795
scalar tree_4_3_u02_r20_network.node[37].content_store 	p_hit[37] 	0.26579848067451
scalar tree_4_3_u02_r20_network.node[37].content_store 	hits[37] 	3184
scalar tree_4_3_u02_r20_network.node[37].content_store 	misses[37] 	8795
scalar tree_4_3_u02_r20_network.node[37].content_store 	decision_yes[37] 	282
scalar tree_4_3_u02_r20_network.node[37].content_store 	decision_no[37] 	8513
scalar tree_4_3_u02_r20_network.node[37].content_store 	decision_ratio[37] 	0.032063672541217
scalar tree_4_3_u02_r20_network.node[38].core_layer 	interests[38] 	12067
scalar tree_4_3_u02_r20_network.node[38].core_layer 	data[38] 	8879
scalar tree_4_3_u02_r20_network.node[38].content_store 	p_hit[38] 	0.26419159691721
scalar tree_4_3_u02_r20_network.node[38].content_store 	hits[38] 	3188
scalar tree_4_3_u02_r20_network.node[38].content_store 	misses[38] 	8879
scalar tree_4_3_u02_r20_network.node[38].content_store 	decision_yes[38] 	265
scalar tree_4_3_u02_r20_network.node[38].content_store 	decision_no[38] 	8614
scalar tree_4_3_u02_r20_network.node[38].content_store 	decision_ratio[38] 	0.029845703344971
scalar tree_4_3_u02_r20_network.node[39].core_layer 	interests[39] 	11957
scalar tree_4_3_u02_r20_network.node[39].core_layer 	data[39] 	8837
scalar tree_4_3_u02_r20_network.node[39].content_store 	p_hit[39] 	0.26093501714477
scalar tree_4_3_u02_r20_network.node[39].content_store 	hits[39] 	3120
scalar tree_4_3_u02_r20_network.node[39].content_store 	misses[39] 	8837
scalar tree_4_3_u02_r20_network.node[39].content_store 	decision_yes[39] 	265
scalar tree_4_3_u02_r20_network.node[39].content_store 	decision_no[39] 	8572
scalar tree_4_3_u02_r20_network.node[39].content_store 	decision_ratio[39] 	0.029987552336766
scalar tree_4_3_u02_r20_network.client[13] 	hdistance[13] 	2.8262597226919
scalar tree_4_3_u02_r20_network.client[13] 	downloads[13] 	11828
scalar tree_4_3_u02_r20_network.client[13] 	avg_time[13] 	0.0042737542
scalar tree_4_3_u02_r20_network.client[14] 	hdistance[14] 	2.8464410154306
scalar tree_4_3_u02_r20_network.client[14] 	downloads[14] 	12054
scalar tree_4_3_u02_r20_network.client[14] 	avg_time[14] 	0.004301971445
scalar tree_4_3_u02_r20_network.client[15] 	hdistance[15] 	2.8564290473018
scalar tree_4_3_u02_r20_network.client[15] 	downloads[15] 	12008
scalar tree_4_3_u02_r20_network.client[15] 	avg_time[15] 	0.004316952362
scalar tree_4_3_u02_r20_network.client[16] 	hdistance[16] 	2.8780714346027
scalar tree_4_3_u02_r20_network.client[16] 	downloads[16] 	11843
scalar tree_4_3_u02_r20_network.client[16] 	avg_time[16] 	0.004350227698
scalar tree_4_3_u02_r20_network.client[17] 	hdistance[17] 	2.8237715038275
scalar tree_4_3_u02_r20_network.client[17] 	downloads[17] 	12149
scalar tree_4_3_u02_r20_network.client[17] 	avg_time[17] 	0.004270128647
scalar tree_4_3_u02_r20_network.client[18] 	hdistance[18] 	2.8244483015125
scalar tree_4_3_u02_r20_network.client[18] 	downloads[18] 	12099
scalar tree_4_3_u02_r20_network.client[18] 	avg_time[18] 	0.004273562612
scalar tree_4_3_u02_r20_network.client[19] 	hdistance[19] 	2.8526315789474
scalar tree_4_3_u02_r20_network.client[19] 	downloads[19] 	11875
scalar tree_4_3_u02_r20_network.client[19] 	avg_time[19] 	0.004316139939
scalar tree_4_3_u02_r20_network.client[20] 	hdistance[20] 	2.8142085583714
scalar tree_4_3_u02_r20_network.client[20] 	downloads[20] 	12035
scalar tree_4_3_u02_r20_network.client[20] 	avg_time[20] 	0.004254663685
scalar tree_4_3_u02_r20_network.client[21] 	hdistance[21] 	2.8463526469362
scalar tree_4_3_u02_r20_network.client[21] 	downloads[21] 	11995
scalar tree_4_3_u02_r20_network.client[21] 	avg_time[21] 	0.004306458032
scalar tree_4_3_u02_r20_network.client[22] 	hdistance[22] 	2.8225514403292
scalar tree_4_3_u02_r20_network.client[22] 	downloads[22] 	12150
scalar tree_4_3_u02_r20_network.client[22] 	avg_time[22] 	0.004266992856
scalar tree_4_3_u02_r20_network.client[23] 	hdistance[23] 	2.8081930508334
scalar tree_4_3_u02_r20_network.client[23] 	downloads[23] 	12059
scalar tree_4_3_u02_r20_network.client[23] 	avg_time[23] 	0.004247446988
scalar tree_4_3_u02_r20_network.client[24] 	hdistance[24] 	2.802304069963
scalar tree_4_3_u02_r20_network.client[24] 	downloads[24] 	11892
scalar tree_4_3_u02_r20_network.client[24] 	avg_time[24] 	0.004241528693
scalar tree_4_3_u02_r20_network.client[25] 	hdistance[25] 	2.828818443804
scalar tree_4_3_u02_r20_network.client[25] 	downloads[25] 	12145
scalar tree_4_3_u02_r20_network.client[25] 	avg_time[25] 	0.004277477452
scalar tree_4_3_u02_r20_network.client[26] 	hdistance[26] 	2.8368302265318
scalar tree_4_3_u02_r20_network.client[26] 	downloads[26] 	11963
scalar tree_4_3_u02_r20_network.client[26] 	avg_time[26] 	0.004288219028
scalar tree_4_3_u02_r20_network.client[27] 	hdistance[27] 	2.8212018794823
scalar tree_4_3_u02_r20_network.client[27] 	downloads[27] 	12131
scalar tree_4_3_u02_r20_network.client[27] 	avg_time[27] 	0.004268894851
scalar tree_4_3_u02_r20_network.client[28] 	hdistance[28] 	2.8323952987916
scalar tree_4_3_u02_r20_network.client[28] 	downloads[28] 	12082
scalar tree_4_3_u02_r20_network.client[28] 	avg_time[28] 	0.004281407356
scalar tree_4_3_u02_r20_network.client[29] 	hdistance[29] 	2.8535951002601
scalar tree_4_3_u02_r20_network.client[29] 	downloads[29] 	11919
scalar tree_4_3_u02_r20_network.client[29] 	avg_time[29] 	0.00431584305
scalar tree_4_3_u02_r20_network.client[30] 	hdistance[30] 	2.8540954920423
scalar tree_4_3_u02_r20_network.client[30] 	downloads[30] 	12001
scalar tree_4_3_u02_r20_network.client[30] 	avg_time[30] 	0.004313637529
scalar tree_4_3_u02_r20_network.client[31] 	hdistance[31] 	2.8347818889165
scalar tree_4_3_u02_r20_network.client[31] 	downloads[31] 	12081
scalar tree_4_3_u02_r20_network.client[31] 	avg_time[31] 	0.004285728275
scalar tree_4_3_u02_r20_network.client[32] 	hdistance[32] 	2.8437838287951
scalar tree_4_3_u02_r20_network.client[32] 	downloads[32] 	12009
scalar tree_4_3_u02_r20_network.client[32] 	avg_time[32] 	0.004297607127
scalar tree_4_3_u02_r20_network.client[33] 	hdistance[33] 	2.8668203144292
scalar tree_4_3_u02_r20_network.client[33] 	downloads[33] 	12149
scalar tree_4_3_u02_r20_network.client[33] 	avg_time[33] 	0.004333230807
scalar tree_4_3_u02_r20_network.client[34] 	hdistance[34] 	2.8444627418691
scalar tree_4_3_u02_r20_network.client[34] 	downloads[34] 	12145
scalar tree_4_3_u02_r20_network.client[34] 	avg_time[34] 	0.004298226671
scalar tree_4_3_u02_r20_network.client[35] 	hdistance[35] 	2.8194432834573
scalar tree_4_3_u02_r20_network.client[35] 	downloads[35] 	11963
scalar tree_4_3_u02_r20_network.client[35] 	avg_time[35] 	0.004262807371
scalar tree_4_3_u02_r20_network.client[36] 	hdistance[36] 	2.8087891927952
scalar tree_4_3_u02_r20_network.client[36] 	downloads[36] 	11992
scalar tree_4_3_u02_r20_network.client[36] 	avg_time[36] 	0.004245160471
scalar tree_4_3_u02_r20_network.client[37] 	hdistance[37] 	2.8387177560731
scalar tree_4_3_u02_r20_network.client[37] 	downloads[37] 	11979
scalar tree_4_3_u02_r20_network.client[37] 	avg_time[37] 	0.004290537982
scalar tree_4_3_u02_r20_network.client[38] 	hdistance[38] 	2.8406397613326
scalar tree_4_3_u02_r20_network.client[38] 	downloads[38] 	12067
scalar tree_4_3_u02_r20_network.client[38] 	avg_time[38] 	0.004298662757
scalar tree_4_3_u02_r20_network.client[39] 	hdistance[39] 	2.852136823618
scalar tree_4_3_u02_r20_network.client[39] 	downloads[39] 	11957
scalar tree_4_3_u02_r20_network.client[39] 	avg_time[39] 	0.004313788062
