version 2
run General-46-20160820-07:22:29-856
attr a 0.9
attr cd lcd
attr configname General
attr cr lru
attr datetime 20160820-07:22:29
attr experiment General
attr fsize 1
attr inifile hw5115/scenario_A/SPR-LCD.ini
attr iterationvars "$name=tree_4_3, $un=02, $rep=7, $cd=lcd, $cr=lru, $fsize=1, $a=0.9, $sl=spr, $ttl=1000, $variance=0.05"
attr iterationvars2 "$name=tree_4_3, $un=02, $rep=7, $cd=lcd, $cr=lru, $fsize=1, $a=0.9, $sl=spr, $ttl=1000, $variance=0.05, $repetition=0"
attr measurement "$name=tree_4_3, $un=02, $rep=7, $cd=lcd, $cr=lru, $fsize=1, $a=0.9, $sl=spr, $ttl=1000, $variance=0.05"
attr name tree_4_3
attr network networks.${name}_u${un}_r${rep}_network
attr processid 856
attr rep 7
attr repetition 0
attr replication #0
attr resultdir results
attr runnumber 46
attr seedset 7
attr sl spr
attr ttl 1000
attr un 02
attr variance 0.05

scalar . 	a 	0.9
scalar . 	fsize 	1
scalar . 	rep 	7
scalar . 	ttl 	1000
scalar . 	un 	02
scalar . 	variance 	0.05
scalar tree_4_3_u02_r7_network.content_distribution 	repo-0 	0
scalar tree_4_3_u02_r7_network.content_distribution 	client-0 	13
scalar tree_4_3_u02_r7_network.content_distribution 	client-1 	14
scalar tree_4_3_u02_r7_network.content_distribution 	client-2 	15
scalar tree_4_3_u02_r7_network.content_distribution 	client-3 	16
scalar tree_4_3_u02_r7_network.content_distribution 	client-4 	17
scalar tree_4_3_u02_r7_network.content_distribution 	client-5 	18
scalar tree_4_3_u02_r7_network.content_distribution 	client-6 	19
scalar tree_4_3_u02_r7_network.content_distribution 	client-7 	20
scalar tree_4_3_u02_r7_network.content_distribution 	client-8 	21
scalar tree_4_3_u02_r7_network.content_distribution 	client-9 	22
scalar tree_4_3_u02_r7_network.content_distribution 	client-10 	23
scalar tree_4_3_u02_r7_network.content_distribution 	client-11 	24
scalar tree_4_3_u02_r7_network.content_distribution 	client-12 	25
scalar tree_4_3_u02_r7_network.content_distribution 	client-13 	26
scalar tree_4_3_u02_r7_network.content_distribution 	client-14 	27
scalar tree_4_3_u02_r7_network.content_distribution 	client-15 	28
scalar tree_4_3_u02_r7_network.content_distribution 	client-16 	29
scalar tree_4_3_u02_r7_network.content_distribution 	client-17 	30
scalar tree_4_3_u02_r7_network.content_distribution 	client-18 	31
scalar tree_4_3_u02_r7_network.content_distribution 	client-19 	32
scalar tree_4_3_u02_r7_network.content_distribution 	client-20 	33
scalar tree_4_3_u02_r7_network.content_distribution 	client-21 	34
scalar tree_4_3_u02_r7_network.content_distribution 	client-22 	35
scalar tree_4_3_u02_r7_network.content_distribution 	client-23 	36
scalar tree_4_3_u02_r7_network.content_distribution 	client-24 	37
scalar tree_4_3_u02_r7_network.content_distribution 	client-25 	38
scalar tree_4_3_u02_r7_network.content_distribution 	client-26 	39
scalar tree_4_3_u02_r7_network.content_distribution 	repo-0_card 	100000
scalar tree_4_3_u02_r7_network.content_distribution 	repo-0_price 	0
scalar tree_4_3_u02_r7_network.statistics 	stabilization_time 	1054.4
scalar tree_4_3_u02_r7_network.statistics 	p_hit 	0.18847727594788
scalar tree_4_3_u02_r7_network.statistics 	interests 	25413.95
scalar tree_4_3_u02_r7_network.statistics 	data 	17326.5
scalar tree_4_3_u02_r7_network.statistics 	hdistance 	2.8340955463267
scalar tree_4_3_u02_r7_network.statistics 	avg_time 	0.004284842305
scalar tree_4_3_u02_r7_network.statistics 	downloads 	323491
scalar tree_4_3_u02_r7_network.statistics 	total_cost 	0
scalar tree_4_3_u02_r7_network.statistics 	total_replicas 	100000
scalar tree_4_3_u02_r7_network.statistics 	inner_hit 	0.3083671570461
scalar tree_4_3_u02_r7_network.node[0].core_layer 	interests[0] 	225965
scalar tree_4_3_u02_r7_network.node[0].core_layer 	repo_load[0] 	223737
scalar tree_4_3_u02_r7_network.node[0].core_layer 	data[0] 	0
scalar tree_4_3_u02_r7_network.node[0].core_layer 	repo_int[0] 	223737
scalar tree_4_3_u02_r7_network.node[0].content_store 	p_hit[0] 	0.0098599340605846
scalar tree_4_3_u02_r7_network.node[0].content_store 	hits[0] 	2228
scalar tree_4_3_u02_r7_network.node[0].content_store 	misses[0] 	223737
scalar tree_4_3_u02_r7_network.node[0].content_store 	decision_yes[0] 	223737
scalar tree_4_3_u02_r7_network.node[0].content_store 	decision_no[0] 	0
scalar tree_4_3_u02_r7_network.node[0].content_store 	decision_ratio[0] 	1
scalar tree_4_3_u02_r7_network.node[1].core_layer 	interests[1] 	76531
scalar tree_4_3_u02_r7_network.node[1].core_layer 	data[1] 	75196
scalar tree_4_3_u02_r7_network.node[1].content_store 	p_hit[1] 	0.017430845017052
scalar tree_4_3_u02_r7_network.node[1].content_store 	hits[1] 	1334
scalar tree_4_3_u02_r7_network.node[1].content_store 	misses[1] 	75197
scalar tree_4_3_u02_r7_network.node[1].content_store 	decision_yes[1] 	751
scalar tree_4_3_u02_r7_network.node[1].content_store 	decision_no[1] 	74445
scalar tree_4_3_u02_r7_network.node[1].content_store 	decision_ratio[1] 	0.0099872333634768
scalar tree_4_3_u02_r7_network.node[2].core_layer 	interests[2] 	76859
scalar tree_4_3_u02_r7_network.node[2].core_layer 	data[2] 	75516
scalar tree_4_3_u02_r7_network.node[2].content_store 	p_hit[2] 	0.017473555471708
scalar tree_4_3_u02_r7_network.node[2].content_store 	hits[2] 	1343
scalar tree_4_3_u02_r7_network.node[2].content_store 	misses[2] 	75516
scalar tree_4_3_u02_r7_network.node[2].content_store 	decision_yes[2] 	758
scalar tree_4_3_u02_r7_network.node[2].content_store 	decision_no[2] 	74758
scalar tree_4_3_u02_r7_network.node[2].content_store 	decision_ratio[2] 	0.010037607924149
scalar tree_4_3_u02_r7_network.node[3].core_layer 	interests[3] 	76521
scalar tree_4_3_u02_r7_network.node[3].core_layer 	data[3] 	75253
scalar tree_4_3_u02_r7_network.node[3].content_store 	p_hit[3] 	0.016544477986435
scalar tree_4_3_u02_r7_network.node[3].content_store 	hits[3] 	1266
scalar tree_4_3_u02_r7_network.node[3].content_store 	misses[3] 	75255
scalar tree_4_3_u02_r7_network.node[3].content_store 	decision_yes[3] 	719
scalar tree_4_3_u02_r7_network.node[3].content_store 	decision_no[3] 	74534
scalar tree_4_3_u02_r7_network.node[3].content_store 	decision_ratio[3] 	0.0095544363679853
scalar tree_4_3_u02_r7_network.node[4].core_layer 	interests[4] 	26481
scalar tree_4_3_u02_r7_network.node[4].core_layer 	data[4] 	25678
scalar tree_4_3_u02_r7_network.node[4].content_store 	p_hit[4] 	0.030285865337412
scalar tree_4_3_u02_r7_network.node[4].content_store 	hits[4] 	802
scalar tree_4_3_u02_r7_network.node[4].content_store 	misses[4] 	25679
scalar tree_4_3_u02_r7_network.node[4].content_store 	decision_yes[4] 	447
scalar tree_4_3_u02_r7_network.node[4].content_store 	decision_no[4] 	25231
scalar tree_4_3_u02_r7_network.node[4].content_store 	decision_ratio[4] 	0.017407897811356
scalar tree_4_3_u02_r7_network.node[5].core_layer 	interests[5] 	34893
scalar tree_4_3_u02_r7_network.node[5].core_layer 	data[5] 	33760
scalar tree_4_3_u02_r7_network.node[5].content_store 	p_hit[5] 	0.032442037084802
scalar tree_4_3_u02_r7_network.node[5].content_store 	hits[5] 	1132
scalar tree_4_3_u02_r7_network.node[5].content_store 	misses[5] 	33761
scalar tree_4_3_u02_r7_network.node[5].content_store 	decision_yes[5] 	522
scalar tree_4_3_u02_r7_network.node[5].content_store 	decision_no[5] 	33238
scalar tree_4_3_u02_r7_network.node[5].content_store 	decision_ratio[5] 	0.015462085308057
scalar tree_4_3_u02_r7_network.node[6].core_layer 	interests[6] 	17620
scalar tree_4_3_u02_r7_network.node[6].core_layer 	data[6] 	17093
scalar tree_4_3_u02_r7_network.node[6].content_store 	p_hit[6] 	0.029852440408627
scalar tree_4_3_u02_r7_network.node[6].content_store 	hits[6] 	526
scalar tree_4_3_u02_r7_network.node[6].content_store 	misses[6] 	17094
scalar tree_4_3_u02_r7_network.node[6].content_store 	decision_yes[6] 	365
scalar tree_4_3_u02_r7_network.node[6].content_store 	decision_no[6] 	16728
scalar tree_4_3_u02_r7_network.node[6].content_store 	decision_ratio[6] 	0.021353770549348
scalar tree_4_3_u02_r7_network.node[7].core_layer 	interests[7] 	35206
scalar tree_4_3_u02_r7_network.node[7].core_layer 	data[7] 	34081
scalar tree_4_3_u02_r7_network.node[7].content_store 	p_hit[7] 	0.031954780435153
scalar tree_4_3_u02_r7_network.node[7].content_store 	hits[7] 	1125
scalar tree_4_3_u02_r7_network.node[7].content_store 	misses[7] 	34081
scalar tree_4_3_u02_r7_network.node[7].content_store 	decision_yes[7] 	507
scalar tree_4_3_u02_r7_network.node[7].content_store 	decision_no[7] 	33574
scalar tree_4_3_u02_r7_network.node[7].content_store 	decision_ratio[7] 	0.014876324051524
scalar tree_4_3_u02_r7_network.node[8].core_layer 	interests[8] 	26429
scalar tree_4_3_u02_r7_network.node[8].core_layer 	data[8] 	25603
scalar tree_4_3_u02_r7_network.node[8].content_store 	p_hit[8] 	0.031253547239774
scalar tree_4_3_u02_r7_network.node[8].content_store 	hits[8] 	826
scalar tree_4_3_u02_r7_network.node[8].content_store 	misses[8] 	25603
scalar tree_4_3_u02_r7_network.node[8].content_store 	decision_yes[8] 	470
scalar tree_4_3_u02_r7_network.node[8].content_store 	decision_no[8] 	25133
scalar tree_4_3_u02_r7_network.node[8].content_store 	decision_ratio[8] 	0.01835722376284
scalar tree_4_3_u02_r7_network.node[9].core_layer 	interests[9] 	17701
scalar tree_4_3_u02_r7_network.node[9].core_layer 	data[9] 	17175
scalar tree_4_3_u02_r7_network.node[9].content_store 	p_hit[9] 	0.029715835263544
scalar tree_4_3_u02_r7_network.node[9].content_store 	hits[9] 	526
scalar tree_4_3_u02_r7_network.node[9].content_store 	misses[9] 	17175
scalar tree_4_3_u02_r7_network.node[9].content_store 	decision_yes[9] 	366
scalar tree_4_3_u02_r7_network.node[9].content_store 	decision_no[9] 	16809
scalar tree_4_3_u02_r7_network.node[9].content_store 	decision_ratio[9] 	0.021310043668122
scalar tree_4_3_u02_r7_network.node[10].core_layer 	interests[10] 	26286
scalar tree_4_3_u02_r7_network.node[10].core_layer 	data[10] 	25494
scalar tree_4_3_u02_r7_network.node[10].content_store 	p_hit[10] 	0.030130107281443
scalar tree_4_3_u02_r7_network.node[10].content_store 	hits[10] 	792
scalar tree_4_3_u02_r7_network.node[10].content_store 	misses[10] 	25494
scalar tree_4_3_u02_r7_network.node[10].content_store 	decision_yes[10] 	436
scalar tree_4_3_u02_r7_network.node[10].content_store 	decision_no[10] 	25058
scalar tree_4_3_u02_r7_network.node[10].content_store 	decision_ratio[10] 	0.017102063230564
scalar tree_4_3_u02_r7_network.node[11].core_layer 	interests[11] 	26635
scalar tree_4_3_u02_r7_network.node[11].core_layer 	data[11] 	25864
scalar tree_4_3_u02_r7_network.node[11].content_store 	p_hit[11] 	0.028946874413366
scalar tree_4_3_u02_r7_network.node[11].content_store 	hits[11] 	771
scalar tree_4_3_u02_r7_network.node[11].content_store 	misses[11] 	25864
scalar tree_4_3_u02_r7_network.node[11].content_store 	decision_yes[11] 	420
scalar tree_4_3_u02_r7_network.node[11].content_store 	decision_no[11] 	25444
scalar tree_4_3_u02_r7_network.node[11].content_store 	decision_ratio[11] 	0.016238787503866
scalar tree_4_3_u02_r7_network.node[12].core_layer 	interests[12] 	25933
scalar tree_4_3_u02_r7_network.node[12].core_layer 	data[12] 	25163
scalar tree_4_3_u02_r7_network.node[12].content_store 	p_hit[12] 	0.029653337446497
scalar tree_4_3_u02_r7_network.node[12].content_store 	hits[12] 	769
scalar tree_4_3_u02_r7_network.node[12].content_store 	misses[12] 	25164
scalar tree_4_3_u02_r7_network.node[12].content_store 	decision_yes[12] 	410
scalar tree_4_3_u02_r7_network.node[12].content_store 	decision_no[12] 	24753
scalar tree_4_3_u02_r7_network.node[12].content_store 	decision_ratio[12] 	0.016293764654453
scalar tree_4_3_u02_r7_network.node[13].core_layer 	interests[13] 	11976
scalar tree_4_3_u02_r7_network.node[13].core_layer 	data[13] 	8887
scalar tree_4_3_u02_r7_network.node[13].content_store 	p_hit[13] 	0.25784903139613
scalar tree_4_3_u02_r7_network.node[13].content_store 	hits[13] 	3088
scalar tree_4_3_u02_r7_network.node[13].content_store 	misses[13] 	8888
scalar tree_4_3_u02_r7_network.node[13].content_store 	decision_yes[13] 	269
scalar tree_4_3_u02_r7_network.node[13].content_store 	decision_no[13] 	8618
scalar tree_4_3_u02_r7_network.node[13].content_store 	decision_ratio[13] 	0.030268932148081
scalar tree_4_3_u02_r7_network.node[14].core_layer 	interests[14] 	11976
scalar tree_4_3_u02_r7_network.node[14].core_layer 	data[14] 	8786
scalar tree_4_3_u02_r7_network.node[14].content_store 	p_hit[14] 	0.26636606546426
scalar tree_4_3_u02_r7_network.node[14].content_store 	hits[14] 	3190
scalar tree_4_3_u02_r7_network.node[14].content_store 	misses[14] 	8786
scalar tree_4_3_u02_r7_network.node[14].content_store 	decision_yes[14] 	265
scalar tree_4_3_u02_r7_network.node[14].content_store 	decision_no[14] 	8521
scalar tree_4_3_u02_r7_network.node[14].content_store 	decision_ratio[14] 	0.0301616207603
scalar tree_4_3_u02_r7_network.node[15].core_layer 	interests[15] 	12087
scalar tree_4_3_u02_r7_network.node[15].core_layer 	data[15] 	8808
scalar tree_4_3_u02_r7_network.node[15].content_store 	p_hit[15] 	0.27128319682303
scalar tree_4_3_u02_r7_network.node[15].content_store 	hits[15] 	3279
scalar tree_4_3_u02_r7_network.node[15].content_store 	misses[15] 	8808
scalar tree_4_3_u02_r7_network.node[15].content_store 	decision_yes[15] 	268
scalar tree_4_3_u02_r7_network.node[15].content_store 	decision_no[15] 	8540
scalar tree_4_3_u02_r7_network.node[15].content_store 	decision_ratio[15] 	0.030426884650318
scalar tree_4_3_u02_r7_network.node[16].core_layer 	interests[16] 	12073
scalar tree_4_3_u02_r7_network.node[16].core_layer 	data[16] 	8821
scalar tree_4_3_u02_r7_network.node[16].content_store 	p_hit[16] 	0.26936138490847
scalar tree_4_3_u02_r7_network.node[16].content_store 	hits[16] 	3252
scalar tree_4_3_u02_r7_network.node[16].content_store 	misses[16] 	8821
scalar tree_4_3_u02_r7_network.node[16].content_store 	decision_yes[16] 	280
scalar tree_4_3_u02_r7_network.node[16].content_store 	decision_no[16] 	8541
scalar tree_4_3_u02_r7_network.node[16].content_store 	decision_ratio[16] 	0.031742432830745
scalar tree_4_3_u02_r7_network.node[17].core_layer 	interests[17] 	11822
scalar tree_4_3_u02_r7_network.node[17].core_layer 	data[17] 	8611
scalar tree_4_3_u02_r7_network.node[17].content_store 	p_hit[17] 	0.2716968364067
scalar tree_4_3_u02_r7_network.node[17].content_store 	hits[17] 	3212
scalar tree_4_3_u02_r7_network.node[17].content_store 	misses[17] 	8610
scalar tree_4_3_u02_r7_network.node[17].content_store 	decision_yes[17] 	287
scalar tree_4_3_u02_r7_network.node[17].content_store 	decision_no[17] 	8324
scalar tree_4_3_u02_r7_network.node[17].content_store 	decision_ratio[17] 	0.033329462315643
scalar tree_4_3_u02_r7_network.node[18].core_layer 	interests[18] 	12019
scalar tree_4_3_u02_r7_network.node[18].core_layer 	data[18] 	8815
scalar tree_4_3_u02_r7_network.node[18].content_store 	p_hit[18] 	0.26657791829603
scalar tree_4_3_u02_r7_network.node[18].content_store 	hits[18] 	3204
scalar tree_4_3_u02_r7_network.node[18].content_store 	misses[18] 	8815
scalar tree_4_3_u02_r7_network.node[18].content_store 	decision_yes[18] 	271
scalar tree_4_3_u02_r7_network.node[18].content_store 	decision_no[18] 	8544
scalar tree_4_3_u02_r7_network.node[18].content_store 	decision_ratio[18] 	0.030743051616563
scalar tree_4_3_u02_r7_network.node[19].core_layer 	interests[19] 	12079
scalar tree_4_3_u02_r7_network.node[19].core_layer 	data[19] 	8865
scalar tree_4_3_u02_r7_network.node[19].content_store 	p_hit[19] 	0.26599884096366
scalar tree_4_3_u02_r7_network.node[19].content_store 	hits[19] 	3213
scalar tree_4_3_u02_r7_network.node[19].content_store 	misses[19] 	8866
scalar tree_4_3_u02_r7_network.node[19].content_store 	decision_yes[19] 	259
scalar tree_4_3_u02_r7_network.node[19].content_store 	decision_no[19] 	8606
scalar tree_4_3_u02_r7_network.node[19].content_store 	decision_ratio[19] 	0.029216018048505
scalar tree_4_3_u02_r7_network.node[20].core_layer 	interests[20] 	11762
scalar tree_4_3_u02_r7_network.node[20].core_layer 	data[20] 	8646
scalar tree_4_3_u02_r7_network.node[20].content_store 	p_hit[20] 	0.26492093181432
scalar tree_4_3_u02_r7_network.node[20].content_store 	hits[20] 	3116
scalar tree_4_3_u02_r7_network.node[20].content_store 	misses[20] 	8646
scalar tree_4_3_u02_r7_network.node[20].content_store 	decision_yes[20] 	294
scalar tree_4_3_u02_r7_network.node[20].content_store 	decision_no[20] 	8352
scalar tree_4_3_u02_r7_network.node[20].content_store 	decision_ratio[20] 	0.034004163775156
scalar tree_4_3_u02_r7_network.node[21].core_layer 	interests[21] 	11964
scalar tree_4_3_u02_r7_network.node[21].core_layer 	data[21] 	8754
scalar tree_4_3_u02_r7_network.node[21].content_store 	p_hit[21] 	0.26830491474423
scalar tree_4_3_u02_r7_network.node[21].content_store 	hits[21] 	3210
scalar tree_4_3_u02_r7_network.node[21].content_store 	misses[21] 	8754
scalar tree_4_3_u02_r7_network.node[21].content_store 	decision_yes[21] 	267
scalar tree_4_3_u02_r7_network.node[21].content_store 	decision_no[21] 	8487
scalar tree_4_3_u02_r7_network.node[21].content_store 	decision_ratio[21] 	0.03050034270048
scalar tree_4_3_u02_r7_network.node[22].core_layer 	interests[22] 	12080
scalar tree_4_3_u02_r7_network.node[22].core_layer 	data[22] 	8873
scalar tree_4_3_u02_r7_network.node[22].content_store 	p_hit[22] 	0.26548013245033
scalar tree_4_3_u02_r7_network.node[22].content_store 	hits[22] 	3207
scalar tree_4_3_u02_r7_network.node[22].content_store 	misses[22] 	8873
scalar tree_4_3_u02_r7_network.node[22].content_store 	decision_yes[22] 	270
scalar tree_4_3_u02_r7_network.node[22].content_store 	decision_no[22] 	8603
scalar tree_4_3_u02_r7_network.node[22].content_store 	decision_ratio[22] 	0.030429392539164
scalar tree_4_3_u02_r7_network.node[23].core_layer 	interests[23] 	11887
scalar tree_4_3_u02_r7_network.node[23].core_layer 	data[23] 	8712
scalar tree_4_3_u02_r7_network.node[23].content_store 	p_hit[23] 	0.26709851097838
scalar tree_4_3_u02_r7_network.node[23].content_store 	hits[23] 	3175
scalar tree_4_3_u02_r7_network.node[23].content_store 	misses[23] 	8712
scalar tree_4_3_u02_r7_network.node[23].content_store 	decision_yes[23] 	293
scalar tree_4_3_u02_r7_network.node[23].content_store 	decision_no[23] 	8419
scalar tree_4_3_u02_r7_network.node[23].content_store 	decision_ratio[23] 	0.033631772268136
scalar tree_4_3_u02_r7_network.node[24].core_layer 	interests[24] 	11978
scalar tree_4_3_u02_r7_network.node[24].core_layer 	data[24] 	8814
scalar tree_4_3_u02_r7_network.node[24].content_store 	p_hit[24] 	0.26406745700451
scalar tree_4_3_u02_r7_network.node[24].content_store 	hits[24] 	3163
scalar tree_4_3_u02_r7_network.node[24].content_store 	misses[24] 	8815
scalar tree_4_3_u02_r7_network.node[24].content_store 	decision_yes[24] 	273
scalar tree_4_3_u02_r7_network.node[24].content_store 	decision_no[24] 	8541
scalar tree_4_3_u02_r7_network.node[24].content_store 	decision_ratio[24] 	0.030973451327434
scalar tree_4_3_u02_r7_network.node[25].core_layer 	interests[25] 	11972
scalar tree_4_3_u02_r7_network.node[25].core_layer 	data[25] 	8763
scalar tree_4_3_u02_r7_network.node[25].content_store 	p_hit[25] 	0.26795856999666
scalar tree_4_3_u02_r7_network.node[25].content_store 	hits[25] 	3208
scalar tree_4_3_u02_r7_network.node[25].content_store 	misses[25] 	8764
scalar tree_4_3_u02_r7_network.node[25].content_store 	decision_yes[25] 	265
scalar tree_4_3_u02_r7_network.node[25].content_store 	decision_no[25] 	8498
scalar tree_4_3_u02_r7_network.node[25].content_store 	decision_ratio[25] 	0.030240785119251
scalar tree_4_3_u02_r7_network.node[26].core_layer 	interests[26] 	12129
scalar tree_4_3_u02_r7_network.node[26].core_layer 	data[26] 	8959
scalar tree_4_3_u02_r7_network.node[26].content_store 	p_hit[26] 	0.26135707807734
scalar tree_4_3_u02_r7_network.node[26].content_store 	hits[26] 	3170
scalar tree_4_3_u02_r7_network.node[26].content_store 	misses[26] 	8959
scalar tree_4_3_u02_r7_network.node[26].content_store 	decision_yes[26] 	293
scalar tree_4_3_u02_r7_network.node[26].content_store 	decision_no[26] 	8666
scalar tree_4_3_u02_r7_network.node[26].content_store 	decision_ratio[26] 	0.032704542917736
scalar tree_4_3_u02_r7_network.node[27].core_layer 	interests[27] 	11894
scalar tree_4_3_u02_r7_network.node[27].core_layer 	data[27] 	8707
scalar tree_4_3_u02_r7_network.node[27].content_store 	p_hit[27] 	0.26795022700521
scalar tree_4_3_u02_r7_network.node[27].content_store 	hits[27] 	3187
scalar tree_4_3_u02_r7_network.node[27].content_store 	misses[27] 	8707
scalar tree_4_3_u02_r7_network.node[27].content_store 	decision_yes[27] 	268
scalar tree_4_3_u02_r7_network.node[27].content_store 	decision_no[27] 	8439
scalar tree_4_3_u02_r7_network.node[27].content_store 	decision_ratio[27] 	0.030779832318824
scalar tree_4_3_u02_r7_network.node[28].core_layer 	interests[28] 	11943
scalar tree_4_3_u02_r7_network.node[28].core_layer 	data[28] 	8808
scalar tree_4_3_u02_r7_network.node[28].content_store 	p_hit[28] 	0.26258059114125
scalar tree_4_3_u02_r7_network.node[28].content_store 	hits[28] 	3136
scalar tree_4_3_u02_r7_network.node[28].content_store 	misses[28] 	8807
scalar tree_4_3_u02_r7_network.node[28].content_store 	decision_yes[28] 	289
scalar tree_4_3_u02_r7_network.node[28].content_store 	decision_no[28] 	8519
scalar tree_4_3_u02_r7_network.node[28].content_store 	decision_ratio[28] 	0.032811080835604
scalar tree_4_3_u02_r7_network.node[29].core_layer 	interests[29] 	12005
scalar tree_4_3_u02_r7_network.node[29].core_layer 	data[29] 	8850
scalar tree_4_3_u02_r7_network.node[29].content_store 	p_hit[29] 	0.26272386505623
scalar tree_4_3_u02_r7_network.node[29].content_store 	hits[29] 	3154
scalar tree_4_3_u02_r7_network.node[29].content_store 	misses[29] 	8851
scalar tree_4_3_u02_r7_network.node[29].content_store 	decision_yes[29] 	250
scalar tree_4_3_u02_r7_network.node[29].content_store 	decision_no[29] 	8600
scalar tree_4_3_u02_r7_network.node[29].content_store 	decision_ratio[29] 	0.028248587570621
scalar tree_4_3_u02_r7_network.node[30].core_layer 	interests[30] 	12031
scalar tree_4_3_u02_r7_network.node[30].core_layer 	data[30] 	8851
scalar tree_4_3_u02_r7_network.node[30].content_store 	p_hit[30] 	0.26431718061674
scalar tree_4_3_u02_r7_network.node[30].content_store 	hits[30] 	3180
scalar tree_4_3_u02_r7_network.node[30].content_store 	misses[30] 	8851
scalar tree_4_3_u02_r7_network.node[30].content_store 	decision_yes[30] 	276
scalar tree_4_3_u02_r7_network.node[30].content_store 	decision_no[30] 	8575
scalar tree_4_3_u02_r7_network.node[30].content_store 	decision_ratio[30] 	0.031182917184499
scalar tree_4_3_u02_r7_network.node[31].core_layer 	interests[31] 	11929
scalar tree_4_3_u02_r7_network.node[31].core_layer 	data[31] 	8719
scalar tree_4_3_u02_r7_network.node[31].content_store 	p_hit[31] 	0.26900829910303
scalar tree_4_3_u02_r7_network.node[31].content_store 	hits[31] 	3209
scalar tree_4_3_u02_r7_network.node[31].content_store 	misses[31] 	8720
scalar tree_4_3_u02_r7_network.node[31].content_store 	decision_yes[31] 	272
scalar tree_4_3_u02_r7_network.node[31].content_store 	decision_no[31] 	8447
scalar tree_4_3_u02_r7_network.node[31].content_store 	decision_ratio[31] 	0.0311962381007
scalar tree_4_3_u02_r7_network.node[32].core_layer 	interests[32] 	12115
scalar tree_4_3_u02_r7_network.node[32].core_layer 	data[32] 	8882
scalar tree_4_3_u02_r7_network.node[32].content_store 	p_hit[32] 	0.26677672307057
scalar tree_4_3_u02_r7_network.node[32].content_store 	hits[32] 	3232
scalar tree_4_3_u02_r7_network.node[32].content_store 	misses[32] 	8883
scalar tree_4_3_u02_r7_network.node[32].content_store 	decision_yes[32] 	262
scalar tree_4_3_u02_r7_network.node[32].content_store 	decision_no[32] 	8620
scalar tree_4_3_u02_r7_network.node[32].content_store 	decision_ratio[32] 	0.029497860842153
scalar tree_4_3_u02_r7_network.node[33].core_layer 	interests[33] 	11784
scalar tree_4_3_u02_r7_network.node[33].core_layer 	data[33] 	8685
scalar tree_4_3_u02_r7_network.node[33].content_store 	p_hit[33] 	0.26289884589274
scalar tree_4_3_u02_r7_network.node[33].content_store 	hits[33] 	3098
scalar tree_4_3_u02_r7_network.node[33].content_store 	misses[33] 	8686
scalar tree_4_3_u02_r7_network.node[33].content_store 	decision_yes[33] 	258
scalar tree_4_3_u02_r7_network.node[33].content_store 	decision_no[33] 	8427
scalar tree_4_3_u02_r7_network.node[33].content_store 	decision_ratio[33] 	0.029706390328152
scalar tree_4_3_u02_r7_network.node[34].core_layer 	interests[34] 	12120
scalar tree_4_3_u02_r7_network.node[34].core_layer 	data[34] 	8857
scalar tree_4_3_u02_r7_network.node[34].content_store 	p_hit[34] 	0.26922442244224
scalar tree_4_3_u02_r7_network.node[34].content_store 	hits[34] 	3263
scalar tree_4_3_u02_r7_network.node[34].content_store 	misses[34] 	8857
scalar tree_4_3_u02_r7_network.node[34].content_store 	decision_yes[34] 	268
scalar tree_4_3_u02_r7_network.node[34].content_store 	decision_no[34] 	8589
scalar tree_4_3_u02_r7_network.node[34].content_store 	decision_ratio[34] 	0.030258552557299
scalar tree_4_3_u02_r7_network.node[35].core_layer 	interests[35] 	11994
scalar tree_4_3_u02_r7_network.node[35].core_layer 	data[35] 	8850
scalar tree_4_3_u02_r7_network.node[35].content_store 	p_hit[35] 	0.26221444055361
scalar tree_4_3_u02_r7_network.node[35].content_store 	hits[35] 	3145
scalar tree_4_3_u02_r7_network.node[35].content_store 	misses[35] 	8849
scalar tree_4_3_u02_r7_network.node[35].content_store 	decision_yes[35] 	251
scalar tree_4_3_u02_r7_network.node[35].content_store 	decision_no[35] 	8599
scalar tree_4_3_u02_r7_network.node[35].content_store 	decision_ratio[35] 	0.028361581920904
scalar tree_4_3_u02_r7_network.node[36].core_layer 	interests[36] 	12096
scalar tree_4_3_u02_r7_network.node[36].core_layer 	data[36] 	8928
scalar tree_4_3_u02_r7_network.node[36].content_store 	p_hit[36] 	0.26190476190476
scalar tree_4_3_u02_r7_network.node[36].content_store 	hits[36] 	3168
scalar tree_4_3_u02_r7_network.node[36].content_store 	misses[36] 	8928
scalar tree_4_3_u02_r7_network.node[36].content_store 	decision_yes[36] 	252
scalar tree_4_3_u02_r7_network.node[36].content_store 	decision_no[36] 	8676
scalar tree_4_3_u02_r7_network.node[36].content_store 	decision_ratio[36] 	0.028225806451613
scalar tree_4_3_u02_r7_network.node[37].core_layer 	interests[37] 	11963
scalar tree_4_3_u02_r7_network.node[37].core_layer 	data[37] 	8689
scalar tree_4_3_u02_r7_network.node[37].content_store 	p_hit[37] 	0.27367717127811
scalar tree_4_3_u02_r7_network.node[37].content_store 	hits[37] 	3274
scalar tree_4_3_u02_r7_network.node[37].content_store 	misses[37] 	8689
scalar tree_4_3_u02_r7_network.node[37].content_store 	decision_yes[37] 	240
scalar tree_4_3_u02_r7_network.node[37].content_store 	decision_no[37] 	8449
scalar tree_4_3_u02_r7_network.node[37].content_store 	decision_ratio[37] 	0.027621130164576
scalar tree_4_3_u02_r7_network.node[38].core_layer 	interests[38] 	11861
scalar tree_4_3_u02_r7_network.node[38].core_layer 	data[38] 	8620
scalar tree_4_3_u02_r7_network.node[38].content_store 	p_hit[38] 	0.27316415142062
scalar tree_4_3_u02_r7_network.node[38].content_store 	hits[38] 	3240
scalar tree_4_3_u02_r7_network.node[38].content_store 	misses[38] 	8621
scalar tree_4_3_u02_r7_network.node[38].content_store 	decision_yes[38] 	269
scalar tree_4_3_u02_r7_network.node[38].content_store 	decision_no[38] 	8351
scalar tree_4_3_u02_r7_network.node[38].content_store 	decision_ratio[38] 	0.031206496519722
scalar tree_4_3_u02_r7_network.node[39].core_layer 	interests[39] 	11959
scalar tree_4_3_u02_r7_network.node[39].core_layer 	data[39] 	8624
scalar tree_4_3_u02_r7_network.node[39].content_store 	p_hit[39] 	0.27878585165984
scalar tree_4_3_u02_r7_network.node[39].content_store 	hits[39] 	3334
scalar tree_4_3_u02_r7_network.node[39].content_store 	misses[39] 	8625
scalar tree_4_3_u02_r7_network.node[39].content_store 	decision_yes[39] 	260
scalar tree_4_3_u02_r7_network.node[39].content_store 	decision_no[39] 	8364
scalar tree_4_3_u02_r7_network.node[39].content_store 	decision_ratio[39] 	0.030148423005566
scalar tree_4_3_u02_r7_network.client[13] 	hdistance[13] 	2.8693945720251
scalar tree_4_3_u02_r7_network.client[13] 	downloads[13] 	11975
scalar tree_4_3_u02_r7_network.client[13] 	avg_time[13] 	0.004337057091
scalar tree_4_3_u02_r7_network.client[14] 	hdistance[14] 	2.8333333333333
scalar tree_4_3_u02_r7_network.client[14] 	downloads[14] 	11976
scalar tree_4_3_u02_r7_network.client[14] 	avg_time[14] 	0.004285401158
scalar tree_4_3_u02_r7_network.client[15] 	hdistance[15] 	2.8210474063043
scalar tree_4_3_u02_r7_network.client[15] 	downloads[15] 	12087
scalar tree_4_3_u02_r7_network.client[15] 	avg_time[15] 	0.004262427709
scalar tree_4_3_u02_r7_network.client[16] 	hdistance[16] 	2.825643999006
scalar tree_4_3_u02_r7_network.client[16] 	downloads[16] 	12073
scalar tree_4_3_u02_r7_network.client[16] 	avg_time[16] 	0.004269956199
scalar tree_4_3_u02_r7_network.client[17] 	hdistance[17] 	2.8146832445234
scalar tree_4_3_u02_r7_network.client[17] 	downloads[17] 	11823
scalar tree_4_3_u02_r7_network.client[17] 	avg_time[17] 	0.00425373975
scalar tree_4_3_u02_r7_network.client[18] 	hdistance[18] 	2.8353440386055
scalar tree_4_3_u02_r7_network.client[18] 	downloads[18] 	12019
scalar tree_4_3_u02_r7_network.client[18] 	avg_time[18] 	0.004286876092
scalar tree_4_3_u02_r7_network.client[19] 	hdistance[19] 	2.8343268753105
scalar tree_4_3_u02_r7_network.client[19] 	downloads[19] 	12078
scalar tree_4_3_u02_r7_network.client[19] 	avg_time[19] 	0.004288505042
scalar tree_4_3_u02_r7_network.client[20] 	hdistance[20] 	2.8328515558579
scalar tree_4_3_u02_r7_network.client[20] 	downloads[20] 	11762
scalar tree_4_3_u02_r7_network.client[20] 	avg_time[20] 	0.004286342929
scalar tree_4_3_u02_r7_network.client[21] 	hdistance[21] 	2.8216315613507
scalar tree_4_3_u02_r7_network.client[21] 	downloads[21] 	11964
scalar tree_4_3_u02_r7_network.client[21] 	avg_time[21] 	0.004269639245
scalar tree_4_3_u02_r7_network.client[22] 	hdistance[22] 	2.8423841059603
scalar tree_4_3_u02_r7_network.client[22] 	downloads[22] 	12080
scalar tree_4_3_u02_r7_network.client[22] 	avg_time[22] 	0.004294864558
scalar tree_4_3_u02_r7_network.client[23] 	hdistance[23] 	2.827542693699
scalar tree_4_3_u02_r7_network.client[23] 	downloads[23] 	11887
scalar tree_4_3_u02_r7_network.client[23] 	avg_time[23] 	0.004276433472
scalar tree_4_3_u02_r7_network.client[24] 	hdistance[24] 	2.8489605076396
scalar tree_4_3_u02_r7_network.client[24] 	downloads[24] 	11977
scalar tree_4_3_u02_r7_network.client[24] 	avg_time[24] 	0.004305554515
scalar tree_4_3_u02_r7_network.client[25] 	hdistance[25] 	2.8292540305739
scalar tree_4_3_u02_r7_network.client[25] 	downloads[25] 	11971
scalar tree_4_3_u02_r7_network.client[25] 	avg_time[25] 	0.004279198753
scalar tree_4_3_u02_r7_network.client[26] 	hdistance[26] 	2.8474729985984
scalar tree_4_3_u02_r7_network.client[26] 	downloads[26] 	12129
scalar tree_4_3_u02_r7_network.client[26] 	avg_time[26] 	0.0043068648
scalar tree_4_3_u02_r7_network.client[27] 	hdistance[27] 	2.828232722381
scalar tree_4_3_u02_r7_network.client[27] 	downloads[27] 	11894
scalar tree_4_3_u02_r7_network.client[27] 	avg_time[27] 	0.004276607076
scalar tree_4_3_u02_r7_network.client[28] 	hdistance[28] 	2.8492967180174
scalar tree_4_3_u02_r7_network.client[28] 	downloads[28] 	11944
scalar tree_4_3_u02_r7_network.client[28] 	avg_time[28] 	0.004307096843
scalar tree_4_3_u02_r7_network.client[29] 	hdistance[29] 	2.8478840386538
scalar tree_4_3_u02_r7_network.client[29] 	downloads[29] 	12004
scalar tree_4_3_u02_r7_network.client[29] 	avg_time[29] 	0.004307963003
scalar tree_4_3_u02_r7_network.client[30] 	hdistance[30] 	2.8377524727786
scalar tree_4_3_u02_r7_network.client[30] 	downloads[30] 	12031
scalar tree_4_3_u02_r7_network.client[30] 	avg_time[30] 	0.004293738154
scalar tree_4_3_u02_r7_network.client[31] 	hdistance[31] 	2.8228537894031
scalar tree_4_3_u02_r7_network.client[31] 	downloads[31] 	11928
scalar tree_4_3_u02_r7_network.client[31] 	avg_time[31] 	0.004269922277
scalar tree_4_3_u02_r7_network.client[32] 	hdistance[32] 	2.8394419679709
scalar tree_4_3_u02_r7_network.client[32] 	downloads[32] 	12114
scalar tree_4_3_u02_r7_network.client[32] 	avg_time[32] 	0.004290883866
scalar tree_4_3_u02_r7_network.client[33] 	hdistance[33] 	2.8499533225834
scalar tree_4_3_u02_r7_network.client[33] 	downloads[33] 	11783
scalar tree_4_3_u02_r7_network.client[33] 	avg_time[33] 	0.004308167874
scalar tree_4_3_u02_r7_network.client[34] 	hdistance[34] 	2.8265676567657
scalar tree_4_3_u02_r7_network.client[34] 	downloads[34] 	12120
scalar tree_4_3_u02_r7_network.client[34] 	avg_time[34] 	0.004274254401
scalar tree_4_3_u02_r7_network.client[35] 	hdistance[35] 	2.8596081700709
scalar tree_4_3_u02_r7_network.client[35] 	downloads[35] 	11995
scalar tree_4_3_u02_r7_network.client[35] 	avg_time[35] 	0.004320463865
scalar tree_4_3_u02_r7_network.client[36] 	hdistance[36] 	2.8577215608466
scalar tree_4_3_u02_r7_network.client[36] 	downloads[36] 	12096
scalar tree_4_3_u02_r7_network.client[36] 	avg_time[36] 	0.004320268116
scalar tree_4_3_u02_r7_network.client[37] 	hdistance[37] 	2.8181894173702
scalar tree_4_3_u02_r7_network.client[37] 	downloads[37] 	11963
scalar tree_4_3_u02_r7_network.client[37] 	avg_time[37] 	0.004257791872
scalar tree_4_3_u02_r7_network.client[38] 	hdistance[38] 	2.8093591905565
scalar tree_4_3_u02_r7_network.client[38] 	downloads[38] 	11860
scalar tree_4_3_u02_r7_network.client[38] 	avg_time[38] 	0.004245997487
scalar tree_4_3_u02_r7_network.client[39] 	hdistance[39] 	2.7898478006356
scalar tree_4_3_u02_r7_network.client[39] 	downloads[39] 	11958
scalar tree_4_3_u02_r7_network.client[39] 	avg_time[39] 	0.004214726099
