version 2
run General-55-20160820-07:33:13-856
attr a 0.9
attr cd lcd
attr configname General
attr cr lru
attr datetime 20160820-07:33:13
attr experiment General
attr fsize 1
attr inifile hw5115/scenario_A/SPR-LCD.ini
attr iterationvars "$name=tree_4_3, $un=02, $rep=16, $cd=lcd, $cr=lru, $fsize=1, $a=0.9, $sl=spr, $ttl=1000, $variance=0.05"
attr iterationvars2 "$name=tree_4_3, $un=02, $rep=16, $cd=lcd, $cr=lru, $fsize=1, $a=0.9, $sl=spr, $ttl=1000, $variance=0.05, $repetition=0"
attr measurement "$name=tree_4_3, $un=02, $rep=16, $cd=lcd, $cr=lru, $fsize=1, $a=0.9, $sl=spr, $ttl=1000, $variance=0.05"
attr name tree_4_3
attr network networks.${name}_u${un}_r${rep}_network
attr processid 856
attr rep 16
attr repetition 0
attr replication #0
attr resultdir results
attr runnumber 55
attr seedset 16
attr sl spr
attr ttl 1000
attr un 02
attr variance 0.05

scalar . 	a 	0.9
scalar . 	fsize 	1
scalar . 	rep 	16
scalar . 	ttl 	1000
scalar . 	un 	02
scalar . 	variance 	0.05
scalar tree_4_3_u02_r16_network.content_distribution 	repo-0 	0
scalar tree_4_3_u02_r16_network.content_distribution 	client-0 	13
scalar tree_4_3_u02_r16_network.content_distribution 	client-1 	14
scalar tree_4_3_u02_r16_network.content_distribution 	client-2 	15
scalar tree_4_3_u02_r16_network.content_distribution 	client-3 	16
scalar tree_4_3_u02_r16_network.content_distribution 	client-4 	17
scalar tree_4_3_u02_r16_network.content_distribution 	client-5 	18
scalar tree_4_3_u02_r16_network.content_distribution 	client-6 	19
scalar tree_4_3_u02_r16_network.content_distribution 	client-7 	20
scalar tree_4_3_u02_r16_network.content_distribution 	client-8 	21
scalar tree_4_3_u02_r16_network.content_distribution 	client-9 	22
scalar tree_4_3_u02_r16_network.content_distribution 	client-10 	23
scalar tree_4_3_u02_r16_network.content_distribution 	client-11 	24
scalar tree_4_3_u02_r16_network.content_distribution 	client-12 	25
scalar tree_4_3_u02_r16_network.content_distribution 	client-13 	26
scalar tree_4_3_u02_r16_network.content_distribution 	client-14 	27
scalar tree_4_3_u02_r16_network.content_distribution 	client-15 	28
scalar tree_4_3_u02_r16_network.content_distribution 	client-16 	29
scalar tree_4_3_u02_r16_network.content_distribution 	client-17 	30
scalar tree_4_3_u02_r16_network.content_distribution 	client-18 	31
scalar tree_4_3_u02_r16_network.content_distribution 	client-19 	32
scalar tree_4_3_u02_r16_network.content_distribution 	client-20 	33
scalar tree_4_3_u02_r16_network.content_distribution 	client-21 	34
scalar tree_4_3_u02_r16_network.content_distribution 	client-22 	35
scalar tree_4_3_u02_r16_network.content_distribution 	client-23 	36
scalar tree_4_3_u02_r16_network.content_distribution 	client-24 	37
scalar tree_4_3_u02_r16_network.content_distribution 	client-25 	38
scalar tree_4_3_u02_r16_network.content_distribution 	client-26 	39
scalar tree_4_3_u02_r16_network.content_distribution 	repo-0_card 	100000
scalar tree_4_3_u02_r16_network.content_distribution 	repo-0_price 	0
scalar tree_4_3_u02_r16_network.statistics 	stabilization_time 	1070.5
scalar tree_4_3_u02_r16_network.statistics 	p_hit 	0.18839785124273
scalar tree_4_3_u02_r16_network.statistics 	interests 	25485.55
scalar tree_4_3_u02_r16_network.statistics 	data 	17376.975
scalar tree_4_3_u02_r16_network.statistics 	hdistance 	2.8352657340325
scalar tree_4_3_u02_r16_network.statistics 	avg_time 	0.004286086274
scalar tree_4_3_u02_r16_network.statistics 	downloads 	324343
scalar tree_4_3_u02_r16_network.statistics 	total_cost 	0
scalar tree_4_3_u02_r16_network.statistics 	total_replicas 	100000
scalar tree_4_3_u02_r16_network.statistics 	inner_hit 	0.30783152403474
scalar tree_4_3_u02_r16_network.node[0].core_layer 	interests[0] 	226698
scalar tree_4_3_u02_r16_network.node[0].core_layer 	repo_load[0] 	224500
scalar tree_4_3_u02_r16_network.node[0].core_layer 	data[0] 	0
scalar tree_4_3_u02_r16_network.node[0].core_layer 	repo_int[0] 	224500
scalar tree_4_3_u02_r16_network.node[0].content_store 	p_hit[0] 	0.0096957185330263
scalar tree_4_3_u02_r16_network.node[0].content_store 	hits[0] 	2198
scalar tree_4_3_u02_r16_network.node[0].content_store 	misses[0] 	224500
scalar tree_4_3_u02_r16_network.node[0].content_store 	decision_yes[0] 	224500
scalar tree_4_3_u02_r16_network.node[0].content_store 	decision_no[0] 	0
scalar tree_4_3_u02_r16_network.node[0].content_store 	decision_ratio[0] 	1
scalar tree_4_3_u02_r16_network.node[1].core_layer 	interests[1] 	76703
scalar tree_4_3_u02_r16_network.node[1].core_layer 	data[1] 	75437
scalar tree_4_3_u02_r16_network.node[1].content_store 	p_hit[1] 	0.016505221438536
scalar tree_4_3_u02_r16_network.node[1].content_store 	hits[1] 	1266
scalar tree_4_3_u02_r16_network.node[1].content_store 	misses[1] 	75437
scalar tree_4_3_u02_r16_network.node[1].content_store 	decision_yes[1] 	711
scalar tree_4_3_u02_r16_network.node[1].content_store 	decision_no[1] 	74726
scalar tree_4_3_u02_r16_network.node[1].content_store 	decision_ratio[1] 	0.0094250831819929
scalar tree_4_3_u02_r16_network.node[2].core_layer 	interests[2] 	77118
scalar tree_4_3_u02_r16_network.node[2].core_layer 	data[2] 	75860
scalar tree_4_3_u02_r16_network.node[2].content_store 	p_hit[2] 	0.016299696568894
scalar tree_4_3_u02_r16_network.node[2].content_store 	hits[2] 	1257
scalar tree_4_3_u02_r16_network.node[2].content_store 	misses[2] 	75861
scalar tree_4_3_u02_r16_network.node[2].content_store 	decision_yes[2] 	739
scalar tree_4_3_u02_r16_network.node[2].content_store 	decision_no[2] 	75121
scalar tree_4_3_u02_r16_network.node[2].content_store 	decision_ratio[2] 	0.0097416293171632
scalar tree_4_3_u02_r16_network.node[3].core_layer 	interests[3] 	76709
scalar tree_4_3_u02_r16_network.node[3].core_layer 	data[3] 	75401
scalar tree_4_3_u02_r16_network.node[3].content_store 	p_hit[3] 	0.017038417917063
scalar tree_4_3_u02_r16_network.node[3].content_store 	hits[3] 	1307
scalar tree_4_3_u02_r16_network.node[3].content_store 	misses[3] 	75402
scalar tree_4_3_u02_r16_network.node[3].content_store 	decision_yes[3] 	748
scalar tree_4_3_u02_r16_network.node[3].content_store 	decision_no[3] 	74653
scalar tree_4_3_u02_r16_network.node[3].content_store 	decision_ratio[3] 	0.0099202928343125
scalar tree_4_3_u02_r16_network.node[4].core_layer 	interests[4] 	26230
scalar tree_4_3_u02_r16_network.node[4].core_layer 	data[4] 	25407
scalar tree_4_3_u02_r16_network.node[4].content_store 	p_hit[4] 	0.031376286694624
scalar tree_4_3_u02_r16_network.node[4].content_store 	hits[4] 	823
scalar tree_4_3_u02_r16_network.node[4].content_store 	misses[4] 	25407
scalar tree_4_3_u02_r16_network.node[4].content_store 	decision_yes[4] 	421
scalar tree_4_3_u02_r16_network.node[4].content_store 	decision_no[4] 	24986
scalar tree_4_3_u02_r16_network.node[4].content_store 	decision_ratio[4] 	0.016570236548983
scalar tree_4_3_u02_r16_network.node[5].core_layer 	interests[5] 	26412
scalar tree_4_3_u02_r16_network.node[5].core_layer 	data[5] 	25598
scalar tree_4_3_u02_r16_network.node[5].content_store 	p_hit[5] 	0.030819324549447
scalar tree_4_3_u02_r16_network.node[5].content_store 	hits[5] 	814
scalar tree_4_3_u02_r16_network.node[5].content_store 	misses[5] 	25598
scalar tree_4_3_u02_r16_network.node[5].content_store 	decision_yes[5] 	437
scalar tree_4_3_u02_r16_network.node[5].content_store 	decision_no[5] 	25161
scalar tree_4_3_u02_r16_network.node[5].content_store 	decision_ratio[5] 	0.017071646222361
scalar tree_4_3_u02_r16_network.node[6].core_layer 	interests[6] 	26492
scalar tree_4_3_u02_r16_network.node[6].core_layer 	data[6] 	25698
scalar tree_4_3_u02_r16_network.node[6].content_store 	p_hit[6] 	0.029933564849766
scalar tree_4_3_u02_r16_network.node[6].content_store 	hits[6] 	793
scalar tree_4_3_u02_r16_network.node[6].content_store 	misses[6] 	25699
scalar tree_4_3_u02_r16_network.node[6].content_store 	decision_yes[6] 	408
scalar tree_4_3_u02_r16_network.node[6].content_store 	decision_no[6] 	25290
scalar tree_4_3_u02_r16_network.node[6].content_store 	decision_ratio[6] 	0.015876721923885
scalar tree_4_3_u02_r16_network.node[7].core_layer 	interests[7] 	35426
scalar tree_4_3_u02_r16_network.node[7].core_layer 	data[7] 	34336
scalar tree_4_3_u02_r16_network.node[7].content_store 	p_hit[7] 	0.030683678654096
scalar tree_4_3_u02_r16_network.node[7].content_store 	hits[7] 	1087
scalar tree_4_3_u02_r16_network.node[7].content_store 	misses[7] 	34339
scalar tree_4_3_u02_r16_network.node[7].content_store 	decision_yes[7] 	487
scalar tree_4_3_u02_r16_network.node[7].content_store 	decision_no[7] 	33849
scalar tree_4_3_u02_r16_network.node[7].content_store 	decision_ratio[7] 	0.014183364398882
scalar tree_4_3_u02_r16_network.node[8].core_layer 	interests[8] 	26557
scalar tree_4_3_u02_r16_network.node[8].core_layer 	data[8] 	25773
scalar tree_4_3_u02_r16_network.node[8].content_store 	p_hit[8] 	0.029521406785405
scalar tree_4_3_u02_r16_network.node[8].content_store 	hits[8] 	784
scalar tree_4_3_u02_r16_network.node[8].content_store 	misses[8] 	25773
scalar tree_4_3_u02_r16_network.node[8].content_store 	decision_yes[8] 	431
scalar tree_4_3_u02_r16_network.node[8].content_store 	decision_no[8] 	25342
scalar tree_4_3_u02_r16_network.node[8].content_store 	decision_ratio[8] 	0.016722927094246
scalar tree_4_3_u02_r16_network.node[9].core_layer 	interests[9] 	17533
scalar tree_4_3_u02_r16_network.node[9].core_layer 	data[9] 	17008
scalar tree_4_3_u02_r16_network.node[9].content_store 	p_hit[9] 	0.029943535048195
scalar tree_4_3_u02_r16_network.node[9].content_store 	hits[9] 	525
scalar tree_4_3_u02_r16_network.node[9].content_store 	misses[9] 	17008
scalar tree_4_3_u02_r16_network.node[9].content_store 	decision_yes[9] 	339
scalar tree_4_3_u02_r16_network.node[9].content_store 	decision_no[9] 	16669
scalar tree_4_3_u02_r16_network.node[9].content_store 	decision_ratio[9] 	0.019931796801505
scalar tree_4_3_u02_r16_network.node[10].core_layer 	interests[10] 	35244
scalar tree_4_3_u02_r16_network.node[10].core_layer 	data[10] 	34111
scalar tree_4_3_u02_r16_network.node[10].content_store 	p_hit[10] 	0.032090568607423
scalar tree_4_3_u02_r16_network.node[10].content_store 	hits[10] 	1131
scalar tree_4_3_u02_r16_network.node[10].content_store 	misses[10] 	34113
scalar tree_4_3_u02_r16_network.node[10].content_store 	decision_yes[10] 	503
scalar tree_4_3_u02_r16_network.node[10].content_store 	decision_no[10] 	33608
scalar tree_4_3_u02_r16_network.node[10].content_store 	decision_ratio[10] 	0.014745976371259
scalar tree_4_3_u02_r16_network.node[11].core_layer 	interests[11] 	17673
scalar tree_4_3_u02_r16_network.node[11].core_layer 	data[11] 	17120
scalar tree_4_3_u02_r16_network.node[11].content_store 	p_hit[11] 	0.03140383636055
scalar tree_4_3_u02_r16_network.node[11].content_store 	hits[11] 	555
scalar tree_4_3_u02_r16_network.node[11].content_store 	misses[11] 	17118
scalar tree_4_3_u02_r16_network.node[11].content_store 	decision_yes[11] 	373
scalar tree_4_3_u02_r16_network.node[11].content_store 	decision_no[11] 	16747
scalar tree_4_3_u02_r16_network.node[11].content_store 	decision_ratio[11] 	0.02178738317757
scalar tree_4_3_u02_r16_network.node[12].core_layer 	interests[12] 	26282
scalar tree_4_3_u02_r16_network.node[12].core_layer 	data[12] 	25480
scalar tree_4_3_u02_r16_network.node[12].content_store 	p_hit[12] 	0.030515181493037
scalar tree_4_3_u02_r16_network.node[12].content_store 	hits[12] 	802
scalar tree_4_3_u02_r16_network.node[12].content_store 	misses[12] 	25480
scalar tree_4_3_u02_r16_network.node[12].content_store 	decision_yes[12] 	431
scalar tree_4_3_u02_r16_network.node[12].content_store 	decision_no[12] 	25049
scalar tree_4_3_u02_r16_network.node[12].content_store 	decision_ratio[12] 	0.016915227629513
scalar tree_4_3_u02_r16_network.node[13].core_layer 	interests[13] 	12098
scalar tree_4_3_u02_r16_network.node[13].core_layer 	data[13] 	8774
scalar tree_4_3_u02_r16_network.node[13].content_store 	p_hit[13] 	0.27475615804265
scalar tree_4_3_u02_r16_network.node[13].content_store 	hits[13] 	3324
scalar tree_4_3_u02_r16_network.node[13].content_store 	misses[13] 	8774
scalar tree_4_3_u02_r16_network.node[13].content_store 	decision_yes[13] 	253
scalar tree_4_3_u02_r16_network.node[13].content_store 	decision_no[13] 	8521
scalar tree_4_3_u02_r16_network.node[13].content_store 	decision_ratio[13] 	0.028835194894005
scalar tree_4_3_u02_r16_network.node[14].core_layer 	interests[14] 	12028
scalar tree_4_3_u02_r16_network.node[14].core_layer 	data[14] 	8744
scalar tree_4_3_u02_r16_network.node[14].content_store 	p_hit[14] 	0.27294645826405
scalar tree_4_3_u02_r16_network.node[14].content_store 	hits[14] 	3283
scalar tree_4_3_u02_r16_network.node[14].content_store 	misses[14] 	8745
scalar tree_4_3_u02_r16_network.node[14].content_store 	decision_yes[14] 	266
scalar tree_4_3_u02_r16_network.node[14].content_store 	decision_no[14] 	8478
scalar tree_4_3_u02_r16_network.node[14].content_store 	decision_ratio[14] 	0.030420860018298
scalar tree_4_3_u02_r16_network.node[15].core_layer 	interests[15] 	11968
scalar tree_4_3_u02_r16_network.node[15].core_layer 	data[15] 	8712
scalar tree_4_3_u02_r16_network.node[15].content_store 	p_hit[15] 	0.27205882352941
scalar tree_4_3_u02_r16_network.node[15].content_store 	hits[15] 	3256
scalar tree_4_3_u02_r16_network.node[15].content_store 	misses[15] 	8712
scalar tree_4_3_u02_r16_network.node[15].content_store 	decision_yes[15] 	304
scalar tree_4_3_u02_r16_network.node[15].content_store 	decision_no[15] 	8408
scalar tree_4_3_u02_r16_network.node[15].content_store 	decision_ratio[15] 	0.034894398530762
scalar tree_4_3_u02_r16_network.node[16].core_layer 	interests[16] 	12016
scalar tree_4_3_u02_r16_network.node[16].core_layer 	data[16] 	8797
scalar tree_4_3_u02_r16_network.node[16].content_store 	p_hit[16] 	0.26789280958722
scalar tree_4_3_u02_r16_network.node[16].content_store 	hits[16] 	3219
scalar tree_4_3_u02_r16_network.node[16].content_store 	misses[16] 	8797
scalar tree_4_3_u02_r16_network.node[16].content_store 	decision_yes[16] 	276
scalar tree_4_3_u02_r16_network.node[16].content_store 	decision_no[16] 	8521
scalar tree_4_3_u02_r16_network.node[16].content_store 	decision_ratio[16] 	0.03137433215869
scalar tree_4_3_u02_r16_network.node[17].core_layer 	interests[17] 	12017
scalar tree_4_3_u02_r16_network.node[17].core_layer 	data[17] 	8844
scalar tree_4_3_u02_r16_network.node[17].content_store 	p_hit[17] 	0.26404260630773
scalar tree_4_3_u02_r16_network.node[17].content_store 	hits[17] 	3173
scalar tree_4_3_u02_r16_network.node[17].content_store 	misses[17] 	8844
scalar tree_4_3_u02_r16_network.node[17].content_store 	decision_yes[17] 	260
scalar tree_4_3_u02_r16_network.node[17].content_store 	decision_no[17] 	8584
scalar tree_4_3_u02_r16_network.node[17].content_store 	decision_ratio[17] 	0.029398462234283
scalar tree_4_3_u02_r16_network.node[18].core_layer 	interests[18] 	11982
scalar tree_4_3_u02_r16_network.node[18].core_layer 	data[18] 	8771
scalar tree_4_3_u02_r16_network.node[18].content_store 	p_hit[18] 	0.26798531130028
scalar tree_4_3_u02_r16_network.node[18].content_store 	hits[18] 	3211
scalar tree_4_3_u02_r16_network.node[18].content_store 	misses[18] 	8771
scalar tree_4_3_u02_r16_network.node[18].content_store 	decision_yes[18] 	278
scalar tree_4_3_u02_r16_network.node[18].content_store 	decision_no[18] 	8493
scalar tree_4_3_u02_r16_network.node[18].content_store 	decision_ratio[18] 	0.031695359708129
scalar tree_4_3_u02_r16_network.node[19].core_layer 	interests[19] 	12150
scalar tree_4_3_u02_r16_network.node[19].core_layer 	data[19] 	8850
scalar tree_4_3_u02_r16_network.node[19].content_store 	p_hit[19] 	0.2716049382716
scalar tree_4_3_u02_r16_network.node[19].content_store 	hits[19] 	3300
scalar tree_4_3_u02_r16_network.node[19].content_store 	misses[19] 	8850
scalar tree_4_3_u02_r16_network.node[19].content_store 	decision_yes[19] 	274
scalar tree_4_3_u02_r16_network.node[19].content_store 	decision_no[19] 	8576
scalar tree_4_3_u02_r16_network.node[19].content_store 	decision_ratio[19] 	0.030960451977401
scalar tree_4_3_u02_r16_network.node[20].core_layer 	interests[20] 	12000
scalar tree_4_3_u02_r16_network.node[20].core_layer 	data[20] 	8753
scalar tree_4_3_u02_r16_network.node[20].content_store 	p_hit[20] 	0.27058333333333
scalar tree_4_3_u02_r16_network.node[20].content_store 	hits[20] 	3247
scalar tree_4_3_u02_r16_network.node[20].content_store 	misses[20] 	8753
scalar tree_4_3_u02_r16_network.node[20].content_store 	decision_yes[20] 	270
scalar tree_4_3_u02_r16_network.node[20].content_store 	decision_no[20] 	8483
scalar tree_4_3_u02_r16_network.node[20].content_store 	decision_ratio[20] 	0.030846566891352
scalar tree_4_3_u02_r16_network.node[21].core_layer 	interests[21] 	12027
scalar tree_4_3_u02_r16_network.node[21].core_layer 	data[21] 	8889
scalar tree_4_3_u02_r16_network.node[21].content_store 	p_hit[21] 	0.26091294587179
scalar tree_4_3_u02_r16_network.node[21].content_store 	hits[21] 	3138
scalar tree_4_3_u02_r16_network.node[21].content_store 	misses[21] 	8889
scalar tree_4_3_u02_r16_network.node[21].content_store 	decision_yes[21] 	249
scalar tree_4_3_u02_r16_network.node[21].content_store 	decision_no[21] 	8640
scalar tree_4_3_u02_r16_network.node[21].content_store 	decision_ratio[21] 	0.028012149848127
scalar tree_4_3_u02_r16_network.node[22].core_layer 	interests[22] 	12116
scalar tree_4_3_u02_r16_network.node[22].core_layer 	data[22] 	8862
scalar tree_4_3_u02_r16_network.node[22].content_store 	p_hit[22] 	0.26848794981842
scalar tree_4_3_u02_r16_network.node[22].content_store 	hits[22] 	3253
scalar tree_4_3_u02_r16_network.node[22].content_store 	misses[22] 	8863
scalar tree_4_3_u02_r16_network.node[22].content_store 	decision_yes[22] 	291
scalar tree_4_3_u02_r16_network.node[22].content_store 	decision_no[22] 	8571
scalar tree_4_3_u02_r16_network.node[22].content_store 	decision_ratio[22] 	0.03283683141503
scalar tree_4_3_u02_r16_network.node[23].core_layer 	interests[23] 	12048
scalar tree_4_3_u02_r16_network.node[23].core_layer 	data[23] 	8869
scalar tree_4_3_u02_r16_network.node[23].content_store 	p_hit[23] 	0.26377822045153
scalar tree_4_3_u02_r16_network.node[23].content_store 	hits[23] 	3178
scalar tree_4_3_u02_r16_network.node[23].content_store 	misses[23] 	8870
scalar tree_4_3_u02_r16_network.node[23].content_store 	decision_yes[23] 	271
scalar tree_4_3_u02_r16_network.node[23].content_store 	decision_no[23] 	8598
scalar tree_4_3_u02_r16_network.node[23].content_store 	decision_ratio[23] 	0.030555868756342
scalar tree_4_3_u02_r16_network.node[24].core_layer 	interests[24] 	11990
scalar tree_4_3_u02_r16_network.node[24].core_layer 	data[24] 	8783
scalar tree_4_3_u02_r16_network.node[24].content_store 	p_hit[24] 	0.2674728940784
scalar tree_4_3_u02_r16_network.node[24].content_store 	hits[24] 	3207
scalar tree_4_3_u02_r16_network.node[24].content_store 	misses[24] 	8783
scalar tree_4_3_u02_r16_network.node[24].content_store 	decision_yes[24] 	258
scalar tree_4_3_u02_r16_network.node[24].content_store 	decision_no[24] 	8525
scalar tree_4_3_u02_r16_network.node[24].content_store 	decision_ratio[24] 	0.029374928839804
scalar tree_4_3_u02_r16_network.node[25].core_layer 	interests[25] 	11905
scalar tree_4_3_u02_r16_network.node[25].core_layer 	data[25] 	8714
scalar tree_4_3_u02_r16_network.node[25].content_store 	p_hit[25] 	0.26803863922722
scalar tree_4_3_u02_r16_network.node[25].content_store 	hits[25] 	3191
scalar tree_4_3_u02_r16_network.node[25].content_store 	misses[25] 	8714
scalar tree_4_3_u02_r16_network.node[25].content_store 	decision_yes[25] 	245
scalar tree_4_3_u02_r16_network.node[25].content_store 	decision_no[25] 	8469
scalar tree_4_3_u02_r16_network.node[25].content_store 	decision_ratio[25] 	0.028115675923801
scalar tree_4_3_u02_r16_network.node[26].core_layer 	interests[26] 	12093
scalar tree_4_3_u02_r16_network.node[26].core_layer 	data[26] 	9012
scalar tree_4_3_u02_r16_network.node[26].content_store 	p_hit[26] 	0.25477548995287
scalar tree_4_3_u02_r16_network.node[26].content_store 	hits[26] 	3081
scalar tree_4_3_u02_r16_network.node[26].content_store 	misses[26] 	9012
scalar tree_4_3_u02_r16_network.node[26].content_store 	decision_yes[26] 	265
scalar tree_4_3_u02_r16_network.node[26].content_store 	decision_no[26] 	8747
scalar tree_4_3_u02_r16_network.node[26].content_store 	decision_ratio[26] 	0.029405237461163
scalar tree_4_3_u02_r16_network.node[27].core_layer 	interests[27] 	12007
scalar tree_4_3_u02_r16_network.node[27].core_layer 	data[27] 	8831
scalar tree_4_3_u02_r16_network.node[27].content_store 	p_hit[27] 	0.26451236778546
scalar tree_4_3_u02_r16_network.node[27].content_store 	hits[27] 	3176
scalar tree_4_3_u02_r16_network.node[27].content_store 	misses[27] 	8831
scalar tree_4_3_u02_r16_network.node[27].content_store 	decision_yes[27] 	274
scalar tree_4_3_u02_r16_network.node[27].content_store 	decision_no[27] 	8557
scalar tree_4_3_u02_r16_network.node[27].content_store 	decision_ratio[27] 	0.031027063752689
scalar tree_4_3_u02_r16_network.node[28].core_layer 	interests[28] 	12135
scalar tree_4_3_u02_r16_network.node[28].core_layer 	data[28] 	8911
scalar tree_4_3_u02_r16_network.node[28].content_store 	p_hit[28] 	0.26567779151215
scalar tree_4_3_u02_r16_network.node[28].content_store 	hits[28] 	3224
scalar tree_4_3_u02_r16_network.node[28].content_store 	misses[28] 	8911
scalar tree_4_3_u02_r16_network.node[28].content_store 	decision_yes[28] 	267
scalar tree_4_3_u02_r16_network.node[28].content_store 	decision_no[28] 	8644
scalar tree_4_3_u02_r16_network.node[28].content_store 	decision_ratio[28] 	0.029962967119291
scalar tree_4_3_u02_r16_network.node[29].core_layer 	interests[29] 	11978
scalar tree_4_3_u02_r16_network.node[29].core_layer 	data[29] 	8753
scalar tree_4_3_u02_r16_network.node[29].content_store 	p_hit[29] 	0.26924361329103
scalar tree_4_3_u02_r16_network.node[29].content_store 	hits[29] 	3225
scalar tree_4_3_u02_r16_network.node[29].content_store 	misses[29] 	8753
scalar tree_4_3_u02_r16_network.node[29].content_store 	decision_yes[29] 	260
scalar tree_4_3_u02_r16_network.node[29].content_store 	decision_no[29] 	8493
scalar tree_4_3_u02_r16_network.node[29].content_store 	decision_ratio[29] 	0.029704101450931
scalar tree_4_3_u02_r16_network.node[30].core_layer 	interests[30] 	11909
scalar tree_4_3_u02_r16_network.node[30].core_layer 	data[30] 	8780
scalar tree_4_3_u02_r16_network.node[30].content_store 	p_hit[30] 	0.26274246368293
scalar tree_4_3_u02_r16_network.node[30].content_store 	hits[30] 	3129
scalar tree_4_3_u02_r16_network.node[30].content_store 	misses[30] 	8780
scalar tree_4_3_u02_r16_network.node[30].content_store 	decision_yes[30] 	265
scalar tree_4_3_u02_r16_network.node[30].content_store 	decision_no[30] 	8515
scalar tree_4_3_u02_r16_network.node[30].content_store 	decision_ratio[30] 	0.030182232346241
scalar tree_4_3_u02_r16_network.node[31].core_layer 	interests[31] 	12119
scalar tree_4_3_u02_r16_network.node[31].core_layer 	data[31] 	8900
scalar tree_4_3_u02_r16_network.node[31].content_store 	p_hit[31] 	0.26561597491542
scalar tree_4_3_u02_r16_network.node[31].content_store 	hits[31] 	3219
scalar tree_4_3_u02_r16_network.node[31].content_store 	misses[31] 	8900
scalar tree_4_3_u02_r16_network.node[31].content_store 	decision_yes[31] 	281
scalar tree_4_3_u02_r16_network.node[31].content_store 	decision_no[31] 	8619
scalar tree_4_3_u02_r16_network.node[31].content_store 	decision_ratio[31] 	0.031573033707865
scalar tree_4_3_u02_r16_network.node[32].core_layer 	interests[32] 	12084
scalar tree_4_3_u02_r16_network.node[32].core_layer 	data[32] 	8775
scalar tree_4_3_u02_r16_network.node[32].content_store 	p_hit[32] 	0.27391592188017
scalar tree_4_3_u02_r16_network.node[32].content_store 	hits[32] 	3310
scalar tree_4_3_u02_r16_network.node[32].content_store 	misses[32] 	8774
scalar tree_4_3_u02_r16_network.node[32].content_store 	decision_yes[32] 	280
scalar tree_4_3_u02_r16_network.node[32].content_store 	decision_no[32] 	8495
scalar tree_4_3_u02_r16_network.node[32].content_store 	decision_ratio[32] 	0.031908831908832
scalar tree_4_3_u02_r16_network.node[33].core_layer 	interests[33] 	11932
scalar tree_4_3_u02_r16_network.node[33].core_layer 	data[33] 	8751
scalar tree_4_3_u02_r16_network.node[33].content_store 	p_hit[33] 	0.26659403285283
scalar tree_4_3_u02_r16_network.node[33].content_store 	hits[33] 	3181
scalar tree_4_3_u02_r16_network.node[33].content_store 	misses[33] 	8751
scalar tree_4_3_u02_r16_network.node[33].content_store 	decision_yes[33] 	299
scalar tree_4_3_u02_r16_network.node[33].content_store 	decision_no[33] 	8452
scalar tree_4_3_u02_r16_network.node[33].content_store 	decision_ratio[33] 	0.034167523711576
scalar tree_4_3_u02_r16_network.node[34].core_layer 	interests[34] 	11967
scalar tree_4_3_u02_r16_network.node[34].core_layer 	data[34] 	8819
scalar tree_4_3_u02_r16_network.node[34].content_store 	p_hit[34] 	0.26305673936659
scalar tree_4_3_u02_r16_network.node[34].content_store 	hits[34] 	3148
scalar tree_4_3_u02_r16_network.node[34].content_store 	misses[34] 	8819
scalar tree_4_3_u02_r16_network.node[34].content_store 	decision_yes[34] 	271
scalar tree_4_3_u02_r16_network.node[34].content_store 	decision_no[34] 	8548
scalar tree_4_3_u02_r16_network.node[34].content_store 	decision_ratio[34] 	0.030729107608572
scalar tree_4_3_u02_r16_network.node[35].core_layer 	interests[35] 	12090
scalar tree_4_3_u02_r16_network.node[35].core_layer 	data[35] 	8929
scalar tree_4_3_u02_r16_network.node[35].content_store 	p_hit[35] 	0.26145574855252
scalar tree_4_3_u02_r16_network.node[35].content_store 	hits[35] 	3161
scalar tree_4_3_u02_r16_network.node[35].content_store 	misses[35] 	8929
scalar tree_4_3_u02_r16_network.node[35].content_store 	decision_yes[35] 	285
scalar tree_4_3_u02_r16_network.node[35].content_store 	decision_no[35] 	8644
scalar tree_4_3_u02_r16_network.node[35].content_store 	decision_ratio[35] 	0.03191846791354
scalar tree_4_3_u02_r16_network.node[36].core_layer 	interests[36] 	11850
scalar tree_4_3_u02_r16_network.node[36].core_layer 	data[36] 	8745
scalar tree_4_3_u02_r16_network.node[36].content_store 	p_hit[36] 	0.26210970464135
scalar tree_4_3_u02_r16_network.node[36].content_store 	hits[36] 	3106
scalar tree_4_3_u02_r16_network.node[36].content_store 	misses[36] 	8744
scalar tree_4_3_u02_r16_network.node[36].content_store 	decision_yes[36] 	270
scalar tree_4_3_u02_r16_network.node[36].content_store 	decision_no[36] 	8475
scalar tree_4_3_u02_r16_network.node[36].content_store 	decision_ratio[36] 	0.030874785591767
scalar tree_4_3_u02_r16_network.node[37].core_layer 	interests[37] 	12055
scalar tree_4_3_u02_r16_network.node[37].core_layer 	data[37] 	8916
scalar tree_4_3_u02_r16_network.node[37].content_store 	p_hit[37] 	0.26030692658648
scalar tree_4_3_u02_r16_network.node[37].content_store 	hits[37] 	3138
scalar tree_4_3_u02_r16_network.node[37].content_store 	misses[37] 	8917
scalar tree_4_3_u02_r16_network.node[37].content_store 	decision_yes[37] 	278
scalar tree_4_3_u02_r16_network.node[37].content_store 	decision_no[37] 	8638
scalar tree_4_3_u02_r16_network.node[37].content_store 	decision_ratio[37] 	0.031179901301032
scalar tree_4_3_u02_r16_network.node[38].core_layer 	interests[38] 	11931
scalar tree_4_3_u02_r16_network.node[38].core_layer 	data[38] 	8736
scalar tree_4_3_u02_r16_network.node[38].content_store 	p_hit[38] 	0.26778979129997
scalar tree_4_3_u02_r16_network.node[38].content_store 	hits[38] 	3195
scalar tree_4_3_u02_r16_network.node[38].content_store 	misses[38] 	8736
scalar tree_4_3_u02_r16_network.node[38].content_store 	decision_yes[38] 	252
scalar tree_4_3_u02_r16_network.node[38].content_store 	decision_no[38] 	8484
scalar tree_4_3_u02_r16_network.node[38].content_store 	decision_ratio[38] 	0.028846153846154
scalar tree_4_3_u02_r16_network.node[39].core_layer 	interests[39] 	11850
scalar tree_4_3_u02_r16_network.node[39].core_layer 	data[39] 	8630
scalar tree_4_3_u02_r16_network.node[39].content_store 	p_hit[39] 	0.27172995780591
scalar tree_4_3_u02_r16_network.node[39].content_store 	hits[39] 	3220
scalar tree_4_3_u02_r16_network.node[39].content_store 	misses[39] 	8630
scalar tree_4_3_u02_r16_network.node[39].content_store 	decision_yes[39] 	272
scalar tree_4_3_u02_r16_network.node[39].content_store 	decision_no[39] 	8358
scalar tree_4_3_u02_r16_network.node[39].content_store 	decision_ratio[39] 	0.031517960602549
scalar tree_4_3_u02_r16_network.client[13] 	hdistance[13] 	2.8069102330964
scalar tree_4_3_u02_r16_network.client[13] 	downloads[13] 	12098
scalar tree_4_3_u02_r16_network.client[13] 	avg_time[13] 	0.004243012347
scalar tree_4_3_u02_r16_network.client[14] 	hdistance[14] 	2.8140018292176
scalar tree_4_3_u02_r16_network.client[14] 	downloads[14] 	12027
scalar tree_4_3_u02_r16_network.client[14] 	avg_time[14] 	0.004251964885
scalar tree_4_3_u02_r16_network.client[15] 	hdistance[15] 	2.8053977272727
scalar tree_4_3_u02_r16_network.client[15] 	downloads[15] 	11968
scalar tree_4_3_u02_r16_network.client[15] 	avg_time[15] 	0.004242476982
scalar tree_4_3_u02_r16_network.client[16] 	hdistance[16] 	2.8271471371505
scalar tree_4_3_u02_r16_network.client[16] 	downloads[16] 	12016
scalar tree_4_3_u02_r16_network.client[16] 	avg_time[16] 	0.004276128812
scalar tree_4_3_u02_r16_network.client[17] 	hdistance[17] 	2.8485478904885
scalar tree_4_3_u02_r16_network.client[17] 	downloads[17] 	12017
scalar tree_4_3_u02_r16_network.client[17] 	avg_time[17] 	0.00430456553
scalar tree_4_3_u02_r16_network.client[18] 	hdistance[18] 	2.8279085294609
scalar tree_4_3_u02_r16_network.client[18] 	downloads[18] 	11982
scalar tree_4_3_u02_r16_network.client[18] 	avg_time[18] 	0.004275743947
scalar tree_4_3_u02_r16_network.client[19] 	hdistance[19] 	2.819012345679
scalar tree_4_3_u02_r16_network.client[19] 	downloads[19] 	12150
scalar tree_4_3_u02_r16_network.client[19] 	avg_time[19] 	0.004259914651
scalar tree_4_3_u02_r16_network.client[20] 	hdistance[20] 	2.8225833333333
scalar tree_4_3_u02_r16_network.client[20] 	downloads[20] 	12000
scalar tree_4_3_u02_r16_network.client[20] 	avg_time[20] 	0.004265496956
scalar tree_4_3_u02_r16_network.client[21] 	hdistance[21] 	2.8617277791635
scalar tree_4_3_u02_r16_network.client[21] 	downloads[21] 	12027
scalar tree_4_3_u02_r16_network.client[21] 	avg_time[21] 	0.004325264133
scalar tree_4_3_u02_r16_network.client[22] 	hdistance[22] 	2.8246801485762
scalar tree_4_3_u02_r16_network.client[22] 	downloads[22] 	12115
scalar tree_4_3_u02_r16_network.client[22] 	avg_time[22] 	0.0042710495
scalar tree_4_3_u02_r16_network.client[23] 	hdistance[23] 	2.8502531750643
scalar tree_4_3_u02_r16_network.client[23] 	downloads[23] 	12047
scalar tree_4_3_u02_r16_network.client[23] 	avg_time[23] 	0.004307127391
scalar tree_4_3_u02_r16_network.client[24] 	hdistance[24] 	2.8377814845705
scalar tree_4_3_u02_r16_network.client[24] 	downloads[24] 	11990
scalar tree_4_3_u02_r16_network.client[24] 	avg_time[24] 	0.004289571628
scalar tree_4_3_u02_r16_network.client[25] 	hdistance[25] 	2.8364552708946
scalar tree_4_3_u02_r16_network.client[25] 	downloads[25] 	11905
scalar tree_4_3_u02_r16_network.client[25] 	avg_time[25] 	0.004285927288
scalar tree_4_3_u02_r16_network.client[26] 	hdistance[26] 	2.8868767055321
scalar tree_4_3_u02_r16_network.client[26] 	downloads[26] 	12093
scalar tree_4_3_u02_r16_network.client[26] 	avg_time[26] 	0.004362024616
scalar tree_4_3_u02_r16_network.client[27] 	hdistance[27] 	2.8407595569251
scalar tree_4_3_u02_r16_network.client[27] 	downloads[27] 	12007
scalar tree_4_3_u02_r16_network.client[27] 	avg_time[27] 	0.004294991588
scalar tree_4_3_u02_r16_network.client[28] 	hdistance[28] 	2.8449114132674
scalar tree_4_3_u02_r16_network.client[28] 	downloads[28] 	12135
scalar tree_4_3_u02_r16_network.client[28] 	avg_time[28] 	0.004298083367
scalar tree_4_3_u02_r16_network.client[29] 	hdistance[29] 	2.8235932542995
scalar tree_4_3_u02_r16_network.client[29] 	downloads[29] 	11978
scalar tree_4_3_u02_r16_network.client[29] 	avg_time[29] 	0.004269324098
scalar tree_4_3_u02_r16_network.client[30] 	hdistance[30] 	2.8469224955916
scalar tree_4_3_u02_r16_network.client[30] 	downloads[30] 	11909
scalar tree_4_3_u02_r16_network.client[30] 	avg_time[30] 	0.004306152007
scalar tree_4_3_u02_r16_network.client[31] 	hdistance[31] 	2.8404983909564
scalar tree_4_3_u02_r16_network.client[31] 	downloads[31] 	12119
scalar tree_4_3_u02_r16_network.client[31] 	avg_time[31] 	0.004292557562
scalar tree_4_3_u02_r16_network.client[32] 	hdistance[32] 	2.8062887877534
scalar tree_4_3_u02_r16_network.client[32] 	downloads[32] 	12085
scalar tree_4_3_u02_r16_network.client[32] 	avg_time[32] 	0.004242611817
scalar tree_4_3_u02_r16_network.client[33] 	hdistance[33] 	2.8286121354341
scalar tree_4_3_u02_r16_network.client[33] 	downloads[33] 	11932
scalar tree_4_3_u02_r16_network.client[33] 	avg_time[33] 	0.004276686749
scalar tree_4_3_u02_r16_network.client[34] 	hdistance[34] 	2.8546837135456
scalar tree_4_3_u02_r16_network.client[34] 	downloads[34] 	11967
scalar tree_4_3_u02_r16_network.client[34] 	avg_time[34] 	0.004312606483
scalar tree_4_3_u02_r16_network.client[35] 	hdistance[35] 	2.8422663358147
scalar tree_4_3_u02_r16_network.client[35] 	downloads[35] 	12090
scalar tree_4_3_u02_r16_network.client[35] 	avg_time[35] 	0.004302891942
scalar tree_4_3_u02_r16_network.client[36] 	hdistance[36] 	2.848704750654
scalar tree_4_3_u02_r16_network.client[36] 	downloads[36] 	11851
scalar tree_4_3_u02_r16_network.client[36] 	avg_time[36] 	0.004308037379
scalar tree_4_3_u02_r16_network.client[37] 	hdistance[37] 	2.8548199767712
scalar tree_4_3_u02_r16_network.client[37] 	downloads[37] 	12054
scalar tree_4_3_u02_r16_network.client[37] 	avg_time[37] 	0.004319115692
scalar tree_4_3_u02_r16_network.client[38] 	hdistance[38] 	2.8353029922052
scalar tree_4_3_u02_r16_network.client[38] 	downloads[38] 	11931
scalar tree_4_3_u02_r16_network.client[38] 	avg_time[38] 	0.004284633711
scalar tree_4_3_u02_r16_network.client[39] 	hdistance[39] 	2.8155274261603
scalar tree_4_3_u02_r16_network.client[39] 	downloads[39] 	11850
scalar tree_4_3_u02_r16_network.client[39] 	avg_time[39] 	0.004256368351
