version 2
run General-47-20160820-07:23:37-856
attr a 0.9
attr cd lcd
attr configname General
attr cr lru
attr datetime 20160820-07:23:37
attr experiment General
attr fsize 1
attr inifile hw5115/scenario_A/SPR-LCD.ini
attr iterationvars "$name=tree_4_3, $un=02, $rep=8, $cd=lcd, $cr=lru, $fsize=1, $a=0.9, $sl=spr, $ttl=1000, $variance=0.05"
attr iterationvars2 "$name=tree_4_3, $un=02, $rep=8, $cd=lcd, $cr=lru, $fsize=1, $a=0.9, $sl=spr, $ttl=1000, $variance=0.05, $repetition=0"
attr measurement "$name=tree_4_3, $un=02, $rep=8, $cd=lcd, $cr=lru, $fsize=1, $a=0.9, $sl=spr, $ttl=1000, $variance=0.05"
attr name tree_4_3
attr network networks.${name}_u${un}_r${rep}_network
attr processid 856
attr rep 8
attr repetition 0
attr replication #0
attr resultdir results
attr runnumber 47
attr seedset 8
attr sl spr
attr ttl 1000
attr un 02
attr variance 0.05

scalar . 	a 	0.9
scalar . 	fsize 	1
scalar . 	rep 	8
scalar . 	ttl 	1000
scalar . 	un 	02
scalar . 	variance 	0.05
scalar tree_4_3_u02_r8_network.content_distribution 	repo-0 	0
scalar tree_4_3_u02_r8_network.content_distribution 	client-0 	13
scalar tree_4_3_u02_r8_network.content_distribution 	client-1 	14
scalar tree_4_3_u02_r8_network.content_distribution 	client-2 	15
scalar tree_4_3_u02_r8_network.content_distribution 	client-3 	16
scalar tree_4_3_u02_r8_network.content_distribution 	client-4 	17
scalar tree_4_3_u02_r8_network.content_distribution 	client-5 	18
scalar tree_4_3_u02_r8_network.content_distribution 	client-6 	19
scalar tree_4_3_u02_r8_network.content_distribution 	client-7 	20
scalar tree_4_3_u02_r8_network.content_distribution 	client-8 	21
scalar tree_4_3_u02_r8_network.content_distribution 	client-9 	22
scalar tree_4_3_u02_r8_network.content_distribution 	client-10 	23
scalar tree_4_3_u02_r8_network.content_distribution 	client-11 	24
scalar tree_4_3_u02_r8_network.content_distribution 	client-12 	25
scalar tree_4_3_u02_r8_network.content_distribution 	client-13 	26
scalar tree_4_3_u02_r8_network.content_distribution 	client-14 	27
scalar tree_4_3_u02_r8_network.content_distribution 	client-15 	28
scalar tree_4_3_u02_r8_network.content_distribution 	client-16 	29
scalar tree_4_3_u02_r8_network.content_distribution 	client-17 	30
scalar tree_4_3_u02_r8_network.content_distribution 	client-18 	31
scalar tree_4_3_u02_r8_network.content_distribution 	client-19 	32
scalar tree_4_3_u02_r8_network.content_distribution 	client-20 	33
scalar tree_4_3_u02_r8_network.content_distribution 	client-21 	34
scalar tree_4_3_u02_r8_network.content_distribution 	client-22 	35
scalar tree_4_3_u02_r8_network.content_distribution 	client-23 	36
scalar tree_4_3_u02_r8_network.content_distribution 	client-24 	37
scalar tree_4_3_u02_r8_network.content_distribution 	client-25 	38
scalar tree_4_3_u02_r8_network.content_distribution 	client-26 	39
scalar tree_4_3_u02_r8_network.content_distribution 	repo-0_card 	100000
scalar tree_4_3_u02_r8_network.content_distribution 	repo-0_price 	0
scalar tree_4_3_u02_r8_network.statistics 	stabilization_time 	1068.3
scalar tree_4_3_u02_r8_network.statistics 	p_hit 	0.18715034601566
scalar tree_4_3_u02_r8_network.statistics 	interests 	25570.775
scalar tree_4_3_u02_r8_network.statistics 	data 	17449.125
scalar tree_4_3_u02_r8_network.statistics 	hdistance 	2.8423948178907
scalar tree_4_3_u02_r8_network.statistics 	avg_time 	0.004296878622
scalar tree_4_3_u02_r8_network.statistics 	downloads 	324870
scalar tree_4_3_u02_r8_network.statistics 	total_cost 	0
scalar tree_4_3_u02_r8_network.statistics 	total_replicas 	100000
scalar tree_4_3_u02_r8_network.statistics 	inner_hit 	0.30608551112753
scalar tree_4_3_u02_r8_network.node[0].core_layer 	interests[0] 	227647
scalar tree_4_3_u02_r8_network.node[0].core_layer 	repo_load[0] 	225432
scalar tree_4_3_u02_r8_network.node[0].core_layer 	data[0] 	0
scalar tree_4_3_u02_r8_network.node[0].core_layer 	repo_int[0] 	225432
scalar tree_4_3_u02_r8_network.node[0].content_store 	p_hit[0] 	0.0097299766744126
scalar tree_4_3_u02_r8_network.node[0].content_store 	hits[0] 	2215
scalar tree_4_3_u02_r8_network.node[0].content_store 	misses[0] 	225432
scalar tree_4_3_u02_r8_network.node[0].content_store 	decision_yes[0] 	225432
scalar tree_4_3_u02_r8_network.node[0].content_store 	decision_no[0] 	0
scalar tree_4_3_u02_r8_network.node[0].content_store 	decision_ratio[0] 	1
scalar tree_4_3_u02_r8_network.node[1].core_layer 	interests[1] 	76996
scalar tree_4_3_u02_r8_network.node[1].core_layer 	data[1] 	75736
scalar tree_4_3_u02_r8_network.node[1].content_store 	p_hit[1] 	0.016377474154502
scalar tree_4_3_u02_r8_network.node[1].content_store 	hits[1] 	1261
scalar tree_4_3_u02_r8_network.node[1].content_store 	misses[1] 	75735
scalar tree_4_3_u02_r8_network.node[1].content_store 	decision_yes[1] 	719
scalar tree_4_3_u02_r8_network.node[1].content_store 	decision_no[1] 	75017
scalar tree_4_3_u02_r8_network.node[1].content_store 	decision_ratio[1] 	0.009493503749868
scalar tree_4_3_u02_r8_network.node[2].core_layer 	interests[2] 	77363
scalar tree_4_3_u02_r8_network.node[2].core_layer 	data[2] 	76024
scalar tree_4_3_u02_r8_network.node[2].content_store 	p_hit[2] 	0.017308015459587
scalar tree_4_3_u02_r8_network.node[2].content_store 	hits[2] 	1339
scalar tree_4_3_u02_r8_network.node[2].content_store 	misses[2] 	76024
scalar tree_4_3_u02_r8_network.node[2].content_store 	decision_yes[2] 	744
scalar tree_4_3_u02_r8_network.node[2].content_store 	decision_no[2] 	75280
scalar tree_4_3_u02_r8_network.node[2].content_store 	decision_ratio[2] 	0.0097863832473956
scalar tree_4_3_u02_r8_network.node[3].core_layer 	interests[3] 	77167
scalar tree_4_3_u02_r8_network.node[3].core_layer 	data[3] 	75888
scalar tree_4_3_u02_r8_network.node[3].content_store 	p_hit[3] 	0.016574442443013
scalar tree_4_3_u02_r8_network.node[3].content_store 	hits[3] 	1279
scalar tree_4_3_u02_r8_network.node[3].content_store 	misses[3] 	75888
scalar tree_4_3_u02_r8_network.node[3].content_store 	decision_yes[3] 	752
scalar tree_4_3_u02_r8_network.node[3].content_store 	decision_no[3] 	75136
scalar tree_4_3_u02_r8_network.node[3].content_store 	decision_ratio[3] 	0.0099093400801181
scalar tree_4_3_u02_r8_network.node[4].core_layer 	interests[4] 	35373
scalar tree_4_3_u02_r8_network.node[4].core_layer 	data[4] 	34279
scalar tree_4_3_u02_r8_network.node[4].content_store 	p_hit[4] 	0.030927543606706
scalar tree_4_3_u02_r8_network.node[4].content_store 	hits[4] 	1094
scalar tree_4_3_u02_r8_network.node[4].content_store 	misses[4] 	34279
scalar tree_4_3_u02_r8_network.node[4].content_store 	decision_yes[4] 	496
scalar tree_4_3_u02_r8_network.node[4].content_store 	decision_no[4] 	33783
scalar tree_4_3_u02_r8_network.node[4].content_store 	decision_ratio[4] 	0.014469500277138
scalar tree_4_3_u02_r8_network.node[5].core_layer 	interests[5] 	17495
scalar tree_4_3_u02_r8_network.node[5].core_layer 	data[5] 	16977
scalar tree_4_3_u02_r8_network.node[5].content_store 	p_hit[5] 	0.029665618748214
scalar tree_4_3_u02_r8_network.node[5].content_store 	hits[5] 	519
scalar tree_4_3_u02_r8_network.node[5].content_store 	misses[5] 	16976
scalar tree_4_3_u02_r8_network.node[5].content_store 	decision_yes[5] 	352
scalar tree_4_3_u02_r8_network.node[5].content_store 	decision_no[5] 	16625
scalar tree_4_3_u02_r8_network.node[5].content_store 	decision_ratio[5] 	0.020733934146198
scalar tree_4_3_u02_r8_network.node[6].core_layer 	interests[6] 	26517
scalar tree_4_3_u02_r8_network.node[6].core_layer 	data[6] 	25741
scalar tree_4_3_u02_r8_network.node[6].content_store 	p_hit[6] 	0.029264245578308
scalar tree_4_3_u02_r8_network.node[6].content_store 	hits[6] 	776
scalar tree_4_3_u02_r8_network.node[6].content_store 	misses[6] 	25741
scalar tree_4_3_u02_r8_network.node[6].content_store 	decision_yes[6] 	413
scalar tree_4_3_u02_r8_network.node[6].content_store 	decision_no[6] 	25328
scalar tree_4_3_u02_r8_network.node[6].content_store 	decision_ratio[6] 	0.016044442717843
scalar tree_4_3_u02_r8_network.node[7].core_layer 	interests[7] 	35474
scalar tree_4_3_u02_r8_network.node[7].core_layer 	data[7] 	34379
scalar tree_4_3_u02_r8_network.node[7].content_store 	p_hit[7] 	0.030839488075774
scalar tree_4_3_u02_r8_network.node[7].content_store 	hits[7] 	1094
scalar tree_4_3_u02_r8_network.node[7].content_store 	misses[7] 	34380
scalar tree_4_3_u02_r8_network.node[7].content_store 	decision_yes[7] 	517
scalar tree_4_3_u02_r8_network.node[7].content_store 	decision_no[7] 	33862
scalar tree_4_3_u02_r8_network.node[7].content_store 	decision_ratio[7] 	0.015038250094534
scalar tree_4_3_u02_r8_network.node[8].core_layer 	interests[8] 	26754
scalar tree_4_3_u02_r8_network.node[8].core_layer 	data[8] 	25939
scalar tree_4_3_u02_r8_network.node[8].content_store 	p_hit[8] 	0.030462734544367
scalar tree_4_3_u02_r8_network.node[8].content_store 	hits[8] 	815
scalar tree_4_3_u02_r8_network.node[8].content_store 	misses[8] 	25939
scalar tree_4_3_u02_r8_network.node[8].content_store 	decision_yes[8] 	462
scalar tree_4_3_u02_r8_network.node[8].content_store 	decision_no[8] 	25477
scalar tree_4_3_u02_r8_network.node[8].content_store 	decision_ratio[8] 	0.017811018157986
scalar tree_4_3_u02_r8_network.node[9].core_layer 	interests[9] 	17547
scalar tree_4_3_u02_r8_network.node[9].core_layer 	data[9] 	17045
scalar tree_4_3_u02_r8_network.node[9].content_store 	p_hit[9] 	0.028608879010657
scalar tree_4_3_u02_r8_network.node[9].content_store 	hits[9] 	502
scalar tree_4_3_u02_r8_network.node[9].content_store 	misses[9] 	17045
scalar tree_4_3_u02_r8_network.node[9].content_store 	decision_yes[9] 	360
scalar tree_4_3_u02_r8_network.node[9].content_store 	decision_no[9] 	16685
scalar tree_4_3_u02_r8_network.node[9].content_store 	decision_ratio[9] 	0.021120563215019
scalar tree_4_3_u02_r8_network.node[10].core_layer 	interests[10] 	35401
scalar tree_4_3_u02_r8_network.node[10].core_layer 	data[10] 	34286
scalar tree_4_3_u02_r8_network.node[10].content_store 	p_hit[10] 	0.031468037626056
scalar tree_4_3_u02_r8_network.node[10].content_store 	hits[10] 	1114
scalar tree_4_3_u02_r8_network.node[10].content_store 	misses[10] 	34287
scalar tree_4_3_u02_r8_network.node[10].content_store 	decision_yes[10] 	498
scalar tree_4_3_u02_r8_network.node[10].content_store 	decision_no[10] 	33788
scalar tree_4_3_u02_r8_network.node[10].content_store 	decision_ratio[10] 	0.014524878959342
scalar tree_4_3_u02_r8_network.node[11].core_layer 	interests[11] 	26519
scalar tree_4_3_u02_r8_network.node[11].core_layer 	data[11] 	25705
scalar tree_4_3_u02_r8_network.node[11].content_store 	p_hit[11] 	0.030657264602738
scalar tree_4_3_u02_r8_network.node[11].content_store 	hits[11] 	813
scalar tree_4_3_u02_r8_network.node[11].content_store 	misses[11] 	25706
scalar tree_4_3_u02_r8_network.node[11].content_store 	decision_yes[11] 	416
scalar tree_4_3_u02_r8_network.node[11].content_store 	decision_no[11] 	25289
scalar tree_4_3_u02_r8_network.node[11].content_store 	decision_ratio[11] 	0.016183621863451
scalar tree_4_3_u02_r8_network.node[12].core_layer 	interests[12] 	17708
scalar tree_4_3_u02_r8_network.node[12].core_layer 	data[12] 	17176
scalar tree_4_3_u02_r8_network.node[12].content_store 	p_hit[12] 	0.029986446803705
scalar tree_4_3_u02_r8_network.node[12].content_store 	hits[12] 	531
scalar tree_4_3_u02_r8_network.node[12].content_store 	misses[12] 	17177
scalar tree_4_3_u02_r8_network.node[12].content_store 	decision_yes[12] 	365
scalar tree_4_3_u02_r8_network.node[12].content_store 	decision_no[12] 	16811
scalar tree_4_3_u02_r8_network.node[12].content_store 	decision_ratio[12] 	0.021250582207732
scalar tree_4_3_u02_r8_network.node[13].core_layer 	interests[13] 	12114
scalar tree_4_3_u02_r8_network.node[13].core_layer 	data[13] 	8904
scalar tree_4_3_u02_r8_network.node[13].content_store 	p_hit[13] 	0.26498266468549
scalar tree_4_3_u02_r8_network.node[13].content_store 	hits[13] 	3210
scalar tree_4_3_u02_r8_network.node[13].content_store 	misses[13] 	8904
scalar tree_4_3_u02_r8_network.node[13].content_store 	decision_yes[13] 	273
scalar tree_4_3_u02_r8_network.node[13].content_store 	decision_no[13] 	8631
scalar tree_4_3_u02_r8_network.node[13].content_store 	decision_ratio[13] 	0.030660377358491
scalar tree_4_3_u02_r8_network.node[14].core_layer 	interests[14] 	12172
scalar tree_4_3_u02_r8_network.node[14].core_layer 	data[14] 	8933
scalar tree_4_3_u02_r8_network.node[14].content_store 	p_hit[14] 	0.26610253039763
scalar tree_4_3_u02_r8_network.node[14].content_store 	hits[14] 	3239
scalar tree_4_3_u02_r8_network.node[14].content_store 	misses[14] 	8933
scalar tree_4_3_u02_r8_network.node[14].content_store 	decision_yes[14] 	265
scalar tree_4_3_u02_r8_network.node[14].content_store 	decision_no[14] 	8668
scalar tree_4_3_u02_r8_network.node[14].content_store 	decision_ratio[14] 	0.029665286018135
scalar tree_4_3_u02_r8_network.node[15].core_layer 	interests[15] 	11834
scalar tree_4_3_u02_r8_network.node[15].core_layer 	data[15] 	8620
scalar tree_4_3_u02_r8_network.node[15].content_store 	p_hit[15] 	0.27159033293899
scalar tree_4_3_u02_r8_network.node[15].content_store 	hits[15] 	3214
scalar tree_4_3_u02_r8_network.node[15].content_store 	misses[15] 	8620
scalar tree_4_3_u02_r8_network.node[15].content_store 	decision_yes[15] 	254
scalar tree_4_3_u02_r8_network.node[15].content_store 	decision_no[15] 	8366
scalar tree_4_3_u02_r8_network.node[15].content_store 	decision_ratio[15] 	0.029466357308585
scalar tree_4_3_u02_r8_network.node[16].core_layer 	interests[16] 	12094
scalar tree_4_3_u02_r8_network.node[16].core_layer 	data[16] 	8917
scalar tree_4_3_u02_r8_network.node[16].content_store 	p_hit[16] 	0.26277492971722
scalar tree_4_3_u02_r8_network.node[16].content_store 	hits[16] 	3178
scalar tree_4_3_u02_r8_network.node[16].content_store 	misses[16] 	8916
scalar tree_4_3_u02_r8_network.node[16].content_store 	decision_yes[16] 	302
scalar tree_4_3_u02_r8_network.node[16].content_store 	decision_no[16] 	8615
scalar tree_4_3_u02_r8_network.node[16].content_store 	decision_ratio[16] 	0.033867892789055
scalar tree_4_3_u02_r8_network.node[17].core_layer 	interests[17] 	11985
scalar tree_4_3_u02_r8_network.node[17].core_layer 	data[17] 	8808
scalar tree_4_3_u02_r8_network.node[17].content_store 	p_hit[17] 	0.26508135168961
scalar tree_4_3_u02_r8_network.node[17].content_store 	hits[17] 	3177
scalar tree_4_3_u02_r8_network.node[17].content_store 	misses[17] 	8808
scalar tree_4_3_u02_r8_network.node[17].content_store 	decision_yes[17] 	268
scalar tree_4_3_u02_r8_network.node[17].content_store 	decision_no[17] 	8540
scalar tree_4_3_u02_r8_network.node[17].content_store 	decision_ratio[17] 	0.030426884650318
scalar tree_4_3_u02_r8_network.node[18].core_layer 	interests[18] 	11870
scalar tree_4_3_u02_r8_network.node[18].core_layer 	data[18] 	8688
scalar tree_4_3_u02_r8_network.node[18].content_store 	p_hit[18] 	0.26807076663858
scalar tree_4_3_u02_r8_network.node[18].content_store 	hits[18] 	3182
scalar tree_4_3_u02_r8_network.node[18].content_store 	misses[18] 	8688
scalar tree_4_3_u02_r8_network.node[18].content_store 	decision_yes[18] 	251
scalar tree_4_3_u02_r8_network.node[18].content_store 	decision_no[18] 	8437
scalar tree_4_3_u02_r8_network.node[18].content_store 	decision_ratio[18] 	0.028890423572744
scalar tree_4_3_u02_r8_network.node[19].core_layer 	interests[19] 	11992
scalar tree_4_3_u02_r8_network.node[19].core_layer 	data[19] 	8751
scalar tree_4_3_u02_r8_network.node[19].content_store 	p_hit[19] 	0.270263509006
scalar tree_4_3_u02_r8_network.node[19].content_store 	hits[19] 	3241
scalar tree_4_3_u02_r8_network.node[19].content_store 	misses[19] 	8751
scalar tree_4_3_u02_r8_network.node[19].content_store 	decision_yes[19] 	251
scalar tree_4_3_u02_r8_network.node[19].content_store 	decision_no[19] 	8500
scalar tree_4_3_u02_r8_network.node[19].content_store 	decision_ratio[19] 	0.028682436292995
scalar tree_4_3_u02_r8_network.node[20].core_layer 	interests[20] 	11996
scalar tree_4_3_u02_r8_network.node[20].core_layer 	data[20] 	8822
scalar tree_4_3_u02_r8_network.node[20].content_store 	p_hit[20] 	0.26458819606536
scalar tree_4_3_u02_r8_network.node[20].content_store 	hits[20] 	3174
scalar tree_4_3_u02_r8_network.node[20].content_store 	misses[20] 	8822
scalar tree_4_3_u02_r8_network.node[20].content_store 	decision_yes[20] 	262
scalar tree_4_3_u02_r8_network.node[20].content_store 	decision_no[20] 	8560
scalar tree_4_3_u02_r8_network.node[20].content_store 	decision_ratio[20] 	0.029698481070052
scalar tree_4_3_u02_r8_network.node[21].core_layer 	interests[21] 	12260
scalar tree_4_3_u02_r8_network.node[21].core_layer 	data[21] 	8944
scalar tree_4_3_u02_r8_network.node[21].content_store 	p_hit[21] 	0.27047308319739
scalar tree_4_3_u02_r8_network.node[21].content_store 	hits[21] 	3316
scalar tree_4_3_u02_r8_network.node[21].content_store 	misses[21] 	8944
scalar tree_4_3_u02_r8_network.node[21].content_store 	decision_yes[21] 	263
scalar tree_4_3_u02_r8_network.node[21].content_store 	decision_no[21] 	8681
scalar tree_4_3_u02_r8_network.node[21].content_store 	decision_ratio[21] 	0.02940518783542
scalar tree_4_3_u02_r8_network.node[22].core_layer 	interests[22] 	11758
scalar tree_4_3_u02_r8_network.node[22].core_layer 	data[22] 	8620
scalar tree_4_3_u02_r8_network.node[22].content_store 	p_hit[22] 	0.26688212281
scalar tree_4_3_u02_r8_network.node[22].content_store 	hits[22] 	3138
scalar tree_4_3_u02_r8_network.node[22].content_store 	misses[22] 	8620
scalar tree_4_3_u02_r8_network.node[22].content_store 	decision_yes[22] 	279
scalar tree_4_3_u02_r8_network.node[22].content_store 	decision_no[22] 	8341
scalar tree_4_3_u02_r8_network.node[22].content_store 	decision_ratio[22] 	0.032366589327146
scalar tree_4_3_u02_r8_network.node[23].core_layer 	interests[23] 	12138
scalar tree_4_3_u02_r8_network.node[23].core_layer 	data[23] 	8903
scalar tree_4_3_u02_r8_network.node[23].content_store 	p_hit[23] 	0.2665183720547
scalar tree_4_3_u02_r8_network.node[23].content_store 	hits[23] 	3235
scalar tree_4_3_u02_r8_network.node[23].content_store 	misses[23] 	8903
scalar tree_4_3_u02_r8_network.node[23].content_store 	decision_yes[23] 	264
scalar tree_4_3_u02_r8_network.node[23].content_store 	decision_no[23] 	8639
scalar tree_4_3_u02_r8_network.node[23].content_store 	decision_ratio[23] 	0.029652925980007
scalar tree_4_3_u02_r8_network.node[24].core_layer 	interests[24] 	12169
scalar tree_4_3_u02_r8_network.node[24].core_layer 	data[24] 	8969
scalar tree_4_3_u02_r8_network.node[24].content_store 	p_hit[24] 	0.2629632673186
scalar tree_4_3_u02_r8_network.node[24].content_store 	hits[24] 	3200
scalar tree_4_3_u02_r8_network.node[24].content_store 	misses[24] 	8969
scalar tree_4_3_u02_r8_network.node[24].content_store 	decision_yes[24] 	266
scalar tree_4_3_u02_r8_network.node[24].content_store 	decision_no[24] 	8703
scalar tree_4_3_u02_r8_network.node[24].content_store 	decision_ratio[24] 	0.02965770988962
scalar tree_4_3_u02_r8_network.node[25].core_layer 	interests[25] 	12131
scalar tree_4_3_u02_r8_network.node[25].core_layer 	data[25] 	8879
scalar tree_4_3_u02_r8_network.node[25].content_store 	p_hit[25] 	0.26807353062402
scalar tree_4_3_u02_r8_network.node[25].content_store 	hits[25] 	3252
scalar tree_4_3_u02_r8_network.node[25].content_store 	misses[25] 	8879
scalar tree_4_3_u02_r8_network.node[25].content_store 	decision_yes[25] 	290
scalar tree_4_3_u02_r8_network.node[25].content_store 	decision_no[25] 	8589
scalar tree_4_3_u02_r8_network.node[25].content_store 	decision_ratio[25] 	0.032661335736006
scalar tree_4_3_u02_r8_network.node[26].core_layer 	interests[26] 	12178
scalar tree_4_3_u02_r8_network.node[26].core_layer 	data[26] 	8968
scalar tree_4_3_u02_r8_network.node[26].content_store 	p_hit[26] 	0.26359008047298
scalar tree_4_3_u02_r8_network.node[26].content_store 	hits[26] 	3210
scalar tree_4_3_u02_r8_network.node[26].content_store 	misses[26] 	8968
scalar tree_4_3_u02_r8_network.node[26].content_store 	decision_yes[26] 	268
scalar tree_4_3_u02_r8_network.node[26].content_store 	decision_no[26] 	8700
scalar tree_4_3_u02_r8_network.node[26].content_store 	decision_ratio[26] 	0.029884032114184
scalar tree_4_3_u02_r8_network.node[27].core_layer 	interests[27] 	12077
scalar tree_4_3_u02_r8_network.node[27].core_layer 	data[27] 	8907
scalar tree_4_3_u02_r8_network.node[27].content_store 	p_hit[27] 	0.26248240457067
scalar tree_4_3_u02_r8_network.node[27].content_store 	hits[27] 	3170
scalar tree_4_3_u02_r8_network.node[27].content_store 	misses[27] 	8907
scalar tree_4_3_u02_r8_network.node[27].content_store 	decision_yes[27] 	257
scalar tree_4_3_u02_r8_network.node[27].content_store 	decision_no[27] 	8650
scalar tree_4_3_u02_r8_network.node[27].content_store 	decision_ratio[27] 	0.028853710564724
scalar tree_4_3_u02_r8_network.node[28].core_layer 	interests[28] 	12164
scalar tree_4_3_u02_r8_network.node[28].core_layer 	data[28] 	8982
scalar tree_4_3_u02_r8_network.node[28].content_store 	p_hit[28] 	0.26159158171654
scalar tree_4_3_u02_r8_network.node[28].content_store 	hits[28] 	3182
scalar tree_4_3_u02_r8_network.node[28].content_store 	misses[28] 	8982
scalar tree_4_3_u02_r8_network.node[28].content_store 	decision_yes[28] 	285
scalar tree_4_3_u02_r8_network.node[28].content_store 	decision_no[28] 	8697
scalar tree_4_3_u02_r8_network.node[28].content_store 	decision_ratio[28] 	0.031730126920508
scalar tree_4_3_u02_r8_network.node[29].core_layer 	interests[29] 	11871
scalar tree_4_3_u02_r8_network.node[29].core_layer 	data[29] 	8744
scalar tree_4_3_u02_r8_network.node[29].content_store 	p_hit[29] 	0.26341504506781
scalar tree_4_3_u02_r8_network.node[29].content_store 	hits[29] 	3127
scalar tree_4_3_u02_r8_network.node[29].content_store 	misses[29] 	8744
scalar tree_4_3_u02_r8_network.node[29].content_store 	decision_yes[29] 	256
scalar tree_4_3_u02_r8_network.node[29].content_store 	decision_no[29] 	8488
scalar tree_4_3_u02_r8_network.node[29].content_store 	decision_ratio[29] 	0.029277218664227
scalar tree_4_3_u02_r8_network.node[30].core_layer 	interests[30] 	11873
scalar tree_4_3_u02_r8_network.node[30].core_layer 	data[30] 	8803
scalar tree_4_3_u02_r8_network.node[30].content_store 	p_hit[30] 	0.25856986439821
scalar tree_4_3_u02_r8_network.node[30].content_store 	hits[30] 	3070
scalar tree_4_3_u02_r8_network.node[30].content_store 	misses[30] 	8803
scalar tree_4_3_u02_r8_network.node[30].content_store 	decision_yes[30] 	246
scalar tree_4_3_u02_r8_network.node[30].content_store 	decision_no[30] 	8557
scalar tree_4_3_u02_r8_network.node[30].content_store 	decision_ratio[30] 	0.02794501874361
scalar tree_4_3_u02_r8_network.node[31].core_layer 	interests[31] 	12088
scalar tree_4_3_u02_r8_network.node[31].core_layer 	data[31] 	8885
scalar tree_4_3_u02_r8_network.node[31].content_store 	p_hit[31] 	0.26497352746525
scalar tree_4_3_u02_r8_network.node[31].content_store 	hits[31] 	3203
scalar tree_4_3_u02_r8_network.node[31].content_store 	misses[31] 	8885
scalar tree_4_3_u02_r8_network.node[31].content_store 	decision_yes[31] 	283
scalar tree_4_3_u02_r8_network.node[31].content_store 	decision_no[31] 	8602
scalar tree_4_3_u02_r8_network.node[31].content_store 	decision_ratio[31] 	0.031851435002814
scalar tree_4_3_u02_r8_network.node[32].core_layer 	interests[32] 	12110
scalar tree_4_3_u02_r8_network.node[32].core_layer 	data[32] 	8902
scalar tree_4_3_u02_r8_network.node[32].content_store 	p_hit[32] 	0.26490503715937
scalar tree_4_3_u02_r8_network.node[32].content_store 	hits[32] 	3208
scalar tree_4_3_u02_r8_network.node[32].content_store 	misses[32] 	8902
scalar tree_4_3_u02_r8_network.node[32].content_store 	decision_yes[32] 	274
scalar tree_4_3_u02_r8_network.node[32].content_store 	decision_no[32] 	8628
scalar tree_4_3_u02_r8_network.node[32].content_store 	decision_ratio[32] 	0.030779600089867
scalar tree_4_3_u02_r8_network.node[33].core_layer 	interests[33] 	11977
scalar tree_4_3_u02_r8_network.node[33].core_layer 	data[33] 	8766
scalar tree_4_3_u02_r8_network.node[33].content_store 	p_hit[33] 	0.26809718627369
scalar tree_4_3_u02_r8_network.node[33].content_store 	hits[33] 	3211
scalar tree_4_3_u02_r8_network.node[33].content_store 	misses[33] 	8766
scalar tree_4_3_u02_r8_network.node[33].content_store 	decision_yes[33] 	271
scalar tree_4_3_u02_r8_network.node[33].content_store 	decision_no[33] 	8495
scalar tree_4_3_u02_r8_network.node[33].content_store 	decision_ratio[33] 	0.030914898471367
scalar tree_4_3_u02_r8_network.node[34].core_layer 	interests[34] 	11936
scalar tree_4_3_u02_r8_network.node[34].core_layer 	data[34] 	8732
scalar tree_4_3_u02_r8_network.node[34].content_store 	p_hit[34] 	0.26834785522788
scalar tree_4_3_u02_r8_network.node[34].content_store 	hits[34] 	3203
scalar tree_4_3_u02_r8_network.node[34].content_store 	misses[34] 	8733
scalar tree_4_3_u02_r8_network.node[34].content_store 	decision_yes[34] 	267
scalar tree_4_3_u02_r8_network.node[34].content_store 	decision_no[34] 	8465
scalar tree_4_3_u02_r8_network.node[34].content_store 	decision_ratio[34] 	0.030577187356848
scalar tree_4_3_u02_r8_network.node[35].core_layer 	interests[35] 	11984
scalar tree_4_3_u02_r8_network.node[35].core_layer 	data[35] 	8898
scalar tree_4_3_u02_r8_network.node[35].content_store 	p_hit[35] 	0.25751001335113
scalar tree_4_3_u02_r8_network.node[35].content_store 	hits[35] 	3086
scalar tree_4_3_u02_r8_network.node[35].content_store 	misses[35] 	8898
scalar tree_4_3_u02_r8_network.node[35].content_store 	decision_yes[35] 	275
scalar tree_4_3_u02_r8_network.node[35].content_store 	decision_no[35] 	8623
scalar tree_4_3_u02_r8_network.node[35].content_store 	decision_ratio[35] 	0.030905821532929
scalar tree_4_3_u02_r8_network.node[36].core_layer 	interests[36] 	12082
scalar tree_4_3_u02_r8_network.node[36].core_layer 	data[36] 	8889
scalar tree_4_3_u02_r8_network.node[36].content_store 	p_hit[36] 	0.26427743751035
scalar tree_4_3_u02_r8_network.node[36].content_store 	hits[36] 	3193
scalar tree_4_3_u02_r8_network.node[36].content_store 	misses[36] 	8889
scalar tree_4_3_u02_r8_network.node[36].content_store 	decision_yes[36] 	271
scalar tree_4_3_u02_r8_network.node[36].content_store 	decision_no[36] 	8618
scalar tree_4_3_u02_r8_network.node[36].content_store 	decision_ratio[36] 	0.030487118911014
scalar tree_4_3_u02_r8_network.node[37].core_layer 	interests[37] 	12071
scalar tree_4_3_u02_r8_network.node[37].core_layer 	data[37] 	8848
scalar tree_4_3_u02_r8_network.node[37].content_store 	p_hit[37] 	0.26700356225665
scalar tree_4_3_u02_r8_network.node[37].content_store 	hits[37] 	3223
scalar tree_4_3_u02_r8_network.node[37].content_store 	misses[37] 	8848
scalar tree_4_3_u02_r8_network.node[37].content_store 	decision_yes[37] 	286
scalar tree_4_3_u02_r8_network.node[37].content_store 	decision_no[37] 	8562
scalar tree_4_3_u02_r8_network.node[37].content_store 	decision_ratio[37] 	0.032323688969259
scalar tree_4_3_u02_r8_network.node[38].core_layer 	interests[38] 	11953
scalar tree_4_3_u02_r8_network.node[38].core_layer 	data[38] 	8804
scalar tree_4_3_u02_r8_network.node[38].content_store 	p_hit[38] 	0.26344850665105
scalar tree_4_3_u02_r8_network.node[38].content_store 	hits[38] 	3149
scalar tree_4_3_u02_r8_network.node[38].content_store 	misses[38] 	8804
scalar tree_4_3_u02_r8_network.node[38].content_store 	decision_yes[38] 	237
scalar tree_4_3_u02_r8_network.node[38].content_store 	decision_no[38] 	8567
scalar tree_4_3_u02_r8_network.node[38].content_store 	decision_ratio[38] 	0.026919582008178
scalar tree_4_3_u02_r8_network.node[39].core_layer 	interests[39] 	11993
scalar tree_4_3_u02_r8_network.node[39].core_layer 	data[39] 	8904
scalar tree_4_3_u02_r8_network.node[39].content_store 	p_hit[39] 	0.25756691403319
scalar tree_4_3_u02_r8_network.node[39].content_store 	hits[39] 	3089
scalar tree_4_3_u02_r8_network.node[39].content_store 	misses[39] 	8904
scalar tree_4_3_u02_r8_network.node[39].content_store 	decision_yes[39] 	294
scalar tree_4_3_u02_r8_network.node[39].content_store 	decision_no[39] 	8610
scalar tree_4_3_u02_r8_network.node[39].content_store 	decision_ratio[39] 	0.033018867924528
scalar tree_4_3_u02_r8_network.client[13] 	hdistance[13] 	2.8437345220406
scalar tree_4_3_u02_r8_network.client[13] 	downloads[13] 	12114
scalar tree_4_3_u02_r8_network.client[13] 	avg_time[13] 	0.004298824751
scalar tree_4_3_u02_r8_network.client[14] 	hdistance[14] 	2.8458757804798
scalar tree_4_3_u02_r8_network.client[14] 	downloads[14] 	12172
scalar tree_4_3_u02_r8_network.client[14] 	avg_time[14] 	0.004299536906
scalar tree_4_3_u02_r8_network.client[15] 	hdistance[15] 	2.8223762041575
scalar tree_4_3_u02_r8_network.client[15] 	downloads[15] 	11834
scalar tree_4_3_u02_r8_network.client[15] 	avg_time[15] 	0.004263306141
scalar tree_4_3_u02_r8_network.client[16] 	hdistance[16] 	2.8446465481604
scalar tree_4_3_u02_r8_network.client[16] 	downloads[16] 	12095
scalar tree_4_3_u02_r8_network.client[16] 	avg_time[16] 	0.004300451713
scalar tree_4_3_u02_r8_network.client[17] 	hdistance[17] 	2.8327909887359
scalar tree_4_3_u02_r8_network.client[17] 	downloads[17] 	11985
scalar tree_4_3_u02_r8_network.client[17] 	avg_time[17] 	0.004288023691
scalar tree_4_3_u02_r8_network.client[18] 	hdistance[18] 	2.8297388374052
scalar tree_4_3_u02_r8_network.client[18] 	downloads[18] 	11870
scalar tree_4_3_u02_r8_network.client[18] 	avg_time[18] 	0.004279691721
scalar tree_4_3_u02_r8_network.client[19] 	hdistance[19] 	2.8321380920614
scalar tree_4_3_u02_r8_network.client[19] 	downloads[19] 	11992
scalar tree_4_3_u02_r8_network.client[19] 	avg_time[19] 	0.004276181122
scalar tree_4_3_u02_r8_network.client[20] 	hdistance[20] 	2.8454484828276
scalar tree_4_3_u02_r8_network.client[20] 	downloads[20] 	11996
scalar tree_4_3_u02_r8_network.client[20] 	avg_time[20] 	0.004299930321
scalar tree_4_3_u02_r8_network.client[21] 	hdistance[21] 	2.8228384991843
scalar tree_4_3_u02_r8_network.client[21] 	downloads[21] 	12260
scalar tree_4_3_u02_r8_network.client[21] 	avg_time[21] 	0.004266717982
scalar tree_4_3_u02_r8_network.client[22] 	hdistance[22] 	2.8308385779895
scalar tree_4_3_u02_r8_network.client[22] 	downloads[22] 	11758
scalar tree_4_3_u02_r8_network.client[22] 	avg_time[22] 	0.004280000838
scalar tree_4_3_u02_r8_network.client[23] 	hdistance[23] 	2.8426429395288
scalar tree_4_3_u02_r8_network.client[23] 	downloads[23] 	12138
scalar tree_4_3_u02_r8_network.client[23] 	avg_time[23] 	0.004295267987
scalar tree_4_3_u02_r8_network.client[24] 	hdistance[24] 	2.853562330512
scalar tree_4_3_u02_r8_network.client[24] 	downloads[24] 	12169
scalar tree_4_3_u02_r8_network.client[24] 	avg_time[24] 	0.004312430203
scalar tree_4_3_u02_r8_network.client[25] 	hdistance[25] 	2.8257357184074
scalar tree_4_3_u02_r8_network.client[25] 	downloads[25] 	12131
scalar tree_4_3_u02_r8_network.client[25] 	avg_time[25] 	0.004271862444
scalar tree_4_3_u02_r8_network.client[26] 	hdistance[26] 	2.8461159467893
scalar tree_4_3_u02_r8_network.client[26] 	downloads[26] 	12178
scalar tree_4_3_u02_r8_network.client[26] 	avg_time[26] 	0.004303987778
scalar tree_4_3_u02_r8_network.client[27] 	hdistance[27] 	2.8537716320278
scalar tree_4_3_u02_r8_network.client[27] 	downloads[27] 	12077
scalar tree_4_3_u02_r8_network.client[27] 	avg_time[27] 	0.004314313446
scalar tree_4_3_u02_r8_network.client[28] 	hdistance[28] 	2.8554751726406
scalar tree_4_3_u02_r8_network.client[28] 	downloads[28] 	12164
scalar tree_4_3_u02_r8_network.client[28] 	avg_time[28] 	0.004315353739
scalar tree_4_3_u02_r8_network.client[29] 	hdistance[29] 	2.8425574930503
scalar tree_4_3_u02_r8_network.client[29] 	downloads[29] 	11871
scalar tree_4_3_u02_r8_network.client[29] 	avg_time[29] 	0.004302077768
scalar tree_4_3_u02_r8_network.client[30] 	hdistance[30] 	2.8677672028973
scalar tree_4_3_u02_r8_network.client[30] 	downloads[30] 	11873
scalar tree_4_3_u02_r8_network.client[30] 	avg_time[30] 	0.004336222089
scalar tree_4_3_u02_r8_network.client[31] 	hdistance[31] 	2.8440602250165
scalar tree_4_3_u02_r8_network.client[31] 	downloads[31] 	12088
scalar tree_4_3_u02_r8_network.client[31] 	avg_time[31] 	0.00429715117
scalar tree_4_3_u02_r8_network.client[32] 	hdistance[32] 	2.8465730800991
scalar tree_4_3_u02_r8_network.client[32] 	downloads[32] 	12110
scalar tree_4_3_u02_r8_network.client[32] 	avg_time[32] 	0.004300740155
scalar tree_4_3_u02_r8_network.client[33] 	hdistance[33] 	2.8309259413877
scalar tree_4_3_u02_r8_network.client[33] 	downloads[33] 	11977
scalar tree_4_3_u02_r8_network.client[33] 	avg_time[33] 	0.004279365788
scalar tree_4_3_u02_r8_network.client[34] 	hdistance[34] 	2.8290741516548
scalar tree_4_3_u02_r8_network.client[34] 	downloads[34] 	11935
scalar tree_4_3_u02_r8_network.client[34] 	avg_time[34] 	0.004275541619
scalar tree_4_3_u02_r8_network.client[35] 	hdistance[35] 	2.873414552737
scalar tree_4_3_u02_r8_network.client[35] 	downloads[35] 	11984
scalar tree_4_3_u02_r8_network.client[35] 	avg_time[35] 	0.004342119837
scalar tree_4_3_u02_r8_network.client[36] 	hdistance[36] 	2.8444793908293
scalar tree_4_3_u02_r8_network.client[36] 	downloads[36] 	12082
scalar tree_4_3_u02_r8_network.client[36] 	avg_time[36] 	0.004300609504
scalar tree_4_3_u02_r8_network.client[37] 	hdistance[37] 	2.8315798194019
scalar tree_4_3_u02_r8_network.client[37] 	downloads[37] 	12071
scalar tree_4_3_u02_r8_network.client[37] 	avg_time[37] 	0.004280758754
scalar tree_4_3_u02_r8_network.client[38] 	hdistance[38] 	2.8507487660002
scalar tree_4_3_u02_r8_network.client[38] 	downloads[38] 	11953
scalar tree_4_3_u02_r8_network.client[38] 	avg_time[38] 	0.004312052572
scalar tree_4_3_u02_r8_network.client[39] 	hdistance[39] 	2.8557491870258
scalar tree_4_3_u02_r8_network.client[39] 	downloads[39] 	11993
scalar tree_4_3_u02_r8_network.client[39] 	avg_time[39] 	0.004323202761
