version 2
run General-43-20160820-07:18:32-856
attr a 0.9
attr cd lcd
attr configname General
attr cr lru
attr datetime 20160820-07:18:32
attr experiment General
attr fsize 1
attr inifile hw5115/scenario_A/SPR-LCD.ini
attr iterationvars "$name=tree_4_3, $un=02, $rep=4, $cd=lcd, $cr=lru, $fsize=1, $a=0.9, $sl=spr, $ttl=1000, $variance=0.05"
attr iterationvars2 "$name=tree_4_3, $un=02, $rep=4, $cd=lcd, $cr=lru, $fsize=1, $a=0.9, $sl=spr, $ttl=1000, $variance=0.05, $repetition=0"
attr measurement "$name=tree_4_3, $un=02, $rep=4, $cd=lcd, $cr=lru, $fsize=1, $a=0.9, $sl=spr, $ttl=1000, $variance=0.05"
attr name tree_4_3
attr network networks.${name}_u${un}_r${rep}_network
attr processid 856
attr rep 4
attr repetition 0
attr replication #0
attr resultdir results
attr runnumber 43
attr seedset 4
attr sl spr
attr ttl 1000
attr un 02
attr variance 0.05

scalar . 	a 	0.9
scalar . 	fsize 	1
scalar . 	rep 	4
scalar . 	ttl 	1000
scalar . 	un 	02
scalar . 	variance 	0.05
scalar tree_4_3_u02_r4_network.content_distribution 	repo-0 	0
scalar tree_4_3_u02_r4_network.content_distribution 	client-0 	13
scalar tree_4_3_u02_r4_network.content_distribution 	client-1 	14
scalar tree_4_3_u02_r4_network.content_distribution 	client-2 	15
scalar tree_4_3_u02_r4_network.content_distribution 	client-3 	16
scalar tree_4_3_u02_r4_network.content_distribution 	client-4 	17
scalar tree_4_3_u02_r4_network.content_distribution 	client-5 	18
scalar tree_4_3_u02_r4_network.content_distribution 	client-6 	19
scalar tree_4_3_u02_r4_network.content_distribution 	client-7 	20
scalar tree_4_3_u02_r4_network.content_distribution 	client-8 	21
scalar tree_4_3_u02_r4_network.content_distribution 	client-9 	22
scalar tree_4_3_u02_r4_network.content_distribution 	client-10 	23
scalar tree_4_3_u02_r4_network.content_distribution 	client-11 	24
scalar tree_4_3_u02_r4_network.content_distribution 	client-12 	25
scalar tree_4_3_u02_r4_network.content_distribution 	client-13 	26
scalar tree_4_3_u02_r4_network.content_distribution 	client-14 	27
scalar tree_4_3_u02_r4_network.content_distribution 	client-15 	28
scalar tree_4_3_u02_r4_network.content_distribution 	client-16 	29
scalar tree_4_3_u02_r4_network.content_distribution 	client-17 	30
scalar tree_4_3_u02_r4_network.content_distribution 	client-18 	31
scalar tree_4_3_u02_r4_network.content_distribution 	client-19 	32
scalar tree_4_3_u02_r4_network.content_distribution 	client-20 	33
scalar tree_4_3_u02_r4_network.content_distribution 	client-21 	34
scalar tree_4_3_u02_r4_network.content_distribution 	client-22 	35
scalar tree_4_3_u02_r4_network.content_distribution 	client-23 	36
scalar tree_4_3_u02_r4_network.content_distribution 	client-24 	37
scalar tree_4_3_u02_r4_network.content_distribution 	client-25 	38
scalar tree_4_3_u02_r4_network.content_distribution 	client-26 	39
scalar tree_4_3_u02_r4_network.content_distribution 	repo-0_card 	100000
scalar tree_4_3_u02_r4_network.content_distribution 	repo-0_price 	0
scalar tree_4_3_u02_r4_network.statistics 	stabilization_time 	1085.2
scalar tree_4_3_u02_r4_network.statistics 	p_hit 	0.18729927369552
scalar tree_4_3_u02_r4_network.statistics 	interests 	25526.175
scalar tree_4_3_u02_r4_network.statistics 	data 	17415.025
scalar tree_4_3_u02_r4_network.statistics 	hdistance 	2.8395793592505
scalar tree_4_3_u02_r4_network.statistics 	avg_time 	0.004294056042
scalar tree_4_3_u02_r4_network.statistics 	downloads 	324451
scalar tree_4_3_u02_r4_network.statistics 	total_cost 	0
scalar tree_4_3_u02_r4_network.statistics 	total_replicas 	100000
scalar tree_4_3_u02_r4_network.statistics 	inner_hit 	0.30751022496463
scalar tree_4_3_u02_r4_network.node[0].core_layer 	interests[0] 	226961
scalar tree_4_3_u02_r4_network.node[0].core_layer 	repo_load[0] 	224679
scalar tree_4_3_u02_r4_network.node[0].core_layer 	data[0] 	0
scalar tree_4_3_u02_r4_network.node[0].core_layer 	repo_int[0] 	224679
scalar tree_4_3_u02_r4_network.node[0].content_store 	p_hit[0] 	0.010054590876847
scalar tree_4_3_u02_r4_network.node[0].content_store 	hits[0] 	2282
scalar tree_4_3_u02_r4_network.node[0].content_store 	misses[0] 	224679
scalar tree_4_3_u02_r4_network.node[0].content_store 	decision_yes[0] 	224679
scalar tree_4_3_u02_r4_network.node[0].content_store 	decision_no[0] 	0
scalar tree_4_3_u02_r4_network.node[0].content_store 	decision_ratio[0] 	1
scalar tree_4_3_u02_r4_network.node[1].core_layer 	interests[1] 	77530
scalar tree_4_3_u02_r4_network.node[1].core_layer 	data[1] 	76210
scalar tree_4_3_u02_r4_network.node[1].content_store 	p_hit[1] 	0.016986972784728
scalar tree_4_3_u02_r4_network.node[1].content_store 	hits[1] 	1317
scalar tree_4_3_u02_r4_network.node[1].content_store 	misses[1] 	76213
scalar tree_4_3_u02_r4_network.node[1].content_store 	decision_yes[1] 	739
scalar tree_4_3_u02_r4_network.node[1].content_store 	decision_no[1] 	75471
scalar tree_4_3_u02_r4_network.node[1].content_store 	decision_ratio[1] 	0.0096968901718935
scalar tree_4_3_u02_r4_network.node[2].core_layer 	interests[2] 	77023
scalar tree_4_3_u02_r4_network.node[2].core_layer 	data[2] 	75678
scalar tree_4_3_u02_r4_network.node[2].content_store 	p_hit[2] 	0.017449333316022
scalar tree_4_3_u02_r4_network.node[2].content_store 	hits[2] 	1344
scalar tree_4_3_u02_r4_network.node[2].content_store 	misses[2] 	75679
scalar tree_4_3_u02_r4_network.node[2].content_store 	decision_yes[2] 	790
scalar tree_4_3_u02_r4_network.node[2].content_store 	decision_no[2] 	74888
scalar tree_4_3_u02_r4_network.node[2].content_store 	decision_ratio[2] 	0.010438965088929
scalar tree_4_3_u02_r4_network.node[3].core_layer 	interests[3] 	76487
scalar tree_4_3_u02_r4_network.node[3].core_layer 	data[3] 	75073
scalar tree_4_3_u02_r4_network.node[3].content_store 	p_hit[3] 	0.018434505210036
scalar tree_4_3_u02_r4_network.node[3].content_store 	hits[3] 	1410
scalar tree_4_3_u02_r4_network.node[3].content_store 	misses[3] 	75077
scalar tree_4_3_u02_r4_network.node[3].content_store 	decision_yes[3] 	753
scalar tree_4_3_u02_r4_network.node[3].content_store 	decision_no[3] 	74320
scalar tree_4_3_u02_r4_network.node[3].content_store 	decision_ratio[3] 	0.010030237235757
scalar tree_4_3_u02_r4_network.node[4].core_layer 	interests[4] 	35649
scalar tree_4_3_u02_r4_network.node[4].core_layer 	data[4] 	34541
scalar tree_4_3_u02_r4_network.node[4].content_store 	p_hit[4] 	0.031080815731157
scalar tree_4_3_u02_r4_network.node[4].content_store 	hits[4] 	1108
scalar tree_4_3_u02_r4_network.node[4].content_store 	misses[4] 	34541
scalar tree_4_3_u02_r4_network.node[4].content_store 	decision_yes[4] 	511
scalar tree_4_3_u02_r4_network.node[4].content_store 	decision_no[4] 	34030
scalar tree_4_3_u02_r4_network.node[4].content_store 	decision_ratio[4] 	0.014794012912191
scalar tree_4_3_u02_r4_network.node[5].core_layer 	interests[5] 	17702
scalar tree_4_3_u02_r4_network.node[5].core_layer 	data[5] 	17172
scalar tree_4_3_u02_r4_network.node[5].content_store 	p_hit[5] 	0.029940119760479
scalar tree_4_3_u02_r4_network.node[5].content_store 	hits[5] 	530
scalar tree_4_3_u02_r4_network.node[5].content_store 	misses[5] 	17172
scalar tree_4_3_u02_r4_network.node[5].content_store 	decision_yes[5] 	361
scalar tree_4_3_u02_r4_network.node[5].content_store 	decision_no[5] 	16811
scalar tree_4_3_u02_r4_network.node[5].content_store 	decision_ratio[5] 	0.021022594921966
scalar tree_4_3_u02_r4_network.node[6].core_layer 	interests[6] 	26650
scalar tree_4_3_u02_r4_network.node[6].core_layer 	data[6] 	25818
scalar tree_4_3_u02_r4_network.node[6].content_store 	p_hit[6] 	0.031181988742964
scalar tree_4_3_u02_r4_network.node[6].content_store 	hits[6] 	831
scalar tree_4_3_u02_r4_network.node[6].content_store 	misses[6] 	25819
scalar tree_4_3_u02_r4_network.node[6].content_store 	decision_yes[6] 	445
scalar tree_4_3_u02_r4_network.node[6].content_store 	decision_no[6] 	25373
scalar tree_4_3_u02_r4_network.node[6].content_store 	decision_ratio[6] 	0.017236036873499
scalar tree_4_3_u02_r4_network.node[7].core_layer 	interests[7] 	26561
scalar tree_4_3_u02_r4_network.node[7].core_layer 	data[7] 	25712
scalar tree_4_3_u02_r4_network.node[7].content_store 	p_hit[7] 	0.032001807160875
scalar tree_4_3_u02_r4_network.node[7].content_store 	hits[7] 	850
scalar tree_4_3_u02_r4_network.node[7].content_store 	misses[7] 	25711
scalar tree_4_3_u02_r4_network.node[7].content_store 	decision_yes[7] 	462
scalar tree_4_3_u02_r4_network.node[7].content_store 	decision_no[7] 	25250
scalar tree_4_3_u02_r4_network.node[7].content_store 	decision_ratio[7] 	0.017968263845675
scalar tree_4_3_u02_r4_network.node[8].core_layer 	interests[8] 	35371
scalar tree_4_3_u02_r4_network.node[8].core_layer 	data[8] 	34207
scalar tree_4_3_u02_r4_network.node[8].content_store 	p_hit[8] 	0.032908314721099
scalar tree_4_3_u02_r4_network.node[8].content_store 	hits[8] 	1164
scalar tree_4_3_u02_r4_network.node[8].content_store 	misses[8] 	34207
scalar tree_4_3_u02_r4_network.node[8].content_store 	decision_yes[8] 	528
scalar tree_4_3_u02_r4_network.node[8].content_store 	decision_no[8] 	33679
scalar tree_4_3_u02_r4_network.node[8].content_store 	decision_ratio[8] 	0.015435437191218
scalar tree_4_3_u02_r4_network.node[9].core_layer 	interests[9] 	17683
scalar tree_4_3_u02_r4_network.node[9].core_layer 	data[9] 	17105
scalar tree_4_3_u02_r4_network.node[9].content_store 	p_hit[9] 	0.03268676129616
scalar tree_4_3_u02_r4_network.node[9].content_store 	hits[9] 	578
scalar tree_4_3_u02_r4_network.node[9].content_store 	misses[9] 	17105
scalar tree_4_3_u02_r4_network.node[9].content_store 	decision_yes[9] 	354
scalar tree_4_3_u02_r4_network.node[9].content_store 	decision_no[9] 	16751
scalar tree_4_3_u02_r4_network.node[9].content_store 	decision_ratio[9] 	0.020695703010816
scalar tree_4_3_u02_r4_network.node[10].core_layer 	interests[10] 	26330
scalar tree_4_3_u02_r4_network.node[10].core_layer 	data[10] 	25462
scalar tree_4_3_u02_r4_network.node[10].content_store 	p_hit[10] 	0.033004177744018
scalar tree_4_3_u02_r4_network.node[10].content_store 	hits[10] 	869
scalar tree_4_3_u02_r4_network.node[10].content_store 	misses[10] 	25461
scalar tree_4_3_u02_r4_network.node[10].content_store 	decision_yes[10] 	482
scalar tree_4_3_u02_r4_network.node[10].content_store 	decision_no[10] 	24980
scalar tree_4_3_u02_r4_network.node[10].content_store 	decision_ratio[10] 	0.018930170450082
scalar tree_4_3_u02_r4_network.node[11].core_layer 	interests[11] 	26358
scalar tree_4_3_u02_r4_network.node[11].core_layer 	data[11] 	25561
scalar tree_4_3_u02_r4_network.node[11].content_store 	p_hit[11] 	0.030199559905911
scalar tree_4_3_u02_r4_network.node[11].content_store 	hits[11] 	796
scalar tree_4_3_u02_r4_network.node[11].content_store 	misses[11] 	25562
scalar tree_4_3_u02_r4_network.node[11].content_store 	decision_yes[11] 	455
scalar tree_4_3_u02_r4_network.node[11].content_store 	decision_no[11] 	25106
scalar tree_4_3_u02_r4_network.node[11].content_store 	decision_ratio[11] 	0.017800555533821
scalar tree_4_3_u02_r4_network.node[12].core_layer 	interests[12] 	26290
scalar tree_4_3_u02_r4_network.node[12].core_layer 	data[12] 	25465
scalar tree_4_3_u02_r4_network.node[12].content_store 	p_hit[12] 	0.031380753138075
scalar tree_4_3_u02_r4_network.node[12].content_store 	hits[12] 	825
scalar tree_4_3_u02_r4_network.node[12].content_store 	misses[12] 	25465
scalar tree_4_3_u02_r4_network.node[12].content_store 	decision_yes[12] 	473
scalar tree_4_3_u02_r4_network.node[12].content_store 	decision_no[12] 	24992
scalar tree_4_3_u02_r4_network.node[12].content_store 	decision_ratio[12] 	0.018574514038877
scalar tree_4_3_u02_r4_network.node[13].core_layer 	interests[13] 	12102
scalar tree_4_3_u02_r4_network.node[13].core_layer 	data[13] 	8881
scalar tree_4_3_u02_r4_network.node[13].content_store 	p_hit[13] 	0.26598909271195
scalar tree_4_3_u02_r4_network.node[13].content_store 	hits[13] 	3219
scalar tree_4_3_u02_r4_network.node[13].content_store 	misses[13] 	8883
scalar tree_4_3_u02_r4_network.node[13].content_store 	decision_yes[13] 	262
scalar tree_4_3_u02_r4_network.node[13].content_store 	decision_no[13] 	8619
scalar tree_4_3_u02_r4_network.node[13].content_store 	decision_ratio[13] 	0.029501182299291
scalar tree_4_3_u02_r4_network.node[14].core_layer 	interests[14] 	11952
scalar tree_4_3_u02_r4_network.node[14].core_layer 	data[14] 	8792
scalar tree_4_3_u02_r4_network.node[14].content_store 	p_hit[14] 	0.26439089692102
scalar tree_4_3_u02_r4_network.node[14].content_store 	hits[14] 	3160
scalar tree_4_3_u02_r4_network.node[14].content_store 	misses[14] 	8792
scalar tree_4_3_u02_r4_network.node[14].content_store 	decision_yes[14] 	279
scalar tree_4_3_u02_r4_network.node[14].content_store 	decision_no[14] 	8513
scalar tree_4_3_u02_r4_network.node[14].content_store 	decision_ratio[14] 	0.03173339399454
scalar tree_4_3_u02_r4_network.node[15].core_layer 	interests[15] 	12159
scalar tree_4_3_u02_r4_network.node[15].core_layer 	data[15] 	8968
scalar tree_4_3_u02_r4_network.node[15].content_store 	p_hit[15] 	0.26252158894646
scalar tree_4_3_u02_r4_network.node[15].content_store 	hits[15] 	3192
scalar tree_4_3_u02_r4_network.node[15].content_store 	misses[15] 	8967
scalar tree_4_3_u02_r4_network.node[15].content_store 	decision_yes[15] 	270
scalar tree_4_3_u02_r4_network.node[15].content_store 	decision_no[15] 	8698
scalar tree_4_3_u02_r4_network.node[15].content_store 	decision_ratio[15] 	0.030107047279215
scalar tree_4_3_u02_r4_network.node[16].core_layer 	interests[16] 	12147
scalar tree_4_3_u02_r4_network.node[16].core_layer 	data[16] 	9009
scalar tree_4_3_u02_r4_network.node[16].content_store 	p_hit[16] 	0.25833539145468
scalar tree_4_3_u02_r4_network.node[16].content_store 	hits[16] 	3138
scalar tree_4_3_u02_r4_network.node[16].content_store 	misses[16] 	9009
scalar tree_4_3_u02_r4_network.node[16].content_store 	decision_yes[16] 	297
scalar tree_4_3_u02_r4_network.node[16].content_store 	decision_no[16] 	8712
scalar tree_4_3_u02_r4_network.node[16].content_store 	decision_ratio[16] 	0.032967032967033
scalar tree_4_3_u02_r4_network.node[17].core_layer 	interests[17] 	12171
scalar tree_4_3_u02_r4_network.node[17].core_layer 	data[17] 	8818
scalar tree_4_3_u02_r4_network.node[17].content_store 	p_hit[17] 	0.27549092104182
scalar tree_4_3_u02_r4_network.node[17].content_store 	hits[17] 	3353
scalar tree_4_3_u02_r4_network.node[17].content_store 	misses[17] 	8818
scalar tree_4_3_u02_r4_network.node[17].content_store 	decision_yes[17] 	248
scalar tree_4_3_u02_r4_network.node[17].content_store 	decision_no[17] 	8570
scalar tree_4_3_u02_r4_network.node[17].content_store 	decision_ratio[17] 	0.028124291222499
scalar tree_4_3_u02_r4_network.node[18].core_layer 	interests[18] 	12073
scalar tree_4_3_u02_r4_network.node[18].core_layer 	data[18] 	8884
scalar tree_4_3_u02_r4_network.node[18].content_store 	p_hit[18] 	0.26414312929678
scalar tree_4_3_u02_r4_network.node[18].content_store 	hits[18] 	3189
scalar tree_4_3_u02_r4_network.node[18].content_store 	misses[18] 	8884
scalar tree_4_3_u02_r4_network.node[18].content_store 	decision_yes[18] 	282
scalar tree_4_3_u02_r4_network.node[18].content_store 	decision_no[18] 	8602
scalar tree_4_3_u02_r4_network.node[18].content_store 	decision_ratio[18] 	0.031742458352094
scalar tree_4_3_u02_r4_network.node[19].core_layer 	interests[19] 	12109
scalar tree_4_3_u02_r4_network.node[19].core_layer 	data[19] 	8899
scalar tree_4_3_u02_r4_network.node[19].content_store 	p_hit[19] 	0.26509208027087
scalar tree_4_3_u02_r4_network.node[19].content_store 	hits[19] 	3210
scalar tree_4_3_u02_r4_network.node[19].content_store 	misses[19] 	8899
scalar tree_4_3_u02_r4_network.node[19].content_store 	decision_yes[19] 	292
scalar tree_4_3_u02_r4_network.node[19].content_store 	decision_no[19] 	8607
scalar tree_4_3_u02_r4_network.node[19].content_store 	decision_ratio[19] 	0.032812675581526
scalar tree_4_3_u02_r4_network.node[20].core_layer 	interests[20] 	12017
scalar tree_4_3_u02_r4_network.node[20].core_layer 	data[20] 	8938
scalar tree_4_3_u02_r4_network.node[20].content_store 	p_hit[20] 	0.25622035449779
scalar tree_4_3_u02_r4_network.node[20].content_store 	hits[20] 	3079
scalar tree_4_3_u02_r4_network.node[20].content_store 	misses[20] 	8938
scalar tree_4_3_u02_r4_network.node[20].content_store 	decision_yes[20] 	267
scalar tree_4_3_u02_r4_network.node[20].content_store 	decision_no[20] 	8671
scalar tree_4_3_u02_r4_network.node[20].content_store 	decision_ratio[20] 	0.02987245468785
scalar tree_4_3_u02_r4_network.node[21].core_layer 	interests[21] 	11983
scalar tree_4_3_u02_r4_network.node[21].core_layer 	data[21] 	8813
scalar tree_4_3_u02_r4_network.node[21].content_store 	p_hit[21] 	0.26454143369774
scalar tree_4_3_u02_r4_network.node[21].content_store 	hits[21] 	3170
scalar tree_4_3_u02_r4_network.node[21].content_store 	misses[21] 	8813
scalar tree_4_3_u02_r4_network.node[21].content_store 	decision_yes[21] 	272
scalar tree_4_3_u02_r4_network.node[21].content_store 	decision_no[21] 	8541
scalar tree_4_3_u02_r4_network.node[21].content_store 	decision_ratio[21] 	0.030863497106547
scalar tree_4_3_u02_r4_network.node[22].core_layer 	interests[22] 	11929
scalar tree_4_3_u02_r4_network.node[22].core_layer 	data[22] 	8846
scalar tree_4_3_u02_r4_network.node[22].content_store 	p_hit[22] 	0.25844580434236
scalar tree_4_3_u02_r4_network.node[22].content_store 	hits[22] 	3083
scalar tree_4_3_u02_r4_network.node[22].content_store 	misses[22] 	8846
scalar tree_4_3_u02_r4_network.node[22].content_store 	decision_yes[22] 	279
scalar tree_4_3_u02_r4_network.node[22].content_store 	decision_no[22] 	8567
scalar tree_4_3_u02_r4_network.node[22].content_store 	decision_ratio[22] 	0.031539678950938
scalar tree_4_3_u02_r4_network.node[23].core_layer 	interests[23] 	12193
scalar tree_4_3_u02_r4_network.node[23].core_layer 	data[23] 	9034
scalar tree_4_3_u02_r4_network.node[23].content_store 	p_hit[23] 	0.259083080456
scalar tree_4_3_u02_r4_network.node[23].content_store 	hits[23] 	3159
scalar tree_4_3_u02_r4_network.node[23].content_store 	misses[23] 	9034
scalar tree_4_3_u02_r4_network.node[23].content_store 	decision_yes[23] 	286
scalar tree_4_3_u02_r4_network.node[23].content_store 	decision_no[23] 	8748
scalar tree_4_3_u02_r4_network.node[23].content_store 	decision_ratio[23] 	0.031658180208103
scalar tree_4_3_u02_r4_network.node[24].core_layer 	interests[24] 	11902
scalar tree_4_3_u02_r4_network.node[24].core_layer 	data[24] 	8682
scalar tree_4_3_u02_r4_network.node[24].content_store 	p_hit[24] 	0.27062678541422
scalar tree_4_3_u02_r4_network.node[24].content_store 	hits[24] 	3221
scalar tree_4_3_u02_r4_network.node[24].content_store 	misses[24] 	8681
scalar tree_4_3_u02_r4_network.node[24].content_store 	decision_yes[24] 	285
scalar tree_4_3_u02_r4_network.node[24].content_store 	decision_no[24] 	8397
scalar tree_4_3_u02_r4_network.node[24].content_store 	decision_ratio[24] 	0.032826537664133
scalar tree_4_3_u02_r4_network.node[25].core_layer 	interests[25] 	12076
scalar tree_4_3_u02_r4_network.node[25].core_layer 	data[25] 	8827
scalar tree_4_3_u02_r4_network.node[25].content_store 	p_hit[25] 	0.26904604173567
scalar tree_4_3_u02_r4_network.node[25].content_store 	hits[25] 	3249
scalar tree_4_3_u02_r4_network.node[25].content_store 	misses[25] 	8827
scalar tree_4_3_u02_r4_network.node[25].content_store 	decision_yes[25] 	281
scalar tree_4_3_u02_r4_network.node[25].content_store 	decision_no[25] 	8546
scalar tree_4_3_u02_r4_network.node[25].content_store 	decision_ratio[25] 	0.031834145236207
scalar tree_4_3_u02_r4_network.node[26].core_layer 	interests[26] 	12126
scalar tree_4_3_u02_r4_network.node[26].core_layer 	data[26] 	8841
scalar tree_4_3_u02_r4_network.node[26].content_store 	p_hit[26] 	0.27090549233053
scalar tree_4_3_u02_r4_network.node[26].content_store 	hits[26] 	3285
scalar tree_4_3_u02_r4_network.node[26].content_store 	misses[26] 	8841
scalar tree_4_3_u02_r4_network.node[26].content_store 	decision_yes[26] 	306
scalar tree_4_3_u02_r4_network.node[26].content_store 	decision_no[26] 	8535
scalar tree_4_3_u02_r4_network.node[26].content_store 	decision_ratio[26] 	0.034611469290804
scalar tree_4_3_u02_r4_network.node[27].core_layer 	interests[27] 	11902
scalar tree_4_3_u02_r4_network.node[27].core_layer 	data[27] 	8753
scalar tree_4_3_u02_r4_network.node[27].content_store 	p_hit[27] 	0.26457738195261
scalar tree_4_3_u02_r4_network.node[27].content_store 	hits[27] 	3149
scalar tree_4_3_u02_r4_network.node[27].content_store 	misses[27] 	8753
scalar tree_4_3_u02_r4_network.node[27].content_store 	decision_yes[27] 	274
scalar tree_4_3_u02_r4_network.node[27].content_store 	decision_no[27] 	8479
scalar tree_4_3_u02_r4_network.node[27].content_store 	decision_ratio[27] 	0.03130355306752
scalar tree_4_3_u02_r4_network.node[28].core_layer 	interests[28] 	12056
scalar tree_4_3_u02_r4_network.node[28].core_layer 	data[28] 	8768
scalar tree_4_3_u02_r4_network.node[28].content_store 	p_hit[28] 	0.27264432647644
scalar tree_4_3_u02_r4_network.node[28].content_store 	hits[28] 	3287
scalar tree_4_3_u02_r4_network.node[28].content_store 	misses[28] 	8769
scalar tree_4_3_u02_r4_network.node[28].content_store 	decision_yes[28] 	293
scalar tree_4_3_u02_r4_network.node[28].content_store 	decision_no[28] 	8475
scalar tree_4_3_u02_r4_network.node[28].content_store 	decision_ratio[28] 	0.03341697080292
scalar tree_4_3_u02_r4_network.node[29].core_layer 	interests[29] 	12113
scalar tree_4_3_u02_r4_network.node[29].core_layer 	data[29] 	8950
scalar tree_4_3_u02_r4_network.node[29].content_store 	p_hit[29] 	0.26112441178899
scalar tree_4_3_u02_r4_network.node[29].content_store 	hits[29] 	3163
scalar tree_4_3_u02_r4_network.node[29].content_store 	misses[29] 	8950
scalar tree_4_3_u02_r4_network.node[29].content_store 	decision_yes[29] 	303
scalar tree_4_3_u02_r4_network.node[29].content_store 	decision_no[29] 	8647
scalar tree_4_3_u02_r4_network.node[29].content_store 	decision_ratio[29] 	0.033854748603352
scalar tree_4_3_u02_r4_network.node[30].core_layer 	interests[30] 	12010
scalar tree_4_3_u02_r4_network.node[30].core_layer 	data[30] 	8915
scalar tree_4_3_u02_r4_network.node[30].content_store 	p_hit[30] 	0.25770191507077
scalar tree_4_3_u02_r4_network.node[30].content_store 	hits[30] 	3095
scalar tree_4_3_u02_r4_network.node[30].content_store 	misses[30] 	8915
scalar tree_4_3_u02_r4_network.node[30].content_store 	decision_yes[30] 	285
scalar tree_4_3_u02_r4_network.node[30].content_store 	decision_no[30] 	8630
scalar tree_4_3_u02_r4_network.node[30].content_store 	decision_ratio[30] 	0.031968592260236
scalar tree_4_3_u02_r4_network.node[31].core_layer 	interests[31] 	11908
scalar tree_4_3_u02_r4_network.node[31].core_layer 	data[31] 	8688
scalar tree_4_3_u02_r4_network.node[31].content_store 	p_hit[31] 	0.27049042660396
scalar tree_4_3_u02_r4_network.node[31].content_store 	hits[31] 	3221
scalar tree_4_3_u02_r4_network.node[31].content_store 	misses[31] 	8687
scalar tree_4_3_u02_r4_network.node[31].content_store 	decision_yes[31] 	289
scalar tree_4_3_u02_r4_network.node[31].content_store 	decision_no[31] 	8399
scalar tree_4_3_u02_r4_network.node[31].content_store 	decision_ratio[31] 	0.033264272559853
scalar tree_4_3_u02_r4_network.node[32].core_layer 	interests[32] 	12076
scalar tree_4_3_u02_r4_network.node[32].core_layer 	data[32] 	8960
scalar tree_4_3_u02_r4_network.node[32].content_store 	p_hit[32] 	0.25803246107983
scalar tree_4_3_u02_r4_network.node[32].content_store 	hits[32] 	3116
scalar tree_4_3_u02_r4_network.node[32].content_store 	misses[32] 	8960
scalar tree_4_3_u02_r4_network.node[32].content_store 	decision_yes[32] 	295
scalar tree_4_3_u02_r4_network.node[32].content_store 	decision_no[32] 	8665
scalar tree_4_3_u02_r4_network.node[32].content_store 	decision_ratio[32] 	0.032924107142857
scalar tree_4_3_u02_r4_network.node[33].core_layer 	interests[33] 	11798
scalar tree_4_3_u02_r4_network.node[33].core_layer 	data[33] 	8683
scalar tree_4_3_u02_r4_network.node[33].content_store 	p_hit[33] 	0.26394304119342
scalar tree_4_3_u02_r4_network.node[33].content_store 	hits[33] 	3114
scalar tree_4_3_u02_r4_network.node[33].content_store 	misses[33] 	8684
scalar tree_4_3_u02_r4_network.node[33].content_store 	decision_yes[33] 	285
scalar tree_4_3_u02_r4_network.node[33].content_store 	decision_no[33] 	8398
scalar tree_4_3_u02_r4_network.node[33].content_store 	decision_ratio[33] 	0.032822757111597
scalar tree_4_3_u02_r4_network.node[34].core_layer 	interests[34] 	12112
scalar tree_4_3_u02_r4_network.node[34].core_layer 	data[34] 	8941
scalar tree_4_3_u02_r4_network.node[34].content_store 	p_hit[34] 	0.26180647291942
scalar tree_4_3_u02_r4_network.node[34].content_store 	hits[34] 	3171
scalar tree_4_3_u02_r4_network.node[34].content_store 	misses[34] 	8941
scalar tree_4_3_u02_r4_network.node[34].content_store 	decision_yes[34] 	278
scalar tree_4_3_u02_r4_network.node[34].content_store 	decision_no[34] 	8663
scalar tree_4_3_u02_r4_network.node[34].content_store 	decision_ratio[34] 	0.031092718935242
scalar tree_4_3_u02_r4_network.node[35].core_layer 	interests[35] 	11974
scalar tree_4_3_u02_r4_network.node[35].core_layer 	data[35] 	8769
scalar tree_4_3_u02_r4_network.node[35].content_store 	p_hit[35] 	0.26766327041924
scalar tree_4_3_u02_r4_network.node[35].content_store 	hits[35] 	3205
scalar tree_4_3_u02_r4_network.node[35].content_store 	misses[35] 	8769
scalar tree_4_3_u02_r4_network.node[35].content_store 	decision_yes[35] 	260
scalar tree_4_3_u02_r4_network.node[35].content_store 	decision_no[35] 	8509
scalar tree_4_3_u02_r4_network.node[35].content_store 	decision_ratio[35] 	0.029649903067625
scalar tree_4_3_u02_r4_network.node[36].core_layer 	interests[36] 	11805
scalar tree_4_3_u02_r4_network.node[36].core_layer 	data[36] 	8648
scalar tree_4_3_u02_r4_network.node[36].content_store 	p_hit[36] 	0.26742905548496
scalar tree_4_3_u02_r4_network.node[36].content_store 	hits[36] 	3157
scalar tree_4_3_u02_r4_network.node[36].content_store 	misses[36] 	8648
scalar tree_4_3_u02_r4_network.node[36].content_store 	decision_yes[36] 	258
scalar tree_4_3_u02_r4_network.node[36].content_store 	decision_no[36] 	8390
scalar tree_4_3_u02_r4_network.node[36].content_store 	decision_ratio[36] 	0.029833487511563
scalar tree_4_3_u02_r4_network.node[37].core_layer 	interests[37] 	11915
scalar tree_4_3_u02_r4_network.node[37].core_layer 	data[37] 	8719
scalar tree_4_3_u02_r4_network.node[37].content_store 	p_hit[37] 	0.26823331934536
scalar tree_4_3_u02_r4_network.node[37].content_store 	hits[37] 	3196
scalar tree_4_3_u02_r4_network.node[37].content_store 	misses[37] 	8719
scalar tree_4_3_u02_r4_network.node[37].content_store 	decision_yes[37] 	269
scalar tree_4_3_u02_r4_network.node[37].content_store 	decision_no[37] 	8450
scalar tree_4_3_u02_r4_network.node[37].content_store 	decision_ratio[37] 	0.030852161945177
scalar tree_4_3_u02_r4_network.node[38].core_layer 	interests[38] 	11903
scalar tree_4_3_u02_r4_network.node[38].core_layer 	data[38] 	8723
scalar tree_4_3_u02_r4_network.node[38].content_store 	p_hit[38] 	0.26715953961186
scalar tree_4_3_u02_r4_network.node[38].content_store 	hits[38] 	3180
scalar tree_4_3_u02_r4_network.node[38].content_store 	misses[38] 	8723
scalar tree_4_3_u02_r4_network.node[38].content_store 	decision_yes[38] 	267
scalar tree_4_3_u02_r4_network.node[38].content_store 	decision_no[38] 	8456
scalar tree_4_3_u02_r4_network.node[38].content_store 	decision_ratio[38] 	0.030608735526768
scalar tree_4_3_u02_r4_network.node[39].core_layer 	interests[39] 	11941
scalar tree_4_3_u02_r4_network.node[39].core_layer 	data[39] 	8848
scalar tree_4_3_u02_r4_network.node[39].content_store 	p_hit[39] 	0.25902353236747
scalar tree_4_3_u02_r4_network.node[39].content_store 	hits[39] 	3093
scalar tree_4_3_u02_r4_network.node[39].content_store 	misses[39] 	8848
scalar tree_4_3_u02_r4_network.node[39].content_store 	decision_yes[39] 	289
scalar tree_4_3_u02_r4_network.node[39].content_store 	decision_no[39] 	8559
scalar tree_4_3_u02_r4_network.node[39].content_store 	decision_ratio[39] 	0.032662748643761
scalar tree_4_3_u02_r4_network.client[13] 	hdistance[13] 	2.8421487603306
scalar tree_4_3_u02_r4_network.client[13] 	downloads[13] 	12100
scalar tree_4_3_u02_r4_network.client[13] 	avg_time[13] 	0.004296321186
scalar tree_4_3_u02_r4_network.client[14] 	hdistance[14] 	2.844795850067
scalar tree_4_3_u02_r4_network.client[14] 	downloads[14] 	11952
scalar tree_4_3_u02_r4_network.client[14] 	avg_time[14] 	0.00429969582
scalar tree_4_3_u02_r4_network.client[15] 	hdistance[15] 	2.8543585526316
scalar tree_4_3_u02_r4_network.client[15] 	downloads[15] 	12160
scalar tree_4_3_u02_r4_network.client[15] 	avg_time[15] 	0.004315339112
scalar tree_4_3_u02_r4_network.client[16] 	hdistance[16] 	2.8656458384786
scalar tree_4_3_u02_r4_network.client[16] 	downloads[16] 	12147
scalar tree_4_3_u02_r4_network.client[16] 	avg_time[16] 	0.004329461034
scalar tree_4_3_u02_r4_network.client[17] 	hdistance[17] 	2.7991948073289
scalar tree_4_3_u02_r4_network.client[17] 	downloads[17] 	12171
scalar tree_4_3_u02_r4_network.client[17] 	avg_time[17] 	0.004233502838
scalar tree_4_3_u02_r4_network.client[18] 	hdistance[18] 	2.8393936883956
scalar tree_4_3_u02_r4_network.client[18] 	downloads[18] 	12073
scalar tree_4_3_u02_r4_network.client[18] 	avg_time[18] 	0.004294207191
scalar tree_4_3_u02_r4_network.client[19] 	hdistance[19] 	2.8357420100751
scalar tree_4_3_u02_r4_network.client[19] 	downloads[19] 	12109
scalar tree_4_3_u02_r4_network.client[19] 	avg_time[19] 	0.004287515274
scalar tree_4_3_u02_r4_network.client[20] 	hdistance[20] 	2.8786718815012
scalar tree_4_3_u02_r4_network.client[20] 	downloads[20] 	12017
scalar tree_4_3_u02_r4_network.client[20] 	avg_time[20] 	0.004350118533
scalar tree_4_3_u02_r4_network.client[21] 	hdistance[21] 	2.8406075273304
scalar tree_4_3_u02_r4_network.client[21] 	downloads[21] 	11983
scalar tree_4_3_u02_r4_network.client[21] 	avg_time[21] 	0.004296917627
scalar tree_4_3_u02_r4_network.client[22] 	hdistance[22] 	2.8628552267583
scalar tree_4_3_u02_r4_network.client[22] 	downloads[22] 	11929
scalar tree_4_3_u02_r4_network.client[22] 	avg_time[22] 	0.004329613952
scalar tree_4_3_u02_r4_network.client[23] 	hdistance[23] 	2.8581153120643
scalar tree_4_3_u02_r4_network.client[23] 	downloads[23] 	12193
scalar tree_4_3_u02_r4_network.client[23] 	avg_time[23] 	0.004322805069
scalar tree_4_3_u02_r4_network.client[24] 	hdistance[24] 	2.8162648071915
scalar tree_4_3_u02_r4_network.client[24] 	downloads[24] 	11903
scalar tree_4_3_u02_r4_network.client[24] 	avg_time[24] 	0.004258755301
scalar tree_4_3_u02_r4_network.client[25] 	hdistance[25] 	2.8280059622391
scalar tree_4_3_u02_r4_network.client[25] 	downloads[25] 	12076
scalar tree_4_3_u02_r4_network.client[25] 	avg_time[25] 	0.004273763123
scalar tree_4_3_u02_r4_network.client[26] 	hdistance[26] 	2.810324921656
scalar tree_4_3_u02_r4_network.client[26] 	downloads[26] 	12126
scalar tree_4_3_u02_r4_network.client[26] 	avg_time[26] 	0.004250533021
scalar tree_4_3_u02_r4_network.client[27] 	hdistance[27] 	2.8422954125357
scalar tree_4_3_u02_r4_network.client[27] 	downloads[27] 	11902
scalar tree_4_3_u02_r4_network.client[27] 	avg_time[27] 	0.004298271563
scalar tree_4_3_u02_r4_network.client[28] 	hdistance[28] 	2.799834093737
scalar tree_4_3_u02_r4_network.client[28] 	downloads[28] 	12055
scalar tree_4_3_u02_r4_network.client[28] 	avg_time[28] 	0.004236204458
scalar tree_4_3_u02_r4_network.client[29] 	hdistance[29] 	2.8484273095022
scalar tree_4_3_u02_r4_network.client[29] 	downloads[29] 	12113
scalar tree_4_3_u02_r4_network.client[29] 	avg_time[29] 	0.00430958173
scalar tree_4_3_u02_r4_network.client[30] 	hdistance[30] 	2.8621981681932
scalar tree_4_3_u02_r4_network.client[30] 	downloads[30] 	12010
scalar tree_4_3_u02_r4_network.client[30] 	avg_time[30] 	0.004330388348
scalar tree_4_3_u02_r4_network.client[31] 	hdistance[31] 	2.8111512301621
scalar tree_4_3_u02_r4_network.client[31] 	downloads[31] 	11909
scalar tree_4_3_u02_r4_network.client[31] 	avg_time[31] 	0.004254507895
scalar tree_4_3_u02_r4_network.client[32] 	hdistance[32] 	2.8617091752236
scalar tree_4_3_u02_r4_network.client[32] 	downloads[32] 	12076
scalar tree_4_3_u02_r4_network.client[32] 	avg_time[32] 	0.004327920139
scalar tree_4_3_u02_r4_network.client[33] 	hdistance[33] 	2.8349580401797
scalar tree_4_3_u02_r4_network.client[33] 	downloads[33] 	11797
scalar tree_4_3_u02_r4_network.client[33] 	avg_time[33] 	0.004290491662
scalar tree_4_3_u02_r4_network.client[34] 	hdistance[34] 	2.8508091149273
scalar tree_4_3_u02_r4_network.client[34] 	downloads[34] 	12112
scalar tree_4_3_u02_r4_network.client[34] 	avg_time[34] 	0.004310903364
scalar tree_4_3_u02_r4_network.client[35] 	hdistance[35] 	2.8332219809588
scalar tree_4_3_u02_r4_network.client[35] 	downloads[35] 	11974
scalar tree_4_3_u02_r4_network.client[35] 	avg_time[35] 	0.004282442304
scalar tree_4_3_u02_r4_network.client[36] 	hdistance[36] 	2.833290978399
scalar tree_4_3_u02_r4_network.client[36] 	downloads[36] 	11805
scalar tree_4_3_u02_r4_network.client[36] 	avg_time[36] 	0.004283097451
scalar tree_4_3_u02_r4_network.client[37] 	hdistance[37] 	2.8272765421737
scalar tree_4_3_u02_r4_network.client[37] 	downloads[37] 	11915
scalar tree_4_3_u02_r4_network.client[37] 	avg_time[37] 	0.004274608846
scalar tree_4_3_u02_r4_network.client[38] 	hdistance[38] 	2.8313870452827
scalar tree_4_3_u02_r4_network.client[38] 	downloads[38] 	11903
scalar tree_4_3_u02_r4_network.client[38] 	avg_time[38] 	0.004281270662
scalar tree_4_3_u02_r4_network.client[39] 	hdistance[39] 	2.8559584624403
scalar tree_4_3_u02_r4_network.client[39] 	downloads[39] 	11941
scalar tree_4_3_u02_r4_network.client[39] 	avg_time[39] 	0.004321275649
