version 2
run General-45-20160823-13:10:15-12979
attr D ffc0.01
attr F nrr
attr R lru
attr a 0.9
attr configname General
attr datetime 20160823-13:10:15
attr experiment General
attr inifile hw5115/scenario_B/bus.ini
attr iterationvars "$net=bus, $rep=0, $a=0.9, $F=nrr, $D=ffc0.01, $R=lru, $window=60, $variance=0.05, $mytime=600, $test=test"
attr iterationvars2 "$net=bus, $rep=0, $a=0.9, $F=nrr, $D=ffc0.01, $R=lru, $window=60, $variance=0.05, $mytime=600, $test=test, $repetition=0"
attr measurement "$net=bus, $rep=0, $a=0.9, $F=nrr, $D=ffc0.01, $R=lru, $window=60, $variance=0.05, $mytime=600, $test=test"
attr mytime 600
attr net bus
attr network networks.${net=bus}_network
attr processid 12979
attr rep 0
attr repetition 0
attr replication #0
attr resultdir results
attr runnumber 45
attr seedset 0
attr test test
attr variance 0.05
attr window 60

scalar . 	a 	0.9
scalar . 	mytime 	600
scalar . 	rep 	0
scalar . 	variance 	0.05
scalar . 	window 	60
scalar bus_network.content_distribution 	repo-0 	9
scalar bus_network.content_distribution 	client-0 	5
scalar bus_network.content_distribution 	client-1 	8
scalar bus_network.content_distribution 	client-2 	9
scalar bus_network.content_distribution 	client-3 	0
scalar bus_network.content_distribution 	client-4 	1
scalar bus_network.content_distribution 	client-5 	7
scalar bus_network.content_distribution 	client-6 	6
scalar bus_network.content_distribution 	client-7 	2
scalar bus_network.content_distribution 	client-8 	4
scalar bus_network.content_distribution 	client-9 	3
scalar bus_network.content_distribution 	repo-0_card 	100000
scalar bus_network.content_distribution 	repo-0_price 	0
scalar bus_network.statistics 	stabilization_time 	2066.1
scalar bus_network.statistics 	p_hit 	0.093607801760939
scalar bus_network.statistics 	interests 	51448.5
scalar bus_network.statistics 	data 	39407.8
scalar bus_network.statistics 	hdistance 	3.959234028724
scalar bus_network.statistics 	avg_time 	0.006547080437
scalar bus_network.statistics 	downloads 	120417
scalar bus_network.statistics 	total_cost 	0
scalar bus_network.statistics 	total_replicas 	100000
scalar bus_network.statistics 	inner_hit 	0.31435760731458
scalar bus_network.node[0].core_layer 	interests[0] 	12367
scalar bus_network.node[0].core_layer 	data[0] 	10078
scalar bus_network.node[0].core_layer 	repo_int[0] 	82563
scalar bus_network.node[0].content_store 	p_hit[0] 	0.18517021104552
scalar bus_network.node[0].content_store 	hits[0] 	2290
scalar bus_network.node[0].content_store 	misses[0] 	10077
scalar bus_network.node[0].content_store 	decision_yes[0] 	3
scalar bus_network.node[0].content_store 	decision_no[0] 	10075
scalar bus_network.node[0].content_store 	decision_ratio[0] 	0.00029767811073626
scalar bus_network.node[1].core_layer 	interests[1] 	22802
scalar bus_network.node[1].core_layer 	data[1] 	19138
scalar bus_network.node[1].content_store 	p_hit[1] 	0.16068765897728
scalar bus_network.node[1].content_store 	hits[1] 	3664
scalar bus_network.node[1].content_store 	misses[1] 	19138
scalar bus_network.node[1].content_store 	decision_yes[1] 	8
scalar bus_network.node[1].content_store 	decision_no[1] 	19130
scalar bus_network.node[1].content_store 	decision_ratio[1] 	0.00041801651165221
scalar bus_network.node[2].core_layer 	interests[2] 	31779
scalar bus_network.node[2].core_layer 	data[2] 	28167
scalar bus_network.node[2].content_store 	p_hit[2] 	0.11365996412725
scalar bus_network.node[2].content_store 	hits[2] 	3612
scalar bus_network.node[2].content_store 	misses[2] 	28167
scalar bus_network.node[2].content_store 	decision_yes[2] 	8
scalar bus_network.node[2].content_store 	decision_no[2] 	28159
scalar bus_network.node[2].content_store 	decision_ratio[2] 	0.00028402030745198
scalar bus_network.node[3].core_layer 	interests[3] 	40657
scalar bus_network.node[3].core_layer 	data[3] 	36406
scalar bus_network.node[3].content_store 	p_hit[3] 	0.10455764075067
scalar bus_network.node[3].content_store 	hits[3] 	4251
scalar bus_network.node[3].content_store 	misses[3] 	36406
scalar bus_network.node[3].content_store 	decision_yes[3] 	8
scalar bus_network.node[3].content_store 	decision_no[3] 	36398
scalar bus_network.node[3].content_store 	decision_ratio[3] 	0.00021974399824205
scalar bus_network.node[4].core_layer 	interests[4] 	48944
scalar bus_network.node[4].core_layer 	data[4] 	44732
scalar bus_network.node[4].content_store 	p_hit[4] 	0.086098398169336
scalar bus_network.node[4].content_store 	hits[4] 	4214
scalar bus_network.node[4].content_store 	misses[4] 	44730
scalar bus_network.node[4].content_store 	decision_yes[4] 	6
scalar bus_network.node[4].content_store 	decision_no[4] 	44726
scalar bus_network.node[4].content_store 	decision_ratio[4] 	0.00013413216489314
scalar bus_network.node[5].core_layer 	interests[5] 	56790
scalar bus_network.node[5].core_layer 	data[5] 	53029
scalar bus_network.node[5].content_store 	p_hit[5] 	0.06626166578623
scalar bus_network.node[5].content_store 	hits[5] 	3763
scalar bus_network.node[5].content_store 	misses[5] 	53027
scalar bus_network.node[5].content_store 	decision_yes[5] 	13
scalar bus_network.node[5].content_store 	decision_no[5] 	53016
scalar bus_network.node[5].content_store 	decision_ratio[5] 	0.00024514888080107
scalar bus_network.node[6].core_layer 	interests[6] 	65229
scalar bus_network.node[6].core_layer 	data[6] 	60189
scalar bus_network.node[6].content_store 	p_hit[6] 	0.077235585399132
scalar bus_network.node[6].content_store 	hits[6] 	5038
scalar bus_network.node[6].content_store 	misses[6] 	60191
scalar bus_network.node[6].content_store 	decision_yes[6] 	8
scalar bus_network.node[6].content_store 	decision_no[6] 	60181
scalar bus_network.node[6].content_store 	decision_ratio[6] 	0.00013291465217897
scalar bus_network.node[7].core_layer 	interests[7] 	72201
scalar bus_network.node[7].core_layer 	data[7] 	67349
scalar bus_network.node[7].content_store 	p_hit[7] 	0.067187435077077
scalar bus_network.node[7].content_store 	hits[7] 	4851
scalar bus_network.node[7].content_store 	misses[7] 	67350
scalar bus_network.node[7].content_store 	decision_yes[7] 	7
scalar bus_network.node[7].content_store 	decision_no[7] 	67342
scalar bus_network.node[7].content_store 	decision_ratio[7] 	0.00010393621286136
scalar bus_network.node[8].core_layer 	interests[8] 	77863
scalar bus_network.node[8].core_layer 	data[8] 	74990
scalar bus_network.node[8].content_store 	p_hit[8] 	0.036898141607696
scalar bus_network.node[8].content_store 	hits[8] 	2873
scalar bus_network.node[8].content_store 	misses[8] 	74990
scalar bus_network.node[8].content_store 	decision_yes[8] 	6
scalar bus_network.node[8].content_store 	decision_no[8] 	74984
scalar bus_network.node[8].content_store 	decision_ratio[8] 	8.0010668089079e-05
scalar bus_network.node[9].core_layer 	interests[9] 	85853
scalar bus_network.node[9].core_layer 	repo_load[9] 	82563
scalar bus_network.node[9].core_layer 	data[9] 	0
scalar bus_network.node[9].content_store 	p_hit[9] 	0.03832131666919
scalar bus_network.node[9].content_store 	hits[9] 	3290
scalar bus_network.node[9].content_store 	misses[9] 	82563
scalar bus_network.node[9].content_store 	decision_yes[9] 	11
scalar bus_network.node[9].content_store 	decision_no[9] 	82552
scalar bus_network.node[9].content_store 	decision_ratio[9] 	0.00013323159284425
scalar bus_network.client[0] 	hdistance[0] 	7.2261954261954
scalar bus_network.client[0] 	downloads[0] 	12025
scalar bus_network.client[0] 	avg_time[0] 	0.013133136267
scalar bus_network.client[1] 	hdistance[1] 	6.3947675387436
scalar bus_network.client[1] 	downloads[1] 	12002
scalar bus_network.client[1] 	avg_time[1] 	0.011472652014
scalar bus_network.client[2] 	hdistance[2] 	5.6831716015593
scalar bus_network.client[2] 	downloads[2] 	12057
scalar bus_network.client[2] 	avg_time[2] 	0.010037319718
scalar bus_network.client[3] 	hdistance[3] 	4.8868595041322
scalar bus_network.client[3] 	downloads[3] 	12100
scalar bus_network.client[3] 	avg_time[3] 	0.008467341221
scalar bus_network.client[4] 	hdistance[4] 	4.2639826623322
scalar bus_network.client[4] 	downloads[4] 	11997
scalar bus_network.client[4] 	avg_time[4] 	0.007201588205
scalar bus_network.client[5] 	hdistance[5] 	3.5961809879618
scalar bus_network.client[5] 	downloads[5] 	12045
scalar bus_network.client[5] 	avg_time[5] 	0.005855244124
scalar bus_network.client[6] 	hdistance[6] 	2.8965968586387
scalar bus_network.client[6] 	downloads[6] 	12224
scalar bus_network.client[6] 	avg_time[6] 	0.004456478526
scalar bus_network.client[7] 	hdistance[7] 	2.2063211125158
scalar bus_network.client[7] 	downloads[7] 	11865
scalar bus_network.client[7] 	avg_time[7] 	0.003076440341
scalar bus_network.client[8] 	hdistance[8] 	1.5928774452433
scalar bus_network.client[8] 	downloads[8] 	11962
scalar bus_network.client[8] 	avg_time[8] 	0.001770603963
scalar bus_network.client[9] 	hdistance[9] 	0.84538714991763
scalar bus_network.client[9] 	downloads[9] 	12140
scalar bus_network.client[9] 	avg_time[9] 	0
