version 2
run General-219-20160819-10:30:56-13837
attr a 0.9
attr cd fix0.1
attr configname General
attr cr lru
attr datetime 20160819-10:30:56
attr experiment General
attr fsize 1
attr inifile hw5115/scenario_A/NRR-FIX0.1.ini
attr iterationvars "$name=tree_4_3, $un=10, $rep=20, $cd=fix0.1, $cr=lru, $fsize=1, $a=0.9, $sl=nrr, $ttl=1000, $variance=0.05"
attr iterationvars2 "$name=tree_4_3, $un=10, $rep=20, $cd=fix0.1, $cr=lru, $fsize=1, $a=0.9, $sl=nrr, $ttl=1000, $variance=0.05, $repetition=0"
attr measurement "$name=tree_4_3, $un=10, $rep=20, $cd=fix0.1, $cr=lru, $fsize=1, $a=0.9, $sl=nrr, $ttl=1000, $variance=0.05"
attr name tree_4_3
attr network networks.${name}_u${un}_r${rep}_network
attr processid 13837
attr rep 20
attr repetition 0
attr replication #0
attr resultdir results
attr runnumber 219
attr seedset 20
attr sl nrr
attr ttl 1000
attr un 10
attr variance 0.05

scalar . 	a 	0.9
scalar . 	fsize 	1
scalar . 	rep 	20
scalar . 	ttl 	1000
scalar . 	un 	10
scalar . 	variance 	0.05
scalar tree_4_3_u10_r20_network.content_distribution 	repo-0 	0
scalar tree_4_3_u10_r20_network.content_distribution 	client-0 	13
scalar tree_4_3_u10_r20_network.content_distribution 	client-1 	14
scalar tree_4_3_u10_r20_network.content_distribution 	client-2 	15
scalar tree_4_3_u10_r20_network.content_distribution 	client-3 	16
scalar tree_4_3_u10_r20_network.content_distribution 	client-4 	17
scalar tree_4_3_u10_r20_network.content_distribution 	client-5 	18
scalar tree_4_3_u10_r20_network.content_distribution 	client-6 	19
scalar tree_4_3_u10_r20_network.content_distribution 	client-7 	20
scalar tree_4_3_u10_r20_network.content_distribution 	client-8 	21
scalar tree_4_3_u10_r20_network.content_distribution 	client-9 	22
scalar tree_4_3_u10_r20_network.content_distribution 	client-10 	23
scalar tree_4_3_u10_r20_network.content_distribution 	client-11 	24
scalar tree_4_3_u10_r20_network.content_distribution 	client-12 	25
scalar tree_4_3_u10_r20_network.content_distribution 	client-13 	26
scalar tree_4_3_u10_r20_network.content_distribution 	client-14 	27
scalar tree_4_3_u10_r20_network.content_distribution 	client-15 	28
scalar tree_4_3_u10_r20_network.content_distribution 	client-16 	29
scalar tree_4_3_u10_r20_network.content_distribution 	client-17 	30
scalar tree_4_3_u10_r20_network.content_distribution 	client-18 	31
scalar tree_4_3_u10_r20_network.content_distribution 	client-19 	32
scalar tree_4_3_u10_r20_network.content_distribution 	client-20 	33
scalar tree_4_3_u10_r20_network.content_distribution 	client-21 	34
scalar tree_4_3_u10_r20_network.content_distribution 	client-22 	35
scalar tree_4_3_u10_r20_network.content_distribution 	client-23 	36
scalar tree_4_3_u10_r20_network.content_distribution 	client-24 	37
scalar tree_4_3_u10_r20_network.content_distribution 	client-25 	38
scalar tree_4_3_u10_r20_network.content_distribution 	client-26 	39
scalar tree_4_3_u10_r20_network.content_distribution 	repo-0_card 	100000
scalar tree_4_3_u10_r20_network.content_distribution 	repo-0_price 	0
scalar tree_4_3_u10_r20_network.statistics 	stabilization_time 	678.8
scalar tree_4_3_u10_r20_network.statistics 	p_hit 	0.2374108982736
scalar tree_4_3_u10_r20_network.statistics 	interests 	26144.15
scalar tree_4_3_u10_r20_network.statistics 	data 	18050.825
scalar tree_4_3_u10_r20_network.statistics 	hdistance 	2.7782900107524
scalar tree_4_3_u10_r20_network.statistics 	avg_time 	0.004460509911
scalar tree_4_3_u10_r20_network.statistics 	downloads 	323730
scalar tree_4_3_u10_r20_network.statistics 	total_cost 	0
scalar tree_4_3_u10_r20_network.statistics 	total_replicas 	100000
scalar tree_4_3_u10_r20_network.statistics 	inner_hit 	0.45202483551107
scalar tree_4_3_u10_r20_network.node[0].core_layer 	interests[0] 	178278
scalar tree_4_3_u10_r20_network.node[0].core_layer 	repo_load[0] 	177396
scalar tree_4_3_u10_r20_network.node[0].core_layer 	data[0] 	0
scalar tree_4_3_u10_r20_network.node[0].core_layer 	repo_int[0] 	177396
scalar tree_4_3_u10_r20_network.node[0].content_store 	p_hit[0] 	0.0049473294517551
scalar tree_4_3_u10_r20_network.node[0].content_store 	hits[0] 	882
scalar tree_4_3_u10_r20_network.node[0].content_store 	misses[0] 	177396
scalar tree_4_3_u10_r20_network.node[0].content_store 	decision_yes[0] 	17767
scalar tree_4_3_u10_r20_network.node[0].content_store 	decision_no[0] 	159629
scalar tree_4_3_u10_r20_network.node[0].content_store 	decision_ratio[0] 	0.10015445669575
scalar tree_4_3_u10_r20_network.node[1].core_layer 	interests[1] 	139430
scalar tree_4_3_u10_r20_network.node[1].core_layer 	data[1] 	138380
scalar tree_4_3_u10_r20_network.node[1].content_store 	p_hit[1] 	0.0075091443735208
scalar tree_4_3_u10_r20_network.node[1].content_store 	hits[1] 	1047
scalar tree_4_3_u10_r20_network.node[1].content_store 	misses[1] 	138383
scalar tree_4_3_u10_r20_network.node[1].content_store 	decision_yes[1] 	13694
scalar tree_4_3_u10_r20_network.node[1].content_store 	decision_no[1] 	124685
scalar tree_4_3_u10_r20_network.node[1].content_store 	decision_ratio[1] 	0.098960102327665
scalar tree_4_3_u10_r20_network.node[2].core_layer 	interests[2] 	56924
scalar tree_4_3_u10_r20_network.node[2].core_layer 	data[2] 	55357
scalar tree_4_3_u10_r20_network.node[2].content_store 	p_hit[2] 	0.027510364696789
scalar tree_4_3_u10_r20_network.node[2].content_store 	hits[2] 	1566
scalar tree_4_3_u10_r20_network.node[2].content_store 	misses[2] 	55358
scalar tree_4_3_u10_r20_network.node[2].content_store 	decision_yes[2] 	5511
scalar tree_4_3_u10_r20_network.node[2].content_store 	decision_no[2] 	49846
scalar tree_4_3_u10_r20_network.node[2].content_store 	decision_ratio[2] 	0.099553805300143
scalar tree_4_3_u10_r20_network.node[3].core_layer 	interests[3] 	17624
scalar tree_4_3_u10_r20_network.node[3].core_layer 	data[3] 	13305
scalar tree_4_3_u10_r20_network.node[3].content_store 	p_hit[3] 	0.24506354970495
scalar tree_4_3_u10_r20_network.node[3].content_store 	hits[3] 	4319
scalar tree_4_3_u10_r20_network.node[3].content_store 	misses[3] 	13305
scalar tree_4_3_u10_r20_network.node[3].content_store 	decision_yes[3] 	1343
scalar tree_4_3_u10_r20_network.node[3].content_store 	decision_no[3] 	11962
scalar tree_4_3_u10_r20_network.node[3].content_store 	decision_ratio[3] 	0.10093949642991
scalar tree_4_3_u10_r20_network.node[4].core_layer 	interests[4] 	44343
scalar tree_4_3_u10_r20_network.node[4].core_layer 	data[4] 	42534
scalar tree_4_3_u10_r20_network.node[4].content_store 	p_hit[4] 	0.040750513046028
scalar tree_4_3_u10_r20_network.node[4].content_store 	hits[4] 	1807
scalar tree_4_3_u10_r20_network.node[4].content_store 	misses[4] 	42536
scalar tree_4_3_u10_r20_network.node[4].content_store 	decision_yes[4] 	4286
scalar tree_4_3_u10_r20_network.node[4].content_store 	decision_no[4] 	38247
scalar tree_4_3_u10_r20_network.node[4].content_store 	decision_ratio[4] 	0.10076881480262
scalar tree_4_3_u10_r20_network.node[5].core_layer 	interests[5] 	33276
scalar tree_4_3_u10_r20_network.node[5].core_layer 	data[5] 	29835
scalar tree_4_3_u10_r20_network.node[5].content_store 	p_hit[5] 	0.10337780983291
scalar tree_4_3_u10_r20_network.node[5].content_store 	hits[5] 	3440
scalar tree_4_3_u10_r20_network.node[5].content_store 	misses[5] 	29836
scalar tree_4_3_u10_r20_network.node[5].content_store 	decision_yes[5] 	2942
scalar tree_4_3_u10_r20_network.node[5].content_store 	decision_no[5] 	26893
scalar tree_4_3_u10_r20_network.node[5].content_store 	decision_ratio[5] 	0.098609016256075
scalar tree_4_3_u10_r20_network.node[6].core_layer 	interests[6] 	18883
scalar tree_4_3_u10_r20_network.node[6].core_layer 	data[6] 	13700
scalar tree_4_3_u10_r20_network.node[6].content_store 	p_hit[6] 	0.2744267330403
scalar tree_4_3_u10_r20_network.node[6].content_store 	hits[6] 	5182
scalar tree_4_3_u10_r20_network.node[6].content_store 	misses[6] 	13701
scalar tree_4_3_u10_r20_network.node[6].content_store 	decision_yes[6] 	1394
scalar tree_4_3_u10_r20_network.node[6].content_store 	decision_no[6] 	12306
scalar tree_4_3_u10_r20_network.node[6].content_store 	decision_ratio[6] 	0.10175182481752
scalar tree_4_3_u10_r20_network.node[7].core_layer 	interests[7] 	47690
scalar tree_4_3_u10_r20_network.node[7].core_layer 	data[7] 	44999
scalar tree_4_3_u10_r20_network.node[7].content_store 	p_hit[7] 	0.056426923883414
scalar tree_4_3_u10_r20_network.node[7].content_store 	hits[7] 	2691
scalar tree_4_3_u10_r20_network.node[7].content_store 	misses[7] 	44999
scalar tree_4_3_u10_r20_network.node[7].content_store 	decision_yes[7] 	4384
scalar tree_4_3_u10_r20_network.node[7].content_store 	decision_no[7] 	40614
scalar tree_4_3_u10_r20_network.node[7].content_store 	decision_ratio[7] 	0.097426552291213
scalar tree_4_3_u10_r20_network.node[8].core_layer 	interests[8] 	28752
scalar tree_4_3_u10_r20_network.node[8].core_layer 	data[8] 	26322
scalar tree_4_3_u10_r20_network.node[8].content_store 	p_hit[8] 	0.084515859766277
scalar tree_4_3_u10_r20_network.node[8].content_store 	hits[8] 	2430
scalar tree_4_3_u10_r20_network.node[8].content_store 	misses[8] 	26322
scalar tree_4_3_u10_r20_network.node[8].content_store 	decision_yes[8] 	2597
scalar tree_4_3_u10_r20_network.node[8].content_store 	decision_no[8] 	23725
scalar tree_4_3_u10_r20_network.node[8].content_store 	decision_ratio[8] 	0.098662715599119
scalar tree_4_3_u10_r20_network.node[9].core_layer 	interests[9] 	18559
scalar tree_4_3_u10_r20_network.node[9].core_layer 	data[9] 	13507
scalar tree_4_3_u10_r20_network.node[9].content_store 	p_hit[9] 	0.2721590602942
scalar tree_4_3_u10_r20_network.node[9].content_store 	hits[9] 	5051
scalar tree_4_3_u10_r20_network.node[9].content_store 	misses[9] 	13508
scalar tree_4_3_u10_r20_network.node[9].content_store 	decision_yes[9] 	1322
scalar tree_4_3_u10_r20_network.node[9].content_store 	decision_no[9] 	12185
scalar tree_4_3_u10_r20_network.node[9].content_store 	decision_ratio[9] 	0.097875175834752
scalar tree_4_3_u10_r20_network.node[10].core_layer 	interests[10] 	48652
scalar tree_4_3_u10_r20_network.node[10].core_layer 	data[10] 	46048
scalar tree_4_3_u10_r20_network.node[10].content_store 	p_hit[10] 	0.053502425388473
scalar tree_4_3_u10_r20_network.node[10].content_store 	hits[10] 	2603
scalar tree_4_3_u10_r20_network.node[10].content_store 	misses[10] 	46049
scalar tree_4_3_u10_r20_network.node[10].content_store 	decision_yes[10] 	4611
scalar tree_4_3_u10_r20_network.node[10].content_store 	decision_no[10] 	41437
scalar tree_4_3_u10_r20_network.node[10].content_store 	decision_ratio[10] 	0.10013464211258
scalar tree_4_3_u10_r20_network.node[11].core_layer 	interests[11] 	32034
scalar tree_4_3_u10_r20_network.node[11].core_layer 	data[11] 	29007
scalar tree_4_3_u10_r20_network.node[11].content_store 	p_hit[11] 	0.094493350814759
scalar tree_4_3_u10_r20_network.node[11].content_store 	hits[11] 	3027
scalar tree_4_3_u10_r20_network.node[11].content_store 	misses[11] 	29007
scalar tree_4_3_u10_r20_network.node[11].content_store 	decision_yes[11] 	2835
scalar tree_4_3_u10_r20_network.node[11].content_store 	decision_no[11] 	26172
scalar tree_4_3_u10_r20_network.node[11].content_store 	decision_ratio[11] 	0.097735029475644
scalar tree_4_3_u10_r20_network.node[12].core_layer 	interests[12] 	14742
scalar tree_4_3_u10_r20_network.node[12].core_layer 	data[12] 	10870
scalar tree_4_3_u10_r20_network.node[12].content_store 	p_hit[12] 	0.2626509293176
scalar tree_4_3_u10_r20_network.node[12].content_store 	hits[12] 	3872
scalar tree_4_3_u10_r20_network.node[12].content_store 	misses[12] 	10870
scalar tree_4_3_u10_r20_network.node[12].content_store 	decision_yes[12] 	1130
scalar tree_4_3_u10_r20_network.node[12].content_store 	decision_no[12] 	9740
scalar tree_4_3_u10_r20_network.node[12].content_store 	decision_ratio[12] 	0.10395584176633
scalar tree_4_3_u10_r20_network.node[13].core_layer 	interests[13] 	13011
scalar tree_4_3_u10_r20_network.node[13].core_layer 	data[13] 	9449
scalar tree_4_3_u10_r20_network.node[13].content_store 	p_hit[13] 	0.27376834985781
scalar tree_4_3_u10_r20_network.node[13].content_store 	hits[13] 	3562
scalar tree_4_3_u10_r20_network.node[13].content_store 	misses[13] 	9449
scalar tree_4_3_u10_r20_network.node[13].content_store 	decision_yes[13] 	919
scalar tree_4_3_u10_r20_network.node[13].content_store 	decision_no[13] 	8530
scalar tree_4_3_u10_r20_network.node[13].content_store 	decision_ratio[13] 	0.09725896920309
scalar tree_4_3_u10_r20_network.node[14].core_layer 	interests[14] 	13767
scalar tree_4_3_u10_r20_network.node[14].core_layer 	data[14] 	9679
scalar tree_4_3_u10_r20_network.node[14].content_store 	p_hit[14] 	0.29694196266434
scalar tree_4_3_u10_r20_network.node[14].content_store 	hits[14] 	4088
scalar tree_4_3_u10_r20_network.node[14].content_store 	misses[14] 	9679
scalar tree_4_3_u10_r20_network.node[14].content_store 	decision_yes[14] 	996
scalar tree_4_3_u10_r20_network.node[14].content_store 	decision_no[14] 	8683
scalar tree_4_3_u10_r20_network.node[14].content_store 	decision_ratio[14] 	0.10290319247856
scalar tree_4_3_u10_r20_network.node[15].core_layer 	interests[15] 	13919
scalar tree_4_3_u10_r20_network.node[15].core_layer 	data[15] 	9599
scalar tree_4_3_u10_r20_network.node[15].content_store 	p_hit[15] 	0.31029527983332
scalar tree_4_3_u10_r20_network.node[15].content_store 	hits[15] 	4319
scalar tree_4_3_u10_r20_network.node[15].content_store 	misses[15] 	9600
scalar tree_4_3_u10_r20_network.node[15].content_store 	decision_yes[15] 	985
scalar tree_4_3_u10_r20_network.node[15].content_store 	decision_no[15] 	8614
scalar tree_4_3_u10_r20_network.node[15].content_store 	decision_ratio[15] 	0.10261485571414
scalar tree_4_3_u10_r20_network.node[16].core_layer 	interests[16] 	14355
scalar tree_4_3_u10_r20_network.node[16].core_layer 	data[16] 	9812
scalar tree_4_3_u10_r20_network.node[16].content_store 	p_hit[16] 	0.31640543364681
scalar tree_4_3_u10_r20_network.node[16].content_store 	hits[16] 	4542
scalar tree_4_3_u10_r20_network.node[16].content_store 	misses[16] 	9813
scalar tree_4_3_u10_r20_network.node[16].content_store 	decision_yes[16] 	968
scalar tree_4_3_u10_r20_network.node[16].content_store 	decision_no[16] 	8844
scalar tree_4_3_u10_r20_network.node[16].content_store 	decision_ratio[16] 	0.098654708520179
scalar tree_4_3_u10_r20_network.node[17].core_layer 	interests[17] 	13282
scalar tree_4_3_u10_r20_network.node[17].core_layer 	data[17] 	9624
scalar tree_4_3_u10_r20_network.node[17].content_store 	p_hit[17] 	0.27541032976961
scalar tree_4_3_u10_r20_network.node[17].content_store 	hits[17] 	3658
scalar tree_4_3_u10_r20_network.node[17].content_store 	misses[17] 	9624
scalar tree_4_3_u10_r20_network.node[17].content_store 	decision_yes[17] 	957
scalar tree_4_3_u10_r20_network.node[17].content_store 	decision_no[17] 	8667
scalar tree_4_3_u10_r20_network.node[17].content_store 	decision_ratio[17] 	0.099438902743142
scalar tree_4_3_u10_r20_network.node[18].core_layer 	interests[18] 	13873
scalar tree_4_3_u10_r20_network.node[18].core_layer 	data[18] 	9478
scalar tree_4_3_u10_r20_network.node[18].content_store 	p_hit[18] 	0.31687450443307
scalar tree_4_3_u10_r20_network.node[18].content_store 	hits[18] 	4396
scalar tree_4_3_u10_r20_network.node[18].content_store 	misses[18] 	9477
scalar tree_4_3_u10_r20_network.node[18].content_store 	decision_yes[18] 	907
scalar tree_4_3_u10_r20_network.node[18].content_store 	decision_no[18] 	8571
scalar tree_4_3_u10_r20_network.node[18].content_store 	decision_ratio[18] 	0.0956952943659
scalar tree_4_3_u10_r20_network.node[19].core_layer 	interests[19] 	13809
scalar tree_4_3_u10_r20_network.node[19].core_layer 	data[19] 	9547
scalar tree_4_3_u10_r20_network.node[19].content_store 	p_hit[19] 	0.30863929321457
scalar tree_4_3_u10_r20_network.node[19].content_store 	hits[19] 	4262
scalar tree_4_3_u10_r20_network.node[19].content_store 	misses[19] 	9547
scalar tree_4_3_u10_r20_network.node[19].content_store 	decision_yes[19] 	969
scalar tree_4_3_u10_r20_network.node[19].content_store 	decision_no[19] 	8578
scalar tree_4_3_u10_r20_network.node[19].content_store 	decision_ratio[19] 	0.10149785272861
scalar tree_4_3_u10_r20_network.node[20].core_layer 	interests[20] 	13974
scalar tree_4_3_u10_r20_network.node[20].core_layer 	data[20] 	9711
scalar tree_4_3_u10_r20_network.node[20].content_store 	p_hit[20] 	0.30506655216831
scalar tree_4_3_u10_r20_network.node[20].content_store 	hits[20] 	4263
scalar tree_4_3_u10_r20_network.node[20].content_store 	misses[20] 	9711
scalar tree_4_3_u10_r20_network.node[20].content_store 	decision_yes[20] 	958
scalar tree_4_3_u10_r20_network.node[20].content_store 	decision_no[20] 	8753
scalar tree_4_3_u10_r20_network.node[20].content_store 	decision_ratio[20] 	0.098651014313665
scalar tree_4_3_u10_r20_network.node[21].core_layer 	interests[21] 	12957
scalar tree_4_3_u10_r20_network.node[21].core_layer 	data[21] 	9537
scalar tree_4_3_u10_r20_network.node[21].content_store 	p_hit[21] 	0.26394998842325
scalar tree_4_3_u10_r20_network.node[21].content_store 	hits[21] 	3420
scalar tree_4_3_u10_r20_network.node[21].content_store 	misses[21] 	9537
scalar tree_4_3_u10_r20_network.node[21].content_store 	decision_yes[21] 	965
scalar tree_4_3_u10_r20_network.node[21].content_store 	decision_no[21] 	8572
scalar tree_4_3_u10_r20_network.node[21].content_store 	decision_ratio[21] 	0.10118485897033
scalar tree_4_3_u10_r20_network.node[22].core_layer 	interests[22] 	13186
scalar tree_4_3_u10_r20_network.node[22].core_layer 	data[22] 	9622
scalar tree_4_3_u10_r20_network.node[22].content_store 	p_hit[22] 	0.27021082966783
scalar tree_4_3_u10_r20_network.node[22].content_store 	hits[22] 	3563
scalar tree_4_3_u10_r20_network.node[22].content_store 	misses[22] 	9623
scalar tree_4_3_u10_r20_network.node[22].content_store 	decision_yes[22] 	931
scalar tree_4_3_u10_r20_network.node[22].content_store 	decision_no[22] 	8691
scalar tree_4_3_u10_r20_network.node[22].content_store 	decision_ratio[22] 	0.096757430887549
scalar tree_4_3_u10_r20_network.node[23].core_layer 	interests[23] 	13787
scalar tree_4_3_u10_r20_network.node[23].core_layer 	data[23] 	9332
scalar tree_4_3_u10_r20_network.node[23].content_store 	p_hit[23] 	0.32313048523972
scalar tree_4_3_u10_r20_network.node[23].content_store 	hits[23] 	4455
scalar tree_4_3_u10_r20_network.node[23].content_store 	misses[23] 	9332
scalar tree_4_3_u10_r20_network.node[23].content_store 	decision_yes[23] 	947
scalar tree_4_3_u10_r20_network.node[23].content_store 	decision_no[23] 	8385
scalar tree_4_3_u10_r20_network.node[23].content_store 	decision_ratio[23] 	0.10147878268324
scalar tree_4_3_u10_r20_network.node[24].core_layer 	interests[24] 	13718
scalar tree_4_3_u10_r20_network.node[24].core_layer 	data[24] 	9486
scalar tree_4_3_u10_r20_network.node[24].content_store 	p_hit[24] 	0.30849978130923
scalar tree_4_3_u10_r20_network.node[24].content_store 	hits[24] 	4232
scalar tree_4_3_u10_r20_network.node[24].content_store 	misses[24] 	9486
scalar tree_4_3_u10_r20_network.node[24].content_store 	decision_yes[24] 	947
scalar tree_4_3_u10_r20_network.node[24].content_store 	decision_no[24] 	8539
scalar tree_4_3_u10_r20_network.node[24].content_store 	decision_ratio[24] 	0.099831330381615
scalar tree_4_3_u10_r20_network.node[25].core_layer 	interests[25] 	13839
scalar tree_4_3_u10_r20_network.node[25].core_layer 	data[25] 	9402
scalar tree_4_3_u10_r20_network.node[25].content_store 	p_hit[25] 	0.3206156514199
scalar tree_4_3_u10_r20_network.node[25].content_store 	hits[25] 	4437
scalar tree_4_3_u10_r20_network.node[25].content_store 	misses[25] 	9402
scalar tree_4_3_u10_r20_network.node[25].content_store 	decision_yes[25] 	950
scalar tree_4_3_u10_r20_network.node[25].content_store 	decision_no[25] 	8452
scalar tree_4_3_u10_r20_network.node[25].content_store 	decision_ratio[25] 	0.10104233141885
scalar tree_4_3_u10_r20_network.node[26].core_layer 	interests[26] 	12950
scalar tree_4_3_u10_r20_network.node[26].core_layer 	data[26] 	9617
scalar tree_4_3_u10_r20_network.node[26].content_store 	p_hit[26] 	0.2572972972973
scalar tree_4_3_u10_r20_network.node[26].content_store 	hits[26] 	3332
scalar tree_4_3_u10_r20_network.node[26].content_store 	misses[26] 	9618
scalar tree_4_3_u10_r20_network.node[26].content_store 	decision_yes[26] 	965
scalar tree_4_3_u10_r20_network.node[26].content_store 	decision_no[26] 	8652
scalar tree_4_3_u10_r20_network.node[26].content_store 	decision_ratio[26] 	0.10034314235208
scalar tree_4_3_u10_r20_network.node[27].core_layer 	interests[27] 	13545
scalar tree_4_3_u10_r20_network.node[27].core_layer 	data[27] 	9454
scalar tree_4_3_u10_r20_network.node[27].content_store 	p_hit[27] 	0.30203026947213
scalar tree_4_3_u10_r20_network.node[27].content_store 	hits[27] 	4091
scalar tree_4_3_u10_r20_network.node[27].content_store 	misses[27] 	9454
scalar tree_4_3_u10_r20_network.node[27].content_store 	decision_yes[27] 	908
scalar tree_4_3_u10_r20_network.node[27].content_store 	decision_no[27] 	8546
scalar tree_4_3_u10_r20_network.node[27].content_store 	decision_ratio[27] 	0.096044002538608
scalar tree_4_3_u10_r20_network.node[28].core_layer 	interests[28] 	13882
scalar tree_4_3_u10_r20_network.node[28].core_layer 	data[28] 	9579
scalar tree_4_3_u10_r20_network.node[28].content_store 	p_hit[28] 	0.30989770926379
scalar tree_4_3_u10_r20_network.node[28].content_store 	hits[28] 	4302
scalar tree_4_3_u10_r20_network.node[28].content_store 	misses[28] 	9580
scalar tree_4_3_u10_r20_network.node[28].content_store 	decision_yes[28] 	991
scalar tree_4_3_u10_r20_network.node[28].content_store 	decision_no[28] 	8588
scalar tree_4_3_u10_r20_network.node[28].content_store 	decision_ratio[28] 	0.10345547551937
scalar tree_4_3_u10_r20_network.node[29].core_layer 	interests[29] 	13548
scalar tree_4_3_u10_r20_network.node[29].core_layer 	data[29] 	9487
scalar tree_4_3_u10_r20_network.node[29].content_store 	p_hit[29] 	0.29974904044877
scalar tree_4_3_u10_r20_network.node[29].content_store 	hits[29] 	4061
scalar tree_4_3_u10_r20_network.node[29].content_store 	misses[29] 	9487
scalar tree_4_3_u10_r20_network.node[29].content_store 	decision_yes[29] 	917
scalar tree_4_3_u10_r20_network.node[29].content_store 	decision_no[29] 	8570
scalar tree_4_3_u10_r20_network.node[29].content_store 	decision_ratio[29] 	0.096658585432697
scalar tree_4_3_u10_r20_network.node[30].core_layer 	interests[30] 	12999
scalar tree_4_3_u10_r20_network.node[30].core_layer 	data[30] 	9563
scalar tree_4_3_u10_r20_network.node[30].content_store 	p_hit[30] 	0.26432802523271
scalar tree_4_3_u10_r20_network.node[30].content_store 	hits[30] 	3436
scalar tree_4_3_u10_r20_network.node[30].content_store 	misses[30] 	9563
scalar tree_4_3_u10_r20_network.node[30].content_store 	decision_yes[30] 	998
scalar tree_4_3_u10_r20_network.node[30].content_store 	decision_no[30] 	8565
scalar tree_4_3_u10_r20_network.node[30].content_store 	decision_ratio[30] 	0.10436055631078
scalar tree_4_3_u10_r20_network.node[31].core_layer 	interests[31] 	13395
scalar tree_4_3_u10_r20_network.node[31].core_layer 	data[31] 	9748
scalar tree_4_3_u10_r20_network.node[31].content_store 	p_hit[31] 	0.27226577081
scalar tree_4_3_u10_r20_network.node[31].content_store 	hits[31] 	3647
scalar tree_4_3_u10_r20_network.node[31].content_store 	misses[31] 	9748
scalar tree_4_3_u10_r20_network.node[31].content_store 	decision_yes[31] 	966
scalar tree_4_3_u10_r20_network.node[31].content_store 	decision_no[31] 	8782
scalar tree_4_3_u10_r20_network.node[31].content_store 	decision_ratio[31] 	0.099097250718096
scalar tree_4_3_u10_r20_network.node[32].core_layer 	interests[32] 	13930
scalar tree_4_3_u10_r20_network.node[32].core_layer 	data[32] 	9564
scalar tree_4_3_u10_r20_network.node[32].content_store 	p_hit[32] 	0.31342426417803
scalar tree_4_3_u10_r20_network.node[32].content_store 	hits[32] 	4366
scalar tree_4_3_u10_r20_network.node[32].content_store 	misses[32] 	9564
scalar tree_4_3_u10_r20_network.node[32].content_store 	decision_yes[32] 	1039
scalar tree_4_3_u10_r20_network.node[32].content_store 	decision_no[32] 	8525
scalar tree_4_3_u10_r20_network.node[32].content_store 	decision_ratio[32] 	0.1086365537432
scalar tree_4_3_u10_r20_network.node[33].core_layer 	interests[33] 	13777
scalar tree_4_3_u10_r20_network.node[33].core_layer 	data[33] 	9667
scalar tree_4_3_u10_r20_network.node[33].content_store 	p_hit[33] 	0.29839587718662
scalar tree_4_3_u10_r20_network.node[33].content_store 	hits[33] 	4111
scalar tree_4_3_u10_r20_network.node[33].content_store 	misses[33] 	9666
scalar tree_4_3_u10_r20_network.node[33].content_store 	decision_yes[33] 	984
scalar tree_4_3_u10_r20_network.node[33].content_store 	decision_no[33] 	8683
scalar tree_4_3_u10_r20_network.node[33].content_store 	decision_ratio[33] 	0.10178959346229
scalar tree_4_3_u10_r20_network.node[34].core_layer 	interests[34] 	14152
scalar tree_4_3_u10_r20_network.node[34].core_layer 	data[34] 	9718
scalar tree_4_3_u10_r20_network.node[34].content_store 	p_hit[34] 	0.31331260599209
scalar tree_4_3_u10_r20_network.node[34].content_store 	hits[34] 	4434
scalar tree_4_3_u10_r20_network.node[34].content_store 	misses[34] 	9718
scalar tree_4_3_u10_r20_network.node[34].content_store 	decision_yes[34] 	970
scalar tree_4_3_u10_r20_network.node[34].content_store 	decision_no[34] 	8748
scalar tree_4_3_u10_r20_network.node[34].content_store 	decision_ratio[34] 	0.099814776703025
scalar tree_4_3_u10_r20_network.node[35].core_layer 	interests[35] 	13216
scalar tree_4_3_u10_r20_network.node[35].core_layer 	data[35] 	9516
scalar tree_4_3_u10_r20_network.node[35].content_store 	p_hit[35] 	0.27988801452785
scalar tree_4_3_u10_r20_network.node[35].content_store 	hits[35] 	3699
scalar tree_4_3_u10_r20_network.node[35].content_store 	misses[35] 	9517
scalar tree_4_3_u10_r20_network.node[35].content_store 	decision_yes[35] 	961
scalar tree_4_3_u10_r20_network.node[35].content_store 	decision_no[35] 	8555
scalar tree_4_3_u10_r20_network.node[35].content_store 	decision_ratio[35] 	0.1009878100042
scalar tree_4_3_u10_r20_network.node[36].core_layer 	interests[36] 	13674
scalar tree_4_3_u10_r20_network.node[36].core_layer 	data[36] 	9532
scalar tree_4_3_u10_r20_network.node[36].content_store 	p_hit[36] 	0.30283750182829
scalar tree_4_3_u10_r20_network.node[36].content_store 	hits[36] 	4141
scalar tree_4_3_u10_r20_network.node[36].content_store 	misses[36] 	9533
scalar tree_4_3_u10_r20_network.node[36].content_store 	decision_yes[36] 	939
scalar tree_4_3_u10_r20_network.node[36].content_store 	decision_no[36] 	8593
scalar tree_4_3_u10_r20_network.node[36].content_store 	decision_ratio[36] 	0.098510281158204
scalar tree_4_3_u10_r20_network.node[37].core_layer 	interests[37] 	13813
scalar tree_4_3_u10_r20_network.node[37].core_layer 	data[37] 	9551
scalar tree_4_3_u10_r20_network.node[37].content_store 	p_hit[37] 	0.3084775211757
scalar tree_4_3_u10_r20_network.node[37].content_store 	hits[37] 	4261
scalar tree_4_3_u10_r20_network.node[37].content_store 	misses[37] 	9552
scalar tree_4_3_u10_r20_network.node[37].content_store 	decision_yes[37] 	926
scalar tree_4_3_u10_r20_network.node[37].content_store 	decision_no[37] 	8625
scalar tree_4_3_u10_r20_network.node[37].content_store 	decision_ratio[37] 	0.096953198617946
scalar tree_4_3_u10_r20_network.node[38].core_layer 	interests[38] 	13465
scalar tree_4_3_u10_r20_network.node[38].core_layer 	data[38] 	9364
scalar tree_4_3_u10_r20_network.node[38].content_store 	p_hit[38] 	0.30456739695507
scalar tree_4_3_u10_r20_network.node[38].content_store 	hits[38] 	4101
scalar tree_4_3_u10_r20_network.node[38].content_store 	misses[38] 	9364
scalar tree_4_3_u10_r20_network.node[38].content_store 	decision_yes[38] 	905
scalar tree_4_3_u10_r20_network.node[38].content_store 	decision_no[38] 	8459
scalar tree_4_3_u10_r20_network.node[38].content_store 	decision_ratio[38] 	0.096646732165741
scalar tree_4_3_u10_r20_network.node[39].core_layer 	interests[39] 	12756
scalar tree_4_3_u10_r20_network.node[39].core_layer 	data[39] 	9531
scalar tree_4_3_u10_r20_network.node[39].content_store 	p_hit[39] 	0.25282220131703
scalar tree_4_3_u10_r20_network.node[39].content_store 	hits[39] 	3225
scalar tree_4_3_u10_r20_network.node[39].content_store 	misses[39] 	9531
scalar tree_4_3_u10_r20_network.node[39].content_store 	decision_yes[39] 	1005
scalar tree_4_3_u10_r20_network.node[39].content_store 	decision_no[39] 	8526
scalar tree_4_3_u10_r20_network.node[39].content_store 	decision_ratio[39] 	0.10544538873151
scalar tree_4_3_u10_r20_network.client[13] 	hdistance[13] 	2.8668333333333
scalar tree_4_3_u10_r20_network.client[13] 	downloads[13] 	12000
scalar tree_4_3_u10_r20_network.client[13] 	avg_time[13] 	0.00458103045
scalar tree_4_3_u10_r20_network.client[14] 	hdistance[14] 	2.8192932507118
scalar tree_4_3_u10_r20_network.client[14] 	downloads[14] 	11942
scalar tree_4_3_u10_r20_network.client[14] 	avg_time[14] 	0.004528446615
scalar tree_4_3_u10_r20_network.client[15] 	hdistance[15] 	2.7267080745342
scalar tree_4_3_u10_r20_network.client[15] 	downloads[15] 	12075
scalar tree_4_3_u10_r20_network.client[15] 	avg_time[15] 	0.004384262013
scalar tree_4_3_u10_r20_network.client[16] 	hdistance[16] 	2.7916974321109
scalar tree_4_3_u10_r20_network.client[16] 	downloads[16] 	12189
scalar tree_4_3_u10_r20_network.client[16] 	avg_time[16] 	0.004489355389
scalar tree_4_3_u10_r20_network.client[17] 	hdistance[17] 	2.8527551190278
scalar tree_4_3_u10_r20_network.client[17] 	downloads[17] 	12014
scalar tree_4_3_u10_r20_network.client[17] 	avg_time[17] 	0.004610617936
scalar tree_4_3_u10_r20_network.client[18] 	hdistance[18] 	2.727825646224
scalar tree_4_3_u10_r20_network.client[18] 	downloads[18] 	11838
scalar tree_4_3_u10_r20_network.client[18] 	avg_time[18] 	0.004375060369
scalar tree_4_3_u10_r20_network.client[19] 	hdistance[19] 	2.7326417935419
scalar tree_4_3_u10_r20_network.client[19] 	downloads[19] 	11954
scalar tree_4_3_u10_r20_network.client[19] 	avg_time[19] 	0.004383237909
scalar tree_4_3_u10_r20_network.client[20] 	hdistance[20] 	2.726470345624
scalar tree_4_3_u10_r20_network.client[20] 	downloads[20] 	12123
scalar tree_4_3_u10_r20_network.client[20] 	avg_time[20] 	0.004375976515
scalar tree_4_3_u10_r20_network.client[21] 	hdistance[21] 	2.8152690863579
scalar tree_4_3_u10_r20_network.client[21] 	downloads[21] 	11985
scalar tree_4_3_u10_r20_network.client[21] 	avg_time[21] 	0.004529825928
scalar tree_4_3_u10_r20_network.client[22] 	hdistance[22] 	2.8779874213837
scalar tree_4_3_u10_r20_network.client[22] 	downloads[22] 	11925
scalar tree_4_3_u10_r20_network.client[22] 	avg_time[22] 	0.004656936213
scalar tree_4_3_u10_r20_network.client[23] 	hdistance[23] 	2.7258942782944
scalar tree_4_3_u10_r20_network.client[23] 	downloads[23] 	11937
scalar tree_4_3_u10_r20_network.client[23] 	avg_time[23] 	0.004370603395
scalar tree_4_3_u10_r20_network.client[24] 	hdistance[24] 	2.7237685560054
scalar tree_4_3_u10_r20_network.client[24] 	downloads[24] 	11856
scalar tree_4_3_u10_r20_network.client[24] 	avg_time[24] 	0.00437735874
scalar tree_4_3_u10_r20_network.client[25] 	hdistance[25] 	2.7639510341916
scalar tree_4_3_u10_r20_network.client[25] 	downloads[25] 	11845
scalar tree_4_3_u10_r20_network.client[25] 	avg_time[25] 	0.0044356239
scalar tree_4_3_u10_r20_network.client[26] 	hdistance[26] 	2.8672230025613
scalar tree_4_3_u10_r20_network.client[26] 	downloads[26] 	12103
scalar tree_4_3_u10_r20_network.client[26] 	avg_time[26] 	0.004584129326
scalar tree_4_3_u10_r20_network.client[27] 	hdistance[27] 	2.7373652291105
scalar tree_4_3_u10_r20_network.client[27] 	downloads[27] 	11872
scalar tree_4_3_u10_r20_network.client[27] 	avg_time[27] 	0.004387968729
scalar tree_4_3_u10_r20_network.client[28] 	hdistance[28] 	2.7183239108746
scalar tree_4_3_u10_r20_network.client[28] 	downloads[28] 	12028
scalar tree_4_3_u10_r20_network.client[28] 	avg_time[28] 	0.004360020438
scalar tree_4_3_u10_r20_network.client[29] 	hdistance[29] 	2.7527440301634
scalar tree_4_3_u10_r20_network.client[29] 	downloads[29] 	11935
scalar tree_4_3_u10_r20_network.client[29] 	avg_time[29] 	0.004404018772
scalar tree_4_3_u10_r20_network.client[30] 	hdistance[30] 	2.7894956231763
scalar tree_4_3_u10_r20_network.client[30] 	downloads[30] 	11995
scalar tree_4_3_u10_r20_network.client[30] 	avg_time[30] 	0.004495416299
scalar tree_4_3_u10_r20_network.client[31] 	hdistance[31] 	2.8492089650626
scalar tree_4_3_u10_r20_network.client[31] 	downloads[31] 	12136
scalar tree_4_3_u10_r20_network.client[31] 	avg_time[31] 	0.004605962712
scalar tree_4_3_u10_r20_network.client[32] 	hdistance[32] 	2.753234827615
scalar tree_4_3_u10_r20_network.client[32] 	downloads[32] 	11979
scalar tree_4_3_u10_r20_network.client[32] 	avg_time[32] 	0.004424313906
scalar tree_4_3_u10_r20_network.client[33] 	hdistance[33] 	2.7839819984999
scalar tree_4_3_u10_r20_network.client[33] 	downloads[33] 	11999
scalar tree_4_3_u10_r20_network.client[33] 	avg_time[33] 	0.004452272487
scalar tree_4_3_u10_r20_network.client[34] 	hdistance[34] 	2.7656442726749
scalar tree_4_3_u10_r20_network.client[34] 	downloads[34] 	12161
scalar tree_4_3_u10_r20_network.client[34] 	avg_time[34] 	0.004447574404
scalar tree_4_3_u10_r20_network.client[35] 	hdistance[35] 	2.794351499089
scalar tree_4_3_u10_r20_network.client[35] 	downloads[35] 	12074
scalar tree_4_3_u10_r20_network.client[35] 	avg_time[35] 	0.004514318341
scalar tree_4_3_u10_r20_network.client[36] 	hdistance[36] 	2.7354263824117
scalar tree_4_3_u10_r20_network.client[36] 	downloads[36] 	12008
scalar tree_4_3_u10_r20_network.client[36] 	avg_time[36] 	0.004379129965
scalar tree_4_3_u10_r20_network.client[37] 	hdistance[37] 	2.7392755800367
scalar tree_4_3_u10_r20_network.client[37] 	downloads[37] 	11982
scalar tree_4_3_u10_r20_network.client[37] 	avg_time[37] 	0.004380297253
scalar tree_4_3_u10_r20_network.client[38] 	hdistance[38] 	2.7430285617712
scalar tree_4_3_u10_r20_network.client[38] 	downloads[38] 	11834
scalar tree_4_3_u10_r20_network.client[38] 	avg_time[38] 	0.004383975414
scalar tree_4_3_u10_r20_network.client[39] 	hdistance[39] 	2.8334310359266
scalar tree_4_3_u10_r20_network.client[39] 	downloads[39] 	11941
scalar tree_4_3_u10_r20_network.client[39] 	avg_time[39] 	0.004516034201
