version 2
run General-22-20160819-00:41:11-14109
attr a 0.9
attr cd fix0.01
attr configname General
attr cr lru
attr datetime 20160819-00:41:11
attr experiment General
attr fsize 1
attr inifile hw5115/scenario_A/NRR-FIX0.01.ini
attr iterationvars "$name=tree_4_3, $un=01, $rep=3, $cd=fix0.01, $cr=lru, $fsize=1, $a=0.9, $sl=nrr, $ttl=1000, $variance=0.05"
attr iterationvars2 "$name=tree_4_3, $un=01, $rep=3, $cd=fix0.01, $cr=lru, $fsize=1, $a=0.9, $sl=nrr, $ttl=1000, $variance=0.05, $repetition=0"
attr measurement "$name=tree_4_3, $un=01, $rep=3, $cd=fix0.01, $cr=lru, $fsize=1, $a=0.9, $sl=nrr, $ttl=1000, $variance=0.05"
attr name tree_4_3
attr network networks.${name}_u${un}_r${rep}_network
attr processid 14109
attr rep 3
attr repetition 0
attr replication #0
attr resultdir results
attr runnumber 22
attr seedset 3
attr sl nrr
attr ttl 1000
attr un 01
attr variance 0.05

scalar . 	a 	0.9
scalar . 	fsize 	1
scalar . 	rep 	3
scalar . 	ttl 	1000
scalar . 	un 	01
scalar . 	variance 	0.05
scalar tree_4_3_u01_r3_network.content_distribution 	repo-0 	0
scalar tree_4_3_u01_r3_network.content_distribution 	client-0 	13
scalar tree_4_3_u01_r3_network.content_distribution 	client-1 	14
scalar tree_4_3_u01_r3_network.content_distribution 	client-2 	15
scalar tree_4_3_u01_r3_network.content_distribution 	client-3 	16
scalar tree_4_3_u01_r3_network.content_distribution 	client-4 	17
scalar tree_4_3_u01_r3_network.content_distribution 	client-5 	18
scalar tree_4_3_u01_r3_network.content_distribution 	client-6 	19
scalar tree_4_3_u01_r3_network.content_distribution 	client-7 	20
scalar tree_4_3_u01_r3_network.content_distribution 	client-8 	21
scalar tree_4_3_u01_r3_network.content_distribution 	client-9 	22
scalar tree_4_3_u01_r3_network.content_distribution 	client-10 	23
scalar tree_4_3_u01_r3_network.content_distribution 	client-11 	24
scalar tree_4_3_u01_r3_network.content_distribution 	client-12 	25
scalar tree_4_3_u01_r3_network.content_distribution 	client-13 	26
scalar tree_4_3_u01_r3_network.content_distribution 	client-14 	27
scalar tree_4_3_u01_r3_network.content_distribution 	client-15 	28
scalar tree_4_3_u01_r3_network.content_distribution 	client-16 	29
scalar tree_4_3_u01_r3_network.content_distribution 	client-17 	30
scalar tree_4_3_u01_r3_network.content_distribution 	client-18 	31
scalar tree_4_3_u01_r3_network.content_distribution 	client-19 	32
scalar tree_4_3_u01_r3_network.content_distribution 	client-20 	33
scalar tree_4_3_u01_r3_network.content_distribution 	client-21 	34
scalar tree_4_3_u01_r3_network.content_distribution 	client-22 	35
scalar tree_4_3_u01_r3_network.content_distribution 	client-23 	36
scalar tree_4_3_u01_r3_network.content_distribution 	client-24 	37
scalar tree_4_3_u01_r3_network.content_distribution 	client-25 	38
scalar tree_4_3_u01_r3_network.content_distribution 	client-26 	39
scalar tree_4_3_u01_r3_network.content_distribution 	repo-0_card 	100000
scalar tree_4_3_u01_r3_network.content_distribution 	repo-0_price 	0
scalar tree_4_3_u01_r3_network.statistics 	stabilization_time 	1866
scalar tree_4_3_u01_r3_network.statistics 	p_hit 	0.21739925502565
scalar tree_4_3_u01_r3_network.statistics 	interests 	25739.575
scalar tree_4_3_u01_r3_network.statistics 	data 	17641.45
scalar tree_4_3_u01_r3_network.statistics 	hdistance 	2.7643374263031
scalar tree_4_3_u01_r3_network.statistics 	avg_time 	0.004356858824
scalar tree_4_3_u01_r3_network.statistics 	downloads 	323929
scalar tree_4_3_u01_r3_network.statistics 	total_cost 	0
scalar tree_4_3_u01_r3_network.statistics 	total_replicas 	100000
scalar tree_4_3_u01_r3_network.statistics 	inner_hit 	0.41413087435827
scalar tree_4_3_u01_r3_network.node[0].core_layer 	interests[0] 	191611
scalar tree_4_3_u01_r3_network.node[0].core_layer 	repo_load[0] 	189780
scalar tree_4_3_u01_r3_network.node[0].core_layer 	data[0] 	0
scalar tree_4_3_u01_r3_network.node[0].core_layer 	repo_int[0] 	189780
scalar tree_4_3_u01_r3_network.node[0].content_store 	p_hit[0] 	0.0095558188204226
scalar tree_4_3_u01_r3_network.node[0].content_store 	hits[0] 	1831
scalar tree_4_3_u01_r3_network.node[0].content_store 	misses[0] 	189780
scalar tree_4_3_u01_r3_network.node[0].content_store 	decision_yes[0] 	1937
scalar tree_4_3_u01_r3_network.node[0].content_store 	decision_no[0] 	187843
scalar tree_4_3_u01_r3_network.node[0].content_store 	decision_ratio[0] 	0.010206554958373
scalar tree_4_3_u01_r3_network.node[1].core_layer 	interests[1] 	73291
scalar tree_4_3_u01_r3_network.node[1].core_layer 	data[1] 	71507
scalar tree_4_3_u01_r3_network.node[1].content_store 	p_hit[1] 	0.024341324309943
scalar tree_4_3_u01_r3_network.node[1].content_store 	hits[1] 	1784
scalar tree_4_3_u01_r3_network.node[1].content_store 	misses[1] 	71507
scalar tree_4_3_u01_r3_network.node[1].content_store 	decision_yes[1] 	732
scalar tree_4_3_u01_r3_network.node[1].content_store 	decision_no[1] 	70775
scalar tree_4_3_u01_r3_network.node[1].content_store 	decision_ratio[1] 	0.010236760037479
scalar tree_4_3_u01_r3_network.node[2].core_layer 	interests[2] 	93911
scalar tree_4_3_u01_r3_network.node[2].core_layer 	data[2] 	91973
scalar tree_4_3_u01_r3_network.node[2].content_store 	p_hit[2] 	0.020636560147374
scalar tree_4_3_u01_r3_network.node[2].content_store 	hits[2] 	1938
scalar tree_4_3_u01_r3_network.node[2].content_store 	misses[2] 	91973
scalar tree_4_3_u01_r3_network.node[2].content_store 	decision_yes[2] 	948
scalar tree_4_3_u01_r3_network.node[2].content_store 	decision_no[2] 	91025
scalar tree_4_3_u01_r3_network.node[2].content_store 	decision_ratio[2] 	0.010307372815935
scalar tree_4_3_u01_r3_network.node[3].core_layer 	interests[3] 	50414
scalar tree_4_3_u01_r3_network.node[3].core_layer 	data[3] 	48398
scalar tree_4_3_u01_r3_network.node[3].content_store 	p_hit[3] 	0.039949220454636
scalar tree_4_3_u01_r3_network.node[3].content_store 	hits[3] 	2014
scalar tree_4_3_u01_r3_network.node[3].content_store 	misses[3] 	48400
scalar tree_4_3_u01_r3_network.node[3].content_store 	decision_yes[3] 	478
scalar tree_4_3_u01_r3_network.node[3].content_store 	decision_no[3] 	47920
scalar tree_4_3_u01_r3_network.node[3].content_store 	decision_ratio[3] 	0.0098764411752552
scalar tree_4_3_u01_r3_network.node[4].core_layer 	interests[4] 	30078
scalar tree_4_3_u01_r3_network.node[4].core_layer 	data[4] 	27131
scalar tree_4_3_u01_r3_network.node[4].content_store 	p_hit[4] 	0.098011835893344
scalar tree_4_3_u01_r3_network.node[4].content_store 	hits[4] 	2948
scalar tree_4_3_u01_r3_network.node[4].content_store 	misses[4] 	27130
scalar tree_4_3_u01_r3_network.node[4].content_store 	decision_yes[4] 	283
scalar tree_4_3_u01_r3_network.node[4].content_store 	decision_no[4] 	26848
scalar tree_4_3_u01_r3_network.node[4].content_store 	decision_ratio[4] 	0.010430872433747
scalar tree_4_3_u01_r3_network.node[5].core_layer 	interests[5] 	29879
scalar tree_4_3_u01_r3_network.node[5].core_layer 	data[5] 	27072
scalar tree_4_3_u01_r3_network.node[5].content_store 	p_hit[5] 	0.093979048830282
scalar tree_4_3_u01_r3_network.node[5].content_store 	hits[5] 	2808
scalar tree_4_3_u01_r3_network.node[5].content_store 	misses[5] 	27071
scalar tree_4_3_u01_r3_network.node[5].content_store 	decision_yes[5] 	274
scalar tree_4_3_u01_r3_network.node[5].content_store 	decision_no[5] 	26798
scalar tree_4_3_u01_r3_network.node[5].content_store 	decision_ratio[5] 	0.010121158392435
scalar tree_4_3_u01_r3_network.node[6].core_layer 	interests[6] 	29670
scalar tree_4_3_u01_r3_network.node[6].core_layer 	data[6] 	27260
scalar tree_4_3_u01_r3_network.node[6].content_store 	p_hit[6] 	0.081226828446242
scalar tree_4_3_u01_r3_network.node[6].content_store 	hits[6] 	2410
scalar tree_4_3_u01_r3_network.node[6].content_store 	misses[6] 	27260
scalar tree_4_3_u01_r3_network.node[6].content_store 	decision_yes[6] 	308
scalar tree_4_3_u01_r3_network.node[6].content_store 	decision_no[6] 	26952
scalar tree_4_3_u01_r3_network.node[6].content_store 	decision_ratio[6] 	0.011298606016141
scalar tree_4_3_u01_r3_network.node[7].core_layer 	interests[7] 	37622
scalar tree_4_3_u01_r3_network.node[7].core_layer 	data[7] 	34421
scalar tree_4_3_u01_r3_network.node[7].content_store 	p_hit[7] 	0.085030035617458
scalar tree_4_3_u01_r3_network.node[7].content_store 	hits[7] 	3199
scalar tree_4_3_u01_r3_network.node[7].content_store 	misses[7] 	34423
scalar tree_4_3_u01_r3_network.node[7].content_store 	decision_yes[7] 	344
scalar tree_4_3_u01_r3_network.node[7].content_store 	decision_no[7] 	34077
scalar tree_4_3_u01_r3_network.node[7].content_store 	decision_ratio[7] 	0.0099938990732402
scalar tree_4_3_u01_r3_network.node[8].core_layer 	interests[8] 	20876
scalar tree_4_3_u01_r3_network.node[8].core_layer 	data[8] 	18207
scalar tree_4_3_u01_r3_network.node[8].content_store 	p_hit[8] 	0.12785016286645
scalar tree_4_3_u01_r3_network.node[8].content_store 	hits[8] 	2669
scalar tree_4_3_u01_r3_network.node[8].content_store 	misses[8] 	18207
scalar tree_4_3_u01_r3_network.node[8].content_store 	decision_yes[8] 	174
scalar tree_4_3_u01_r3_network.node[8].content_store 	decision_no[8] 	18033
scalar tree_4_3_u01_r3_network.node[8].content_store 	decision_ratio[8] 	0.0095567638820234
scalar tree_4_3_u01_r3_network.node[9].core_layer 	interests[9] 	30704
scalar tree_4_3_u01_r3_network.node[9].core_layer 	data[9] 	27342
scalar tree_4_3_u01_r3_network.node[9].content_store 	p_hit[9] 	0.10946456487754
scalar tree_4_3_u01_r3_network.node[9].content_store 	hits[9] 	3361
scalar tree_4_3_u01_r3_network.node[9].content_store 	misses[9] 	27343
scalar tree_4_3_u01_r3_network.node[9].content_store 	decision_yes[9] 	250
scalar tree_4_3_u01_r3_network.node[9].content_store 	decision_no[9] 	27092
scalar tree_4_3_u01_r3_network.node[9].content_store 	decision_ratio[9] 	0.0091434423231658
scalar tree_4_3_u01_r3_network.node[10].core_layer 	interests[10] 	29508
scalar tree_4_3_u01_r3_network.node[10].core_layer 	data[10] 	26791
scalar tree_4_3_u01_r3_network.node[10].content_store 	p_hit[10] 	0.092076724955944
scalar tree_4_3_u01_r3_network.node[10].content_store 	hits[10] 	2717
scalar tree_4_3_u01_r3_network.node[10].content_store 	misses[10] 	26791
scalar tree_4_3_u01_r3_network.node[10].content_store 	decision_yes[10] 	277
scalar tree_4_3_u01_r3_network.node[10].content_store 	decision_no[10] 	26514
scalar tree_4_3_u01_r3_network.node[10].content_store 	decision_ratio[10] 	0.010339293046172
scalar tree_4_3_u01_r3_network.node[11].core_layer 	interests[11] 	33012
scalar tree_4_3_u01_r3_network.node[11].core_layer 	data[11] 	28928
scalar tree_4_3_u01_r3_network.node[11].content_store 	p_hit[11] 	0.12368229734642
scalar tree_4_3_u01_r3_network.node[11].content_store 	hits[11] 	4083
scalar tree_4_3_u01_r3_network.node[11].content_store 	misses[11] 	28929
scalar tree_4_3_u01_r3_network.node[11].content_store 	decision_yes[11] 	271
scalar tree_4_3_u01_r3_network.node[11].content_store 	decision_no[11] 	28657
scalar tree_4_3_u01_r3_network.node[11].content_store 	decision_ratio[11] 	0.0093680862831858
scalar tree_4_3_u01_r3_network.node[12].core_layer 	interests[12] 	28933
scalar tree_4_3_u01_r3_network.node[12].core_layer 	data[12] 	26610
scalar tree_4_3_u01_r3_network.node[12].content_store 	p_hit[12] 	0.080288943421007
scalar tree_4_3_u01_r3_network.node[12].content_store 	hits[12] 	2323
scalar tree_4_3_u01_r3_network.node[12].content_store 	misses[12] 	26610
scalar tree_4_3_u01_r3_network.node[12].content_store 	decision_yes[12] 	271
scalar tree_4_3_u01_r3_network.node[12].content_store 	decision_no[12] 	26339
scalar tree_4_3_u01_r3_network.node[12].content_store 	decision_ratio[12] 	0.010184141300263
scalar tree_4_3_u01_r3_network.node[13].core_layer 	interests[13] 	12731
scalar tree_4_3_u01_r3_network.node[13].core_layer 	data[13] 	9168
scalar tree_4_3_u01_r3_network.node[13].content_store 	p_hit[13] 	0.27986803864583
scalar tree_4_3_u01_r3_network.node[13].content_store 	hits[13] 	3563
scalar tree_4_3_u01_r3_network.node[13].content_store 	misses[13] 	9168
scalar tree_4_3_u01_r3_network.node[13].content_store 	decision_yes[13] 	93
scalar tree_4_3_u01_r3_network.node[13].content_store 	decision_no[13] 	9075
scalar tree_4_3_u01_r3_network.node[13].content_store 	decision_ratio[13] 	0.010143979057592
scalar tree_4_3_u01_r3_network.node[14].core_layer 	interests[14] 	12918
scalar tree_4_3_u01_r3_network.node[14].core_layer 	data[14] 	9297
scalar tree_4_3_u01_r3_network.node[14].content_store 	p_hit[14] 	0.28022913763741
scalar tree_4_3_u01_r3_network.node[14].content_store 	hits[14] 	3620
scalar tree_4_3_u01_r3_network.node[14].content_store 	misses[14] 	9298
scalar tree_4_3_u01_r3_network.node[14].content_store 	decision_yes[14] 	104
scalar tree_4_3_u01_r3_network.node[14].content_store 	decision_no[14] 	9193
scalar tree_4_3_u01_r3_network.node[14].content_store 	decision_ratio[14] 	0.011186404216414
scalar tree_4_3_u01_r3_network.node[15].core_layer 	interests[15] 	13088
scalar tree_4_3_u01_r3_network.node[15].core_layer 	data[15] 	9490
scalar tree_4_3_u01_r3_network.node[15].content_store 	p_hit[15] 	0.27498471882641
scalar tree_4_3_u01_r3_network.node[15].content_store 	hits[15] 	3599
scalar tree_4_3_u01_r3_network.node[15].content_store 	misses[15] 	9489
scalar tree_4_3_u01_r3_network.node[15].content_store 	decision_yes[15] 	103
scalar tree_4_3_u01_r3_network.node[15].content_store 	decision_no[15] 	9387
scalar tree_4_3_u01_r3_network.node[15].content_store 	decision_ratio[15] 	0.010853530031612
scalar tree_4_3_u01_r3_network.node[16].core_layer 	interests[16] 	12931
scalar tree_4_3_u01_r3_network.node[16].core_layer 	data[16] 	9314
scalar tree_4_3_u01_r3_network.node[16].content_store 	p_hit[16] 	0.27971541257443
scalar tree_4_3_u01_r3_network.node[16].content_store 	hits[16] 	3617
scalar tree_4_3_u01_r3_network.node[16].content_store 	misses[16] 	9314
scalar tree_4_3_u01_r3_network.node[16].content_store 	decision_yes[16] 	104
scalar tree_4_3_u01_r3_network.node[16].content_store 	decision_no[16] 	9210
scalar tree_4_3_u01_r3_network.node[16].content_store 	decision_ratio[16] 	0.011165986686708
scalar tree_4_3_u01_r3_network.node[17].core_layer 	interests[17] 	12995
scalar tree_4_3_u01_r3_network.node[17].core_layer 	data[17] 	9363
scalar tree_4_3_u01_r3_network.node[17].content_store 	p_hit[17] 	0.27956906502501
scalar tree_4_3_u01_r3_network.node[17].content_store 	hits[17] 	3633
scalar tree_4_3_u01_r3_network.node[17].content_store 	misses[17] 	9362
scalar tree_4_3_u01_r3_network.node[17].content_store 	decision_yes[17] 	94
scalar tree_4_3_u01_r3_network.node[17].content_store 	decision_no[17] 	9269
scalar tree_4_3_u01_r3_network.node[17].content_store 	decision_ratio[17] 	0.010039517248745
scalar tree_4_3_u01_r3_network.node[18].core_layer 	interests[18] 	12941
scalar tree_4_3_u01_r3_network.node[18].core_layer 	data[18] 	9221
scalar tree_4_3_u01_r3_network.node[18].content_store 	p_hit[18] 	0.28745846534271
scalar tree_4_3_u01_r3_network.node[18].content_store 	hits[18] 	3720
scalar tree_4_3_u01_r3_network.node[18].content_store 	misses[18] 	9221
scalar tree_4_3_u01_r3_network.node[18].content_store 	decision_yes[18] 	100
scalar tree_4_3_u01_r3_network.node[18].content_store 	decision_no[18] 	9121
scalar tree_4_3_u01_r3_network.node[18].content_store 	decision_ratio[18] 	0.010844810758052
scalar tree_4_3_u01_r3_network.node[19].core_layer 	interests[19] 	12759
scalar tree_4_3_u01_r3_network.node[19].core_layer 	data[19] 	9186
scalar tree_4_3_u01_r3_network.node[19].content_store 	p_hit[19] 	0.28003762050317
scalar tree_4_3_u01_r3_network.node[19].content_store 	hits[19] 	3573
scalar tree_4_3_u01_r3_network.node[19].content_store 	misses[19] 	9186
scalar tree_4_3_u01_r3_network.node[19].content_store 	decision_yes[19] 	104
scalar tree_4_3_u01_r3_network.node[19].content_store 	decision_no[19] 	9082
scalar tree_4_3_u01_r3_network.node[19].content_store 	decision_ratio[19] 	0.011321576311779
scalar tree_4_3_u01_r3_network.node[20].core_layer 	interests[20] 	12948
scalar tree_4_3_u01_r3_network.node[20].core_layer 	data[20] 	9332
scalar tree_4_3_u01_r3_network.node[20].content_store 	p_hit[20] 	0.27927092987334
scalar tree_4_3_u01_r3_network.node[20].content_store 	hits[20] 	3616
scalar tree_4_3_u01_r3_network.node[20].content_store 	misses[20] 	9332
scalar tree_4_3_u01_r3_network.node[20].content_store 	decision_yes[20] 	94
scalar tree_4_3_u01_r3_network.node[20].content_store 	decision_no[20] 	9238
scalar tree_4_3_u01_r3_network.node[20].content_store 	decision_ratio[20] 	0.010072867552508
scalar tree_4_3_u01_r3_network.node[21].core_layer 	interests[21] 	12988
scalar tree_4_3_u01_r3_network.node[21].core_layer 	data[21] 	9186
scalar tree_4_3_u01_r3_network.node[21].content_store 	p_hit[21] 	0.29273175238682
scalar tree_4_3_u01_r3_network.node[21].content_store 	hits[21] 	3802
scalar tree_4_3_u01_r3_network.node[21].content_store 	misses[21] 	9186
scalar tree_4_3_u01_r3_network.node[21].content_store 	decision_yes[21] 	101
scalar tree_4_3_u01_r3_network.node[21].content_store 	decision_no[21] 	9085
scalar tree_4_3_u01_r3_network.node[21].content_store 	decision_ratio[21] 	0.010994992379708
scalar tree_4_3_u01_r3_network.node[22].core_layer 	interests[22] 	12970
scalar tree_4_3_u01_r3_network.node[22].core_layer 	data[22] 	9267
scalar tree_4_3_u01_r3_network.node[22].content_store 	p_hit[22] 	0.28550501156515
scalar tree_4_3_u01_r3_network.node[22].content_store 	hits[22] 	3703
scalar tree_4_3_u01_r3_network.node[22].content_store 	misses[22] 	9267
scalar tree_4_3_u01_r3_network.node[22].content_store 	decision_yes[22] 	97
scalar tree_4_3_u01_r3_network.node[22].content_store 	decision_no[22] 	9170
scalar tree_4_3_u01_r3_network.node[22].content_store 	decision_ratio[22] 	0.010467249379519
scalar tree_4_3_u01_r3_network.node[23].core_layer 	interests[23] 	12775
scalar tree_4_3_u01_r3_network.node[23].core_layer 	data[23] 	9187
scalar tree_4_3_u01_r3_network.node[23].content_store 	p_hit[23] 	0.28086105675147
scalar tree_4_3_u01_r3_network.node[23].content_store 	hits[23] 	3588
scalar tree_4_3_u01_r3_network.node[23].content_store 	misses[23] 	9187
scalar tree_4_3_u01_r3_network.node[23].content_store 	decision_yes[23] 	96
scalar tree_4_3_u01_r3_network.node[23].content_store 	decision_no[23] 	9091
scalar tree_4_3_u01_r3_network.node[23].content_store 	decision_ratio[23] 	0.010449548274736
scalar tree_4_3_u01_r3_network.node[24].core_layer 	interests[24] 	13700
scalar tree_4_3_u01_r3_network.node[24].core_layer 	data[24] 	9271
scalar tree_4_3_u01_r3_network.node[24].content_store 	p_hit[24] 	0.32335766423358
scalar tree_4_3_u01_r3_network.node[24].content_store 	hits[24] 	4430
scalar tree_4_3_u01_r3_network.node[24].content_store 	misses[24] 	9270
scalar tree_4_3_u01_r3_network.node[24].content_store 	decision_yes[24] 	79
scalar tree_4_3_u01_r3_network.node[24].content_store 	decision_no[24] 	9192
scalar tree_4_3_u01_r3_network.node[24].content_store 	decision_ratio[24] 	0.008521195124582
scalar tree_4_3_u01_r3_network.node[25].core_layer 	interests[25] 	13390
scalar tree_4_3_u01_r3_network.node[25].core_layer 	data[25] 	9133
scalar tree_4_3_u01_r3_network.node[25].content_store 	p_hit[25] 	0.31792382374907
scalar tree_4_3_u01_r3_network.node[25].content_store 	hits[25] 	4257
scalar tree_4_3_u01_r3_network.node[25].content_store 	misses[25] 	9133
scalar tree_4_3_u01_r3_network.node[25].content_store 	decision_yes[25] 	90
scalar tree_4_3_u01_r3_network.node[25].content_store 	decision_no[25] 	9043
scalar tree_4_3_u01_r3_network.node[25].content_store 	decision_ratio[25] 	0.0098543742472353
scalar tree_4_3_u01_r3_network.node[26].core_layer 	interests[26] 	12717
scalar tree_4_3_u01_r3_network.node[26].core_layer 	data[26] 	9133
scalar tree_4_3_u01_r3_network.node[26].content_store 	p_hit[26] 	0.28167020523708
scalar tree_4_3_u01_r3_network.node[26].content_store 	hits[26] 	3582
scalar tree_4_3_u01_r3_network.node[26].content_store 	misses[26] 	9135
scalar tree_4_3_u01_r3_network.node[26].content_store 	decision_yes[26] 	98
scalar tree_4_3_u01_r3_network.node[26].content_store 	decision_no[26] 	9035
scalar tree_4_3_u01_r3_network.node[26].content_store 	decision_ratio[26] 	0.010730318624767
scalar tree_4_3_u01_r3_network.node[27].core_layer 	interests[27] 	12607
scalar tree_4_3_u01_r3_network.node[27].core_layer 	data[27] 	9150
scalar tree_4_3_u01_r3_network.node[27].content_store 	p_hit[27] 	0.27421273895455
scalar tree_4_3_u01_r3_network.node[27].content_store 	hits[27] 	3457
scalar tree_4_3_u01_r3_network.node[27].content_store 	misses[27] 	9150
scalar tree_4_3_u01_r3_network.node[27].content_store 	decision_yes[27] 	90
scalar tree_4_3_u01_r3_network.node[27].content_store 	decision_no[27] 	9060
scalar tree_4_3_u01_r3_network.node[27].content_store 	decision_ratio[27] 	0.0098360655737705
scalar tree_4_3_u01_r3_network.node[28].core_layer 	interests[28] 	12772
scalar tree_4_3_u01_r3_network.node[28].core_layer 	data[28] 	9166
scalar tree_4_3_u01_r3_network.node[28].content_store 	p_hit[28] 	0.28233636078923
scalar tree_4_3_u01_r3_network.node[28].content_store 	hits[28] 	3606
scalar tree_4_3_u01_r3_network.node[28].content_store 	misses[28] 	9166
scalar tree_4_3_u01_r3_network.node[28].content_store 	decision_yes[28] 	90
scalar tree_4_3_u01_r3_network.node[28].content_store 	decision_no[28] 	9076
scalar tree_4_3_u01_r3_network.node[28].content_store 	decision_ratio[28] 	0.0098188959197033
scalar tree_4_3_u01_r3_network.node[29].core_layer 	interests[29] 	12747
scalar tree_4_3_u01_r3_network.node[29].core_layer 	data[29] 	9251
scalar tree_4_3_u01_r3_network.node[29].content_store 	p_hit[29] 	0.27426061033969
scalar tree_4_3_u01_r3_network.node[29].content_store 	hits[29] 	3496
scalar tree_4_3_u01_r3_network.node[29].content_store 	misses[29] 	9251
scalar tree_4_3_u01_r3_network.node[29].content_store 	decision_yes[29] 	94
scalar tree_4_3_u01_r3_network.node[29].content_store 	decision_no[29] 	9157
scalar tree_4_3_u01_r3_network.node[29].content_store 	decision_ratio[29] 	0.010161063668793
scalar tree_4_3_u01_r3_network.node[30].core_layer 	interests[30] 	12961
scalar tree_4_3_u01_r3_network.node[30].core_layer 	data[30] 	9614
scalar tree_4_3_u01_r3_network.node[30].content_store 	p_hit[30] 	0.25823624720315
scalar tree_4_3_u01_r3_network.node[30].content_store 	hits[30] 	3347
scalar tree_4_3_u01_r3_network.node[30].content_store 	misses[30] 	9614
scalar tree_4_3_u01_r3_network.node[30].content_store 	decision_yes[30] 	100
scalar tree_4_3_u01_r3_network.node[30].content_store 	decision_no[30] 	9514
scalar tree_4_3_u01_r3_network.node[30].content_store 	decision_ratio[30] 	0.010401497815685
scalar tree_4_3_u01_r3_network.node[31].core_layer 	interests[31] 	12865
scalar tree_4_3_u01_r3_network.node[31].core_layer 	data[31] 	9317
scalar tree_4_3_u01_r3_network.node[31].content_store 	p_hit[31] 	0.27570928876798
scalar tree_4_3_u01_r3_network.node[31].content_store 	hits[31] 	3547
scalar tree_4_3_u01_r3_network.node[31].content_store 	misses[31] 	9318
scalar tree_4_3_u01_r3_network.node[31].content_store 	decision_yes[31] 	82
scalar tree_4_3_u01_r3_network.node[31].content_store 	decision_no[31] 	9235
scalar tree_4_3_u01_r3_network.node[31].content_store 	decision_ratio[31] 	0.0088011162391328
scalar tree_4_3_u01_r3_network.node[32].core_layer 	interests[32] 	12828
scalar tree_4_3_u01_r3_network.node[32].core_layer 	data[32] 	9192
scalar tree_4_3_u01_r3_network.node[32].content_store 	p_hit[32] 	0.28344246959775
scalar tree_4_3_u01_r3_network.node[32].content_store 	hits[32] 	3636
scalar tree_4_3_u01_r3_network.node[32].content_store 	misses[32] 	9192
scalar tree_4_3_u01_r3_network.node[32].content_store 	decision_yes[32] 	92
scalar tree_4_3_u01_r3_network.node[32].content_store 	decision_no[32] 	9100
scalar tree_4_3_u01_r3_network.node[32].content_store 	decision_ratio[32] 	0.010008703220191
scalar tree_4_3_u01_r3_network.node[33].core_layer 	interests[33] 	12851
scalar tree_4_3_u01_r3_network.node[33].core_layer 	data[33] 	9349
scalar tree_4_3_u01_r3_network.node[33].content_store 	p_hit[33] 	0.27250797603299
scalar tree_4_3_u01_r3_network.node[33].content_store 	hits[33] 	3502
scalar tree_4_3_u01_r3_network.node[33].content_store 	misses[33] 	9349
scalar tree_4_3_u01_r3_network.node[33].content_store 	decision_yes[33] 	96
scalar tree_4_3_u01_r3_network.node[33].content_store 	decision_no[33] 	9253
scalar tree_4_3_u01_r3_network.node[33].content_store 	decision_ratio[33] 	0.010268477912076
scalar tree_4_3_u01_r3_network.node[34].core_layer 	interests[34] 	13433
scalar tree_4_3_u01_r3_network.node[34].core_layer 	data[34] 	9272
scalar tree_4_3_u01_r3_network.node[34].content_store 	p_hit[34] 	0.30975954738331
scalar tree_4_3_u01_r3_network.node[34].content_store 	hits[34] 	4161
scalar tree_4_3_u01_r3_network.node[34].content_store 	misses[34] 	9272
scalar tree_4_3_u01_r3_network.node[34].content_store 	decision_yes[34] 	96
scalar tree_4_3_u01_r3_network.node[34].content_store 	decision_no[34] 	9176
scalar tree_4_3_u01_r3_network.node[34].content_store 	decision_ratio[34] 	0.010353753235548
scalar tree_4_3_u01_r3_network.node[35].core_layer 	interests[35] 	13513
scalar tree_4_3_u01_r3_network.node[35].core_layer 	data[35] 	9334
scalar tree_4_3_u01_r3_network.node[35].content_store 	p_hit[35] 	0.30925775179457
scalar tree_4_3_u01_r3_network.node[35].content_store 	hits[35] 	4179
scalar tree_4_3_u01_r3_network.node[35].content_store 	misses[35] 	9334
scalar tree_4_3_u01_r3_network.node[35].content_store 	decision_yes[35] 	106
scalar tree_4_3_u01_r3_network.node[35].content_store 	decision_no[35] 	9228
scalar tree_4_3_u01_r3_network.node[35].content_store 	decision_ratio[35] 	0.011356331690594
scalar tree_4_3_u01_r3_network.node[36].core_layer 	interests[36] 	13392
scalar tree_4_3_u01_r3_network.node[36].core_layer 	data[36] 	9311
scalar tree_4_3_u01_r3_network.node[36].content_store 	p_hit[36] 	0.30473416965352
scalar tree_4_3_u01_r3_network.node[36].content_store 	hits[36] 	4081
scalar tree_4_3_u01_r3_network.node[36].content_store 	misses[36] 	9311
scalar tree_4_3_u01_r3_network.node[36].content_store 	decision_yes[36] 	74
scalar tree_4_3_u01_r3_network.node[36].content_store 	decision_no[36] 	9237
scalar tree_4_3_u01_r3_network.node[36].content_store 	decision_ratio[36] 	0.0079475888733756
scalar tree_4_3_u01_r3_network.node[37].core_layer 	interests[37] 	12767
scalar tree_4_3_u01_r3_network.node[37].core_layer 	data[37] 	9233
scalar tree_4_3_u01_r3_network.node[37].content_store 	p_hit[37] 	0.27680739406282
scalar tree_4_3_u01_r3_network.node[37].content_store 	hits[37] 	3534
scalar tree_4_3_u01_r3_network.node[37].content_store 	misses[37] 	9233
scalar tree_4_3_u01_r3_network.node[37].content_store 	decision_yes[37] 	88
scalar tree_4_3_u01_r3_network.node[37].content_store 	decision_no[37] 	9145
scalar tree_4_3_u01_r3_network.node[37].content_store 	decision_ratio[37] 	0.0095310300010831
scalar tree_4_3_u01_r3_network.node[38].core_layer 	interests[38] 	12721
scalar tree_4_3_u01_r3_network.node[38].core_layer 	data[38] 	9252
scalar tree_4_3_u01_r3_network.node[38].content_store 	p_hit[38] 	0.27269868721012
scalar tree_4_3_u01_r3_network.node[38].content_store 	hits[38] 	3469
scalar tree_4_3_u01_r3_network.node[38].content_store 	misses[38] 	9252
scalar tree_4_3_u01_r3_network.node[38].content_store 	decision_yes[38] 	117
scalar tree_4_3_u01_r3_network.node[38].content_store 	decision_no[38] 	9135
scalar tree_4_3_u01_r3_network.node[38].content_store 	decision_ratio[38] 	0.012645914396887
scalar tree_4_3_u01_r3_network.node[39].core_layer 	interests[39] 	12766
scalar tree_4_3_u01_r3_network.node[39].core_layer 	data[39] 	9029
scalar tree_4_3_u01_r3_network.node[39].content_store 	p_hit[39] 	0.2927306908977
scalar tree_4_3_u01_r3_network.node[39].content_store 	hits[39] 	3737
scalar tree_4_3_u01_r3_network.node[39].content_store 	misses[39] 	9029
scalar tree_4_3_u01_r3_network.node[39].content_store 	decision_yes[39] 	84
scalar tree_4_3_u01_r3_network.node[39].content_store 	decision_no[39] 	8945
scalar tree_4_3_u01_r3_network.node[39].content_store 	decision_ratio[39] 	0.0093033558533614
scalar tree_4_3_u01_r3_network.client[13] 	hdistance[13] 	2.7892496452717
scalar tree_4_3_u01_r3_network.client[13] 	downloads[13] 	11981
scalar tree_4_3_u01_r3_network.client[13] 	avg_time[13] 	0.004370416849
scalar tree_4_3_u01_r3_network.client[14] 	hdistance[14] 	2.8042143686743
scalar tree_4_3_u01_r3_network.client[14] 	downloads[14] 	12054
scalar tree_4_3_u01_r3_network.client[14] 	avg_time[14] 	0.004392156139
scalar tree_4_3_u01_r3_network.client[15] 	hdistance[15] 	2.7800148527106
scalar tree_4_3_u01_r3_network.client[15] 	downloads[15] 	12119
scalar tree_4_3_u01_r3_network.client[15] 	avg_time[15] 	0.004371479786
scalar tree_4_3_u01_r3_network.client[16] 	hdistance[16] 	2.7621427976339
scalar tree_4_3_u01_r3_network.client[16] 	downloads[16] 	12003
scalar tree_4_3_u01_r3_network.client[16] 	avg_time[16] 	0.004346243774
scalar tree_4_3_u01_r3_network.client[17] 	hdistance[17] 	2.7761690797138
scalar tree_4_3_u01_r3_network.client[17] 	downloads[17] 	12018
scalar tree_4_3_u01_r3_network.client[17] 	avg_time[17] 	0.004356668945
scalar tree_4_3_u01_r3_network.client[18] 	hdistance[18] 	2.7775016567263
scalar tree_4_3_u01_r3_network.client[18] 	downloads[18] 	12072
scalar tree_4_3_u01_r3_network.client[18] 	avg_time[18] 	0.004354370753
scalar tree_4_3_u01_r3_network.client[19] 	hdistance[19] 	2.8056731583404
scalar tree_4_3_u01_r3_network.client[19] 	downloads[19] 	11810
scalar tree_4_3_u01_r3_network.client[19] 	avg_time[19] 	0.00442336705
scalar tree_4_3_u01_r3_network.client[20] 	hdistance[20] 	2.8045556571618
scalar tree_4_3_u01_r3_network.client[20] 	downloads[20] 	12029
scalar tree_4_3_u01_r3_network.client[20] 	avg_time[20] 	0.004407013342
scalar tree_4_3_u01_r3_network.client[21] 	hdistance[21] 	2.7835256995765
scalar tree_4_3_u01_r3_network.client[21] 	downloads[21] 	12043
scalar tree_4_3_u01_r3_network.client[21] 	avg_time[21] 	0.004353065098
scalar tree_4_3_u01_r3_network.client[22] 	hdistance[22] 	2.7631404958678
scalar tree_4_3_u01_r3_network.client[22] 	downloads[22] 	12100
scalar tree_4_3_u01_r3_network.client[22] 	avg_time[22] 	0.004358159957
scalar tree_4_3_u01_r3_network.client[23] 	hdistance[23] 	2.7426501207629
scalar tree_4_3_u01_r3_network.client[23] 	downloads[23] 	12007
scalar tree_4_3_u01_r3_network.client[23] 	avg_time[23] 	0.004331934011
scalar tree_4_3_u01_r3_network.client[24] 	hdistance[24] 	2.6612008281573
scalar tree_4_3_u01_r3_network.client[24] 	downloads[24] 	12075
scalar tree_4_3_u01_r3_network.client[24] 	avg_time[24] 	0.004170805215
scalar tree_4_3_u01_r3_network.client[25] 	hdistance[25] 	2.6571765498652
scalar tree_4_3_u01_r3_network.client[25] 	downloads[25] 	11872
scalar tree_4_3_u01_r3_network.client[25] 	avg_time[25] 	0.004177220741
scalar tree_4_3_u01_r3_network.client[26] 	hdistance[26] 	2.7682306858905
scalar tree_4_3_u01_r3_network.client[26] 	downloads[26] 	11999
scalar tree_4_3_u01_r3_network.client[26] 	avg_time[26] 	0.004372398571
scalar tree_4_3_u01_r3_network.client[27] 	hdistance[27] 	2.7644462947544
scalar tree_4_3_u01_r3_network.client[27] 	downloads[27] 	12010
scalar tree_4_3_u01_r3_network.client[27] 	avg_time[27] 	0.004366691406
scalar tree_4_3_u01_r3_network.client[28] 	hdistance[28] 	2.7228155748045
scalar tree_4_3_u01_r3_network.client[28] 	downloads[28] 	11891
scalar tree_4_3_u01_r3_network.client[28] 	avg_time[28] 	0.004311997674
scalar tree_4_3_u01_r3_network.client[29] 	hdistance[29] 	2.7992414664981
scalar tree_4_3_u01_r3_network.client[29] 	downloads[29] 	11865
scalar tree_4_3_u01_r3_network.client[29] 	avg_time[29] 	0.004415167705
scalar tree_4_3_u01_r3_network.client[30] 	hdistance[30] 	2.795664091702
scalar tree_4_3_u01_r3_network.client[30] 	downloads[30] 	12039
scalar tree_4_3_u01_r3_network.client[30] 	avg_time[30] 	0.004427286351
scalar tree_4_3_u01_r3_network.client[31] 	hdistance[31] 	2.7667526845917
scalar tree_4_3_u01_r3_network.client[31] 	downloads[31] 	12013
scalar tree_4_3_u01_r3_network.client[31] 	avg_time[31] 	0.004354446387
scalar tree_4_3_u01_r3_network.client[32] 	hdistance[32] 	2.7602631359813
scalar tree_4_3_u01_r3_network.client[32] 	downloads[32] 	12009
scalar tree_4_3_u01_r3_network.client[32] 	avg_time[32] 	0.004330381165
scalar tree_4_3_u01_r3_network.client[33] 	hdistance[33] 	2.7779249813696
scalar tree_4_3_u01_r3_network.client[33] 	downloads[33] 	12077
scalar tree_4_3_u01_r3_network.client[33] 	avg_time[33] 	0.004367306747
scalar tree_4_3_u01_r3_network.client[34] 	hdistance[34] 	2.7606093579978
scalar tree_4_3_u01_r3_network.client[34] 	downloads[34] 	11947
scalar tree_4_3_u01_r3_network.client[34] 	avg_time[34] 	0.004405454428
scalar tree_4_3_u01_r3_network.client[35] 	hdistance[35] 	2.7538870873867
scalar tree_4_3_u01_r3_network.client[35] 	downloads[35] 	12027
scalar tree_4_3_u01_r3_network.client[35] 	avg_time[35] 	0.004405251864
scalar tree_4_3_u01_r3_network.client[36] 	hdistance[36] 	2.7648976180527
scalar tree_4_3_u01_r3_network.client[36] 	downloads[36] 	11965
scalar tree_4_3_u01_r3_network.client[36] 	avg_time[36] 	0.004417398491
scalar tree_4_3_u01_r3_network.client[37] 	hdistance[37] 	2.7766125676238
scalar tree_4_3_u01_r3_network.client[37] 	downloads[37] 	12015
scalar tree_4_3_u01_r3_network.client[37] 	avg_time[37] 	0.004368529209
scalar tree_4_3_u01_r3_network.client[38] 	hdistance[38] 	2.7665749311984
scalar tree_4_3_u01_r3_network.client[38] 	downloads[38] 	11991
scalar tree_4_3_u01_r3_network.client[38] 	avg_time[38] 	0.004360934367
scalar tree_4_3_u01_r3_network.client[39] 	hdistance[39] 	2.7519751218692
scalar tree_4_3_u01_r3_network.client[39] 	downloads[39] 	11898
scalar tree_4_3_u01_r3_network.client[39] 	avg_time[39] 	0.004319042231
