version 2
run General-30-20160819-00:56:57-14109
attr a 0.9
attr cd fix0.01
attr configname General
attr cr lru
attr datetime 20160819-00:56:57
attr experiment General
attr fsize 1
attr inifile hw5115/scenario_A/NRR-FIX0.01.ini
attr iterationvars "$name=tree_4_3, $un=01, $rep=11, $cd=fix0.01, $cr=lru, $fsize=1, $a=0.9, $sl=nrr, $ttl=1000, $variance=0.05"
attr iterationvars2 "$name=tree_4_3, $un=01, $rep=11, $cd=fix0.01, $cr=lru, $fsize=1, $a=0.9, $sl=nrr, $ttl=1000, $variance=0.05, $repetition=0"
attr measurement "$name=tree_4_3, $un=01, $rep=11, $cd=fix0.01, $cr=lru, $fsize=1, $a=0.9, $sl=nrr, $ttl=1000, $variance=0.05"
attr name tree_4_3
attr network networks.${name}_u${un}_r${rep}_network
attr processid 14109
attr rep 11
attr repetition 0
attr replication #0
attr resultdir results
attr runnumber 30
attr seedset 11
attr sl nrr
attr ttl 1000
attr un 01
attr variance 0.05

scalar . 	a 	0.9
scalar . 	fsize 	1
scalar . 	rep 	11
scalar . 	ttl 	1000
scalar . 	un 	01
scalar . 	variance 	0.05
scalar tree_4_3_u01_r11_network.content_distribution 	repo-0 	0
scalar tree_4_3_u01_r11_network.content_distribution 	client-0 	13
scalar tree_4_3_u01_r11_network.content_distribution 	client-1 	14
scalar tree_4_3_u01_r11_network.content_distribution 	client-2 	15
scalar tree_4_3_u01_r11_network.content_distribution 	client-3 	16
scalar tree_4_3_u01_r11_network.content_distribution 	client-4 	17
scalar tree_4_3_u01_r11_network.content_distribution 	client-5 	18
scalar tree_4_3_u01_r11_network.content_distribution 	client-6 	19
scalar tree_4_3_u01_r11_network.content_distribution 	client-7 	20
scalar tree_4_3_u01_r11_network.content_distribution 	client-8 	21
scalar tree_4_3_u01_r11_network.content_distribution 	client-9 	22
scalar tree_4_3_u01_r11_network.content_distribution 	client-10 	23
scalar tree_4_3_u01_r11_network.content_distribution 	client-11 	24
scalar tree_4_3_u01_r11_network.content_distribution 	client-12 	25
scalar tree_4_3_u01_r11_network.content_distribution 	client-13 	26
scalar tree_4_3_u01_r11_network.content_distribution 	client-14 	27
scalar tree_4_3_u01_r11_network.content_distribution 	client-15 	28
scalar tree_4_3_u01_r11_network.content_distribution 	client-16 	29
scalar tree_4_3_u01_r11_network.content_distribution 	client-17 	30
scalar tree_4_3_u01_r11_network.content_distribution 	client-18 	31
scalar tree_4_3_u01_r11_network.content_distribution 	client-19 	32
scalar tree_4_3_u01_r11_network.content_distribution 	client-20 	33
scalar tree_4_3_u01_r11_network.content_distribution 	client-21 	34
scalar tree_4_3_u01_r11_network.content_distribution 	client-22 	35
scalar tree_4_3_u01_r11_network.content_distribution 	client-23 	36
scalar tree_4_3_u01_r11_network.content_distribution 	client-24 	37
scalar tree_4_3_u01_r11_network.content_distribution 	client-25 	38
scalar tree_4_3_u01_r11_network.content_distribution 	client-26 	39
scalar tree_4_3_u01_r11_network.content_distribution 	repo-0_card 	100000
scalar tree_4_3_u01_r11_network.content_distribution 	repo-0_price 	0
scalar tree_4_3_u01_r11_network.statistics 	stabilization_time 	1775.1
scalar tree_4_3_u01_r11_network.statistics 	p_hit 	0.216985325801
scalar tree_4_3_u01_r11_network.statistics 	interests 	25685.775
scalar tree_4_3_u01_r11_network.statistics 	data 	17593.875
scalar tree_4_3_u01_r11_network.statistics 	hdistance 	2.759940529992
scalar tree_4_3_u01_r11_network.statistics 	avg_time 	0.004348488776
scalar tree_4_3_u01_r11_network.statistics 	downloads 	323676
scalar tree_4_3_u01_r11_network.statistics 	total_cost 	0
scalar tree_4_3_u01_r11_network.statistics 	total_replicas 	100000
scalar tree_4_3_u01_r11_network.statistics 	inner_hit 	0.41435571373843
scalar tree_4_3_u01_r11_network.node[0].core_layer 	interests[0] 	191278
scalar tree_4_3_u01_r11_network.node[0].core_layer 	repo_load[0] 	189559
scalar tree_4_3_u01_r11_network.node[0].core_layer 	data[0] 	0
scalar tree_4_3_u01_r11_network.node[0].core_layer 	repo_int[0] 	189559
scalar tree_4_3_u01_r11_network.node[0].content_store 	p_hit[0] 	0.0089869195621033
scalar tree_4_3_u01_r11_network.node[0].content_store 	hits[0] 	1719
scalar tree_4_3_u01_r11_network.node[0].content_store 	misses[0] 	189559
scalar tree_4_3_u01_r11_network.node[0].content_store 	decision_yes[0] 	1903
scalar tree_4_3_u01_r11_network.node[0].content_store 	decision_no[0] 	187656
scalar tree_4_3_u01_r11_network.node[0].content_store 	decision_ratio[0] 	0.010039090731646
scalar tree_4_3_u01_r11_network.node[1].core_layer 	interests[1] 	95163
scalar tree_4_3_u01_r11_network.node[1].core_layer 	data[1] 	92889
scalar tree_4_3_u01_r11_network.node[1].content_store 	p_hit[1] 	0.023885333585532
scalar tree_4_3_u01_r11_network.node[1].content_store 	hits[1] 	2273
scalar tree_4_3_u01_r11_network.node[1].content_store 	misses[1] 	92890
scalar tree_4_3_u01_r11_network.node[1].content_store 	decision_yes[1] 	969
scalar tree_4_3_u01_r11_network.node[1].content_store 	decision_no[1] 	91920
scalar tree_4_3_u01_r11_network.node[1].content_store 	decision_ratio[1] 	0.010431805703582
scalar tree_4_3_u01_r11_network.node[2].core_layer 	interests[2] 	71921
scalar tree_4_3_u01_r11_network.node[2].core_layer 	data[2] 	70200
scalar tree_4_3_u01_r11_network.node[2].content_store 	p_hit[2] 	0.023915129099985
scalar tree_4_3_u01_r11_network.node[2].content_store 	hits[2] 	1720
scalar tree_4_3_u01_r11_network.node[2].content_store 	misses[2] 	70201
scalar tree_4_3_u01_r11_network.node[2].content_store 	decision_yes[2] 	660
scalar tree_4_3_u01_r11_network.node[2].content_store 	decision_no[2] 	69540
scalar tree_4_3_u01_r11_network.node[2].content_store 	decision_ratio[2] 	0.0094017094017094
scalar tree_4_3_u01_r11_network.node[3].core_layer 	interests[3] 	50625
scalar tree_4_3_u01_r11_network.node[3].core_layer 	data[3] 	48376
scalar tree_4_3_u01_r11_network.node[3].content_store 	p_hit[3] 	0.044424691358025
scalar tree_4_3_u01_r11_network.node[3].content_store 	hits[3] 	2249
scalar tree_4_3_u01_r11_network.node[3].content_store 	misses[3] 	48376
scalar tree_4_3_u01_r11_network.node[3].content_store 	decision_yes[3] 	473
scalar tree_4_3_u01_r11_network.node[3].content_store 	decision_no[3] 	47903
scalar tree_4_3_u01_r11_network.node[3].content_store 	decision_ratio[3] 	0.0097775756573508
scalar tree_4_3_u01_r11_network.node[4].core_layer 	interests[4] 	29482
scalar tree_4_3_u01_r11_network.node[4].core_layer 	data[4] 	26440
scalar tree_4_3_u01_r11_network.node[4].content_store 	p_hit[4] 	0.10318160233363
scalar tree_4_3_u01_r11_network.node[4].content_store 	hits[4] 	3042
scalar tree_4_3_u01_r11_network.node[4].content_store 	misses[4] 	26440
scalar tree_4_3_u01_r11_network.node[4].content_store 	decision_yes[4] 	272
scalar tree_4_3_u01_r11_network.node[4].content_store 	decision_no[4] 	26168
scalar tree_4_3_u01_r11_network.node[4].content_store 	decision_ratio[4] 	0.010287443267776
scalar tree_4_3_u01_r11_network.node[5].core_layer 	interests[5] 	30909
scalar tree_4_3_u01_r11_network.node[5].core_layer 	data[5] 	27378
scalar tree_4_3_u01_r11_network.node[5].content_store 	p_hit[5] 	0.11420621825358
scalar tree_4_3_u01_r11_network.node[5].content_store 	hits[5] 	3530
scalar tree_4_3_u01_r11_network.node[5].content_store 	misses[5] 	27379
scalar tree_4_3_u01_r11_network.node[5].content_store 	decision_yes[5] 	303
scalar tree_4_3_u01_r11_network.node[5].content_store 	decision_no[5] 	27075
scalar tree_4_3_u01_r11_network.node[5].content_store 	decision_ratio[5] 	0.01106728029805
scalar tree_4_3_u01_r11_network.node[6].core_layer 	interests[6] 	29341
scalar tree_4_3_u01_r11_network.node[6].core_layer 	data[6] 	26872
scalar tree_4_3_u01_r11_network.node[6].content_store 	p_hit[6] 	0.084148461197642
scalar tree_4_3_u01_r11_network.node[6].content_store 	hits[6] 	2469
scalar tree_4_3_u01_r11_network.node[6].content_store 	misses[6] 	26872
scalar tree_4_3_u01_r11_network.node[6].content_store 	decision_yes[6] 	242
scalar tree_4_3_u01_r11_network.node[6].content_store 	decision_no[6] 	26630
scalar tree_4_3_u01_r11_network.node[6].content_store 	decision_ratio[6] 	0.0090056564453706
scalar tree_4_3_u01_r11_network.node[7].core_layer 	interests[7] 	28815
scalar tree_4_3_u01_r11_network.node[7].core_layer 	data[7] 	26371
scalar tree_4_3_u01_r11_network.node[7].content_store 	p_hit[7] 	0.084747527329516
scalar tree_4_3_u01_r11_network.node[7].content_store 	hits[7] 	2442
scalar tree_4_3_u01_r11_network.node[7].content_store 	misses[7] 	26373
scalar tree_4_3_u01_r11_network.node[7].content_store 	decision_yes[7] 	268
scalar tree_4_3_u01_r11_network.node[7].content_store 	decision_no[7] 	26103
scalar tree_4_3_u01_r11_network.node[7].content_store 	decision_ratio[7] 	0.010162678700087
scalar tree_4_3_u01_r11_network.node[8].core_layer 	interests[8] 	30051
scalar tree_4_3_u01_r11_network.node[8].core_layer 	data[8] 	27042
scalar tree_4_3_u01_r11_network.node[8].content_store 	p_hit[8] 	0.10012977937506
scalar tree_4_3_u01_r11_network.node[8].content_store 	hits[8] 	3009
scalar tree_4_3_u01_r11_network.node[8].content_store 	misses[8] 	27042
scalar tree_4_3_u01_r11_network.node[8].content_store 	decision_yes[8] 	261
scalar tree_4_3_u01_r11_network.node[8].content_store 	decision_no[8] 	26781
scalar tree_4_3_u01_r11_network.node[8].content_store 	decision_ratio[8] 	0.0096516529842467
scalar tree_4_3_u01_r11_network.node[9].core_layer 	interests[9] 	29645
scalar tree_4_3_u01_r11_network.node[9].core_layer 	data[9] 	26810
scalar tree_4_3_u01_r11_network.node[9].content_store 	p_hit[9] 	0.095597908584922
scalar tree_4_3_u01_r11_network.node[9].content_store 	hits[9] 	2834
scalar tree_4_3_u01_r11_network.node[9].content_store 	misses[9] 	26811
scalar tree_4_3_u01_r11_network.node[9].content_store 	decision_yes[9] 	263
scalar tree_4_3_u01_r11_network.node[9].content_store 	decision_no[9] 	26547
scalar tree_4_3_u01_r11_network.node[9].content_store 	decision_ratio[9] 	0.0098097724729579
scalar tree_4_3_u01_r11_network.node[10].core_layer 	interests[10] 	32952
scalar tree_4_3_u01_r11_network.node[10].core_layer 	data[10] 	28860
scalar tree_4_3_u01_r11_network.node[10].content_store 	p_hit[10] 	0.12415027919398
scalar tree_4_3_u01_r11_network.node[10].content_store 	hits[10] 	4091
scalar tree_4_3_u01_r11_network.node[10].content_store 	misses[10] 	28861
scalar tree_4_3_u01_r11_network.node[10].content_store 	decision_yes[10] 	271
scalar tree_4_3_u01_r11_network.node[10].content_store 	decision_no[10] 	28589
scalar tree_4_3_u01_r11_network.node[10].content_store 	decision_ratio[10] 	0.0093901593901594
scalar tree_4_3_u01_r11_network.node[11].core_layer 	interests[11] 	29252
scalar tree_4_3_u01_r11_network.node[11].core_layer 	data[11] 	26546
scalar tree_4_3_u01_r11_network.node[11].content_store 	p_hit[11] 	0.092540680979078
scalar tree_4_3_u01_r11_network.node[11].content_store 	hits[11] 	2707
scalar tree_4_3_u01_r11_network.node[11].content_store 	misses[11] 	26545
scalar tree_4_3_u01_r11_network.node[11].content_store 	decision_yes[11] 	263
scalar tree_4_3_u01_r11_network.node[11].content_store 	decision_no[11] 	26283
scalar tree_4_3_u01_r11_network.node[11].content_store 	decision_ratio[11] 	0.0099073306712876
scalar tree_4_3_u01_r11_network.node[12].core_layer 	interests[12] 	29143
scalar tree_4_3_u01_r11_network.node[12].core_layer 	data[12] 	26567
scalar tree_4_3_u01_r11_network.node[12].content_store 	p_hit[12] 	0.088357410012696
scalar tree_4_3_u01_r11_network.node[12].content_store 	hits[12] 	2575
scalar tree_4_3_u01_r11_network.node[12].content_store 	misses[12] 	26568
scalar tree_4_3_u01_r11_network.node[12].content_store 	decision_yes[12] 	254
scalar tree_4_3_u01_r11_network.node[12].content_store 	decision_no[12] 	26313
scalar tree_4_3_u01_r11_network.node[12].content_store 	decision_ratio[12] 	0.0095607332404863
scalar tree_4_3_u01_r11_network.node[13].core_layer 	interests[13] 	12752
scalar tree_4_3_u01_r11_network.node[13].core_layer 	data[13] 	9423
scalar tree_4_3_u01_r11_network.node[13].content_store 	p_hit[13] 	0.26105708908407
scalar tree_4_3_u01_r11_network.node[13].content_store 	hits[13] 	3329
scalar tree_4_3_u01_r11_network.node[13].content_store 	misses[13] 	9423
scalar tree_4_3_u01_r11_network.node[13].content_store 	decision_yes[13] 	87
scalar tree_4_3_u01_r11_network.node[13].content_store 	decision_no[13] 	9336
scalar tree_4_3_u01_r11_network.node[13].content_store 	decision_ratio[13] 	0.0092327284304362
scalar tree_4_3_u01_r11_network.node[14].core_layer 	interests[14] 	13530
scalar tree_4_3_u01_r11_network.node[14].core_layer 	data[14] 	9132
scalar tree_4_3_u01_r11_network.node[14].content_store 	p_hit[14] 	0.32505543237251
scalar tree_4_3_u01_r11_network.node[14].content_store 	hits[14] 	4398
scalar tree_4_3_u01_r11_network.node[14].content_store 	misses[14] 	9132
scalar tree_4_3_u01_r11_network.node[14].content_store 	decision_yes[14] 	88
scalar tree_4_3_u01_r11_network.node[14].content_store 	decision_no[14] 	9044
scalar tree_4_3_u01_r11_network.node[14].content_store 	decision_ratio[14] 	0.0096364432763907
scalar tree_4_3_u01_r11_network.node[15].core_layer 	interests[15] 	12914
scalar tree_4_3_u01_r11_network.node[15].core_layer 	data[15] 	9340
scalar tree_4_3_u01_r11_network.node[15].content_store 	p_hit[15] 	0.27675391048475
scalar tree_4_3_u01_r11_network.node[15].content_store 	hits[15] 	3574
scalar tree_4_3_u01_r11_network.node[15].content_store 	misses[15] 	9340
scalar tree_4_3_u01_r11_network.node[15].content_store 	decision_yes[15] 	72
scalar tree_4_3_u01_r11_network.node[15].content_store 	decision_no[15] 	9268
scalar tree_4_3_u01_r11_network.node[15].content_store 	decision_ratio[15] 	0.0077087794432548
scalar tree_4_3_u01_r11_network.node[16].core_layer 	interests[16] 	12747
scalar tree_4_3_u01_r11_network.node[16].core_layer 	data[16] 	9099
scalar tree_4_3_u01_r11_network.node[16].content_store 	p_hit[16] 	0.28626343453362
scalar tree_4_3_u01_r11_network.node[16].content_store 	hits[16] 	3649
scalar tree_4_3_u01_r11_network.node[16].content_store 	misses[16] 	9098
scalar tree_4_3_u01_r11_network.node[16].content_store 	decision_yes[16] 	91
scalar tree_4_3_u01_r11_network.node[16].content_store 	decision_no[16] 	9008
scalar tree_4_3_u01_r11_network.node[16].content_store 	decision_ratio[16] 	0.010001099021871
scalar tree_4_3_u01_r11_network.node[17].core_layer 	interests[17] 	13073
scalar tree_4_3_u01_r11_network.node[17].core_layer 	data[17] 	9431
scalar tree_4_3_u01_r11_network.node[17].content_store 	p_hit[17] 	0.2785894591907
scalar tree_4_3_u01_r11_network.node[17].content_store 	hits[17] 	3642
scalar tree_4_3_u01_r11_network.node[17].content_store 	misses[17] 	9431
scalar tree_4_3_u01_r11_network.node[17].content_store 	decision_yes[17] 	99
scalar tree_4_3_u01_r11_network.node[17].content_store 	decision_no[17] 	9332
scalar tree_4_3_u01_r11_network.node[17].content_store 	decision_ratio[17] 	0.010497296150991
scalar tree_4_3_u01_r11_network.node[18].core_layer 	interests[18] 	12924
scalar tree_4_3_u01_r11_network.node[18].core_layer 	data[18] 	9289
scalar tree_4_3_u01_r11_network.node[18].content_store 	p_hit[18] 	0.2812596719282
scalar tree_4_3_u01_r11_network.node[18].content_store 	hits[18] 	3635
scalar tree_4_3_u01_r11_network.node[18].content_store 	misses[18] 	9289
scalar tree_4_3_u01_r11_network.node[18].content_store 	decision_yes[18] 	84
scalar tree_4_3_u01_r11_network.node[18].content_store 	decision_no[18] 	9205
scalar tree_4_3_u01_r11_network.node[18].content_store 	decision_ratio[18] 	0.0090429540316503
scalar tree_4_3_u01_r11_network.node[19].core_layer 	interests[19] 	12772
scalar tree_4_3_u01_r11_network.node[19].core_layer 	data[19] 	9142
scalar tree_4_3_u01_r11_network.node[19].content_store 	p_hit[19] 	0.28413717507047
scalar tree_4_3_u01_r11_network.node[19].content_store 	hits[19] 	3629
scalar tree_4_3_u01_r11_network.node[19].content_store 	misses[19] 	9143
scalar tree_4_3_u01_r11_network.node[19].content_store 	decision_yes[19] 	81
scalar tree_4_3_u01_r11_network.node[19].content_store 	decision_no[19] 	9061
scalar tree_4_3_u01_r11_network.node[19].content_store 	decision_ratio[19] 	0.0088602056442792
scalar tree_4_3_u01_r11_network.node[20].core_layer 	interests[20] 	12768
scalar tree_4_3_u01_r11_network.node[20].core_layer 	data[20] 	9225
scalar tree_4_3_u01_r11_network.node[20].content_store 	p_hit[20] 	0.27749060150376
scalar tree_4_3_u01_r11_network.node[20].content_store 	hits[20] 	3543
scalar tree_4_3_u01_r11_network.node[20].content_store 	misses[20] 	9225
scalar tree_4_3_u01_r11_network.node[20].content_store 	decision_yes[20] 	107
scalar tree_4_3_u01_r11_network.node[20].content_store 	decision_no[20] 	9118
scalar tree_4_3_u01_r11_network.node[20].content_store 	decision_ratio[20] 	0.01159891598916
scalar tree_4_3_u01_r11_network.node[21].core_layer 	interests[21] 	12708
scalar tree_4_3_u01_r11_network.node[21].core_layer 	data[21] 	8972
scalar tree_4_3_u01_r11_network.node[21].content_store 	p_hit[21] 	0.29398803903053
scalar tree_4_3_u01_r11_network.node[21].content_store 	hits[21] 	3736
scalar tree_4_3_u01_r11_network.node[21].content_store 	misses[21] 	8972
scalar tree_4_3_u01_r11_network.node[21].content_store 	decision_yes[21] 	65
scalar tree_4_3_u01_r11_network.node[21].content_store 	decision_no[21] 	8907
scalar tree_4_3_u01_r11_network.node[21].content_store 	decision_ratio[21] 	0.0072447614801605
scalar tree_4_3_u01_r11_network.node[22].core_layer 	interests[22] 	12920
scalar tree_4_3_u01_r11_network.node[22].core_layer 	data[22] 	9412
scalar tree_4_3_u01_r11_network.node[22].content_store 	p_hit[22] 	0.27151702786378
scalar tree_4_3_u01_r11_network.node[22].content_store 	hits[22] 	3508
scalar tree_4_3_u01_r11_network.node[22].content_store 	misses[22] 	9412
scalar tree_4_3_u01_r11_network.node[22].content_store 	decision_yes[22] 	95
scalar tree_4_3_u01_r11_network.node[22].content_store 	decision_no[22] 	9317
scalar tree_4_3_u01_r11_network.node[22].content_store 	decision_ratio[22] 	0.010093497662558
scalar tree_4_3_u01_r11_network.node[23].core_layer 	interests[23] 	13414
scalar tree_4_3_u01_r11_network.node[23].core_layer 	data[23] 	9230
scalar tree_4_3_u01_r11_network.node[23].content_store 	p_hit[23] 	0.3119129267929
scalar tree_4_3_u01_r11_network.node[23].content_store 	hits[23] 	4184
scalar tree_4_3_u01_r11_network.node[23].content_store 	misses[23] 	9230
scalar tree_4_3_u01_r11_network.node[23].content_store 	decision_yes[23] 	113
scalar tree_4_3_u01_r11_network.node[23].content_store 	decision_no[23] 	9117
scalar tree_4_3_u01_r11_network.node[23].content_store 	decision_ratio[23] 	0.012242686890574
scalar tree_4_3_u01_r11_network.node[24].core_layer 	interests[24] 	13101
scalar tree_4_3_u01_r11_network.node[24].core_layer 	data[24] 	9445
scalar tree_4_3_u01_r11_network.node[24].content_store 	p_hit[24] 	0.27906266697199
scalar tree_4_3_u01_r11_network.node[24].content_store 	hits[24] 	3656
scalar tree_4_3_u01_r11_network.node[24].content_store 	misses[24] 	9445
scalar tree_4_3_u01_r11_network.node[24].content_store 	decision_yes[24] 	114
scalar tree_4_3_u01_r11_network.node[24].content_store 	decision_no[24] 	9331
scalar tree_4_3_u01_r11_network.node[24].content_store 	decision_ratio[24] 	0.012069878242456
scalar tree_4_3_u01_r11_network.node[25].core_layer 	interests[25] 	12711
scalar tree_4_3_u01_r11_network.node[25].core_layer 	data[25] 	9091
scalar tree_4_3_u01_r11_network.node[25].content_store 	p_hit[25] 	0.28479269923688
scalar tree_4_3_u01_r11_network.node[25].content_store 	hits[25] 	3620
scalar tree_4_3_u01_r11_network.node[25].content_store 	misses[25] 	9091
scalar tree_4_3_u01_r11_network.node[25].content_store 	decision_yes[25] 	80
scalar tree_4_3_u01_r11_network.node[25].content_store 	decision_no[25] 	9011
scalar tree_4_3_u01_r11_network.node[25].content_store 	decision_ratio[25] 	0.00879991200088
scalar tree_4_3_u01_r11_network.node[26].core_layer 	interests[26] 	12753
scalar tree_4_3_u01_r11_network.node[26].core_layer 	data[26] 	8968
scalar tree_4_3_u01_r11_network.node[26].content_store 	p_hit[26] 	0.29679291147181
scalar tree_4_3_u01_r11_network.node[26].content_store 	hits[26] 	3785
scalar tree_4_3_u01_r11_network.node[26].content_store 	misses[26] 	8968
scalar tree_4_3_u01_r11_network.node[26].content_store 	decision_yes[26] 	91
scalar tree_4_3_u01_r11_network.node[26].content_store 	decision_no[26] 	8877
scalar tree_4_3_u01_r11_network.node[26].content_store 	decision_ratio[26] 	0.010147190008921
scalar tree_4_3_u01_r11_network.node[27].core_layer 	interests[27] 	13010
scalar tree_4_3_u01_r11_network.node[27].core_layer 	data[27] 	9191
scalar tree_4_3_u01_r11_network.node[27].content_store 	p_hit[27] 	0.29354342813221
scalar tree_4_3_u01_r11_network.node[27].content_store 	hits[27] 	3819
scalar tree_4_3_u01_r11_network.node[27].content_store 	misses[27] 	9191
scalar tree_4_3_u01_r11_network.node[27].content_store 	decision_yes[27] 	106
scalar tree_4_3_u01_r11_network.node[27].content_store 	decision_no[27] 	9085
scalar tree_4_3_u01_r11_network.node[27].content_store 	decision_ratio[27] 	0.011533021434012
scalar tree_4_3_u01_r11_network.node[28].core_layer 	interests[28] 	12862
scalar tree_4_3_u01_r11_network.node[28].core_layer 	data[28] 	9455
scalar tree_4_3_u01_r11_network.node[28].content_store 	p_hit[28] 	0.26481107137304
scalar tree_4_3_u01_r11_network.node[28].content_store 	hits[28] 	3406
scalar tree_4_3_u01_r11_network.node[28].content_store 	misses[28] 	9456
scalar tree_4_3_u01_r11_network.node[28].content_store 	decision_yes[28] 	98
scalar tree_4_3_u01_r11_network.node[28].content_store 	decision_no[28] 	9357
scalar tree_4_3_u01_r11_network.node[28].content_store 	decision_ratio[28] 	0.010364886303543
scalar tree_4_3_u01_r11_network.node[29].core_layer 	interests[29] 	12903
scalar tree_4_3_u01_r11_network.node[29].core_layer 	data[29] 	9374
scalar tree_4_3_u01_r11_network.node[29].content_store 	p_hit[29] 	0.27342478493374
scalar tree_4_3_u01_r11_network.node[29].content_store 	hits[29] 	3528
scalar tree_4_3_u01_r11_network.node[29].content_store 	misses[29] 	9375
scalar tree_4_3_u01_r11_network.node[29].content_store 	decision_yes[29] 	100
scalar tree_4_3_u01_r11_network.node[29].content_store 	decision_no[29] 	9274
scalar tree_4_3_u01_r11_network.node[29].content_store 	decision_ratio[29] 	0.01066780456582
scalar tree_4_3_u01_r11_network.node[30].core_layer 	interests[30] 	12642
scalar tree_4_3_u01_r11_network.node[30].core_layer 	data[30] 	9032
scalar tree_4_3_u01_r11_network.node[30].content_store 	p_hit[30] 	0.28547698149027
scalar tree_4_3_u01_r11_network.node[30].content_store 	hits[30] 	3609
scalar tree_4_3_u01_r11_network.node[30].content_store 	misses[30] 	9033
scalar tree_4_3_u01_r11_network.node[30].content_store 	decision_yes[30] 	81
scalar tree_4_3_u01_r11_network.node[30].content_store 	decision_no[30] 	8951
scalar tree_4_3_u01_r11_network.node[30].content_store 	decision_ratio[30] 	0.0089681133746678
scalar tree_4_3_u01_r11_network.node[31].core_layer 	interests[31] 	13588
scalar tree_4_3_u01_r11_network.node[31].core_layer 	data[31] 	9453
scalar tree_4_3_u01_r11_network.node[31].content_store 	p_hit[31] 	0.30431262879011
scalar tree_4_3_u01_r11_network.node[31].content_store 	hits[31] 	4135
scalar tree_4_3_u01_r11_network.node[31].content_store 	misses[31] 	9453
scalar tree_4_3_u01_r11_network.node[31].content_store 	decision_yes[31] 	109
scalar tree_4_3_u01_r11_network.node[31].content_store 	decision_no[31] 	9344
scalar tree_4_3_u01_r11_network.node[31].content_store 	decision_ratio[31] 	0.011530730984873
scalar tree_4_3_u01_r11_network.node[32].core_layer 	interests[32] 	13109
scalar tree_4_3_u01_r11_network.node[32].core_layer 	data[32] 	9265
scalar tree_4_3_u01_r11_network.node[32].content_store 	p_hit[32] 	0.29315737279731
scalar tree_4_3_u01_r11_network.node[32].content_store 	hits[32] 	3843
scalar tree_4_3_u01_r11_network.node[32].content_store 	misses[32] 	9266
scalar tree_4_3_u01_r11_network.node[32].content_store 	decision_yes[32] 	99
scalar tree_4_3_u01_r11_network.node[32].content_store 	decision_no[32] 	9166
scalar tree_4_3_u01_r11_network.node[32].content_store 	decision_ratio[32] 	0.010685375067458
scalar tree_4_3_u01_r11_network.node[33].core_layer 	interests[33] 	13343
scalar tree_4_3_u01_r11_network.node[33].core_layer 	data[33] 	9232
scalar tree_4_3_u01_r11_network.node[33].content_store 	p_hit[33] 	0.30810162632092
scalar tree_4_3_u01_r11_network.node[33].content_store 	hits[33] 	4111
scalar tree_4_3_u01_r11_network.node[33].content_store 	misses[33] 	9232
scalar tree_4_3_u01_r11_network.node[33].content_store 	decision_yes[33] 	87
scalar tree_4_3_u01_r11_network.node[33].content_store 	decision_no[33] 	9145
scalar tree_4_3_u01_r11_network.node[33].content_store 	decision_ratio[33] 	0.0094237435008666
scalar tree_4_3_u01_r11_network.node[34].core_layer 	interests[34] 	12819
scalar tree_4_3_u01_r11_network.node[34].core_layer 	data[34] 	9079
scalar tree_4_3_u01_r11_network.node[34].content_store 	p_hit[34] 	0.29183243622747
scalar tree_4_3_u01_r11_network.node[34].content_store 	hits[34] 	3741
scalar tree_4_3_u01_r11_network.node[34].content_store 	misses[34] 	9078
scalar tree_4_3_u01_r11_network.node[34].content_store 	decision_yes[34] 	104
scalar tree_4_3_u01_r11_network.node[34].content_store 	decision_no[34] 	8975
scalar tree_4_3_u01_r11_network.node[34].content_store 	decision_ratio[34] 	0.011455006057936
scalar tree_4_3_u01_r11_network.node[35].core_layer 	interests[35] 	12655
scalar tree_4_3_u01_r11_network.node[35].core_layer 	data[35] 	9177
scalar tree_4_3_u01_r11_network.node[35].content_store 	p_hit[35] 	0.27483208218096
scalar tree_4_3_u01_r11_network.node[35].content_store 	hits[35] 	3478
scalar tree_4_3_u01_r11_network.node[35].content_store 	misses[35] 	9177
scalar tree_4_3_u01_r11_network.node[35].content_store 	decision_yes[35] 	116
scalar tree_4_3_u01_r11_network.node[35].content_store 	decision_no[35] 	9061
scalar tree_4_3_u01_r11_network.node[35].content_store 	decision_ratio[35] 	0.012640296393157
scalar tree_4_3_u01_r11_network.node[36].core_layer 	interests[36] 	12755
scalar tree_4_3_u01_r11_network.node[36].core_layer 	data[36] 	9307
scalar tree_4_3_u01_r11_network.node[36].content_store 	p_hit[36] 	0.2703253626029
scalar tree_4_3_u01_r11_network.node[36].content_store 	hits[36] 	3448
scalar tree_4_3_u01_r11_network.node[36].content_store 	misses[36] 	9307
scalar tree_4_3_u01_r11_network.node[36].content_store 	decision_yes[36] 	97
scalar tree_4_3_u01_r11_network.node[36].content_store 	decision_no[36] 	9210
scalar tree_4_3_u01_r11_network.node[36].content_store 	decision_ratio[36] 	0.010422262812936
scalar tree_4_3_u01_r11_network.node[37].core_layer 	interests[37] 	12628
scalar tree_4_3_u01_r11_network.node[37].core_layer 	data[37] 	9201
scalar tree_4_3_u01_r11_network.node[37].content_store 	p_hit[37] 	0.27138105796642
scalar tree_4_3_u01_r11_network.node[37].content_store 	hits[37] 	3427
scalar tree_4_3_u01_r11_network.node[37].content_store 	misses[37] 	9201
scalar tree_4_3_u01_r11_network.node[37].content_store 	decision_yes[37] 	113
scalar tree_4_3_u01_r11_network.node[37].content_store 	decision_no[37] 	9088
scalar tree_4_3_u01_r11_network.node[37].content_store 	decision_ratio[37] 	0.01228127377459
scalar tree_4_3_u01_r11_network.node[38].core_layer 	interests[38] 	12829
scalar tree_4_3_u01_r11_network.node[38].core_layer 	data[38] 	9401
scalar tree_4_3_u01_r11_network.node[38].content_store 	p_hit[38] 	0.26720710889391
scalar tree_4_3_u01_r11_network.node[38].content_store 	hits[38] 	3428
scalar tree_4_3_u01_r11_network.node[38].content_store 	misses[38] 	9401
scalar tree_4_3_u01_r11_network.node[38].content_store 	decision_yes[38] 	115
scalar tree_4_3_u01_r11_network.node[38].content_store 	decision_no[38] 	9286
scalar tree_4_3_u01_r11_network.node[38].content_store 	decision_ratio[38] 	0.012232741197745
scalar tree_4_3_u01_r11_network.node[39].core_layer 	interests[39] 	12624
scalar tree_4_3_u01_r11_network.node[39].core_layer 	data[39] 	9038
scalar tree_4_3_u01_r11_network.node[39].content_store 	p_hit[39] 	0.28406210392902
scalar tree_4_3_u01_r11_network.node[39].content_store 	hits[39] 	3586
scalar tree_4_3_u01_r11_network.node[39].content_store 	misses[39] 	9038
scalar tree_4_3_u01_r11_network.node[39].content_store 	decision_yes[39] 	95
scalar tree_4_3_u01_r11_network.node[39].content_store 	decision_no[39] 	8943
scalar tree_4_3_u01_r11_network.node[39].content_store 	decision_ratio[39] 	0.010511175038725
scalar tree_4_3_u01_r11_network.client[13] 	hdistance[13] 	2.8006858481097
scalar tree_4_3_u01_r11_network.client[13] 	downloads[13] 	11956
scalar tree_4_3_u01_r11_network.client[13] 	avg_time[13] 	0.004435928761
scalar tree_4_3_u01_r11_network.client[14] 	hdistance[14] 	2.6557294718339
scalar tree_4_3_u01_r11_network.client[14] 	downloads[14] 	11947
scalar tree_4_3_u01_r11_network.client[14] 	avg_time[14] 	0.004165729002
scalar tree_4_3_u01_r11_network.client[15] 	hdistance[15] 	2.7653719008264
scalar tree_4_3_u01_r11_network.client[15] 	downloads[15] 	12100
scalar tree_4_3_u01_r11_network.client[15] 	avg_time[15] 	0.004379010871
scalar tree_4_3_u01_r11_network.client[16] 	hdistance[16] 	2.7578920784578
scalar tree_4_3_u01_r11_network.client[16] 	downloads[16] 	11879
scalar tree_4_3_u01_r11_network.client[16] 	avg_time[16] 	0.004344402949
scalar tree_4_3_u01_r11_network.client[17] 	hdistance[17] 	2.7658923700091
scalar tree_4_3_u01_r11_network.client[17] 	downloads[17] 	12097
scalar tree_4_3_u01_r11_network.client[17] 	avg_time[17] 	0.004369510109
scalar tree_4_3_u01_r11_network.client[18] 	hdistance[18] 	2.7413079470199
scalar tree_4_3_u01_r11_network.client[18] 	downloads[18] 	12080
scalar tree_4_3_u01_r11_network.client[18] 	avg_time[18] 	0.004318540012
scalar tree_4_3_u01_r11_network.client[19] 	hdistance[19] 	2.773121869783
scalar tree_4_3_u01_r11_network.client[19] 	downloads[19] 	11980
scalar tree_4_3_u01_r11_network.client[19] 	avg_time[19] 	0.00438330321
scalar tree_4_3_u01_r11_network.client[20] 	hdistance[20] 	2.7957386125325
scalar tree_4_3_u01_r11_network.client[20] 	downloads[20] 	11921
scalar tree_4_3_u01_r11_network.client[20] 	avg_time[20] 	0.004429323429
scalar tree_4_3_u01_r11_network.client[21] 	hdistance[21] 	2.7602062378497
scalar tree_4_3_u01_r11_network.client[21] 	downloads[21] 	11831
scalar tree_4_3_u01_r11_network.client[21] 	avg_time[21] 	0.004362603758
scalar tree_4_3_u01_r11_network.client[22] 	hdistance[22] 	2.790487162607
scalar tree_4_3_u01_r11_network.client[22] 	downloads[22] 	12152
scalar tree_4_3_u01_r11_network.client[22] 	avg_time[22] 	0.004391702034
scalar tree_4_3_u01_r11_network.client[23] 	hdistance[23] 	2.692570951586
scalar tree_4_3_u01_r11_network.client[23] 	downloads[23] 	11980
scalar tree_4_3_u01_r11_network.client[23] 	avg_time[23] 	0.004189961481
scalar tree_4_3_u01_r11_network.client[24] 	hdistance[24] 	2.7702724618878
scalar tree_4_3_u01_r11_network.client[24] 	downloads[24] 	12332
scalar tree_4_3_u01_r11_network.client[24] 	avg_time[24] 	0.004346387252
scalar tree_4_3_u01_r11_network.client[25] 	hdistance[25] 	2.7498093058734
scalar tree_4_3_u01_r11_network.client[25] 	downloads[25] 	11799
scalar tree_4_3_u01_r11_network.client[25] 	avg_time[25] 	0.004314939013
scalar tree_4_3_u01_r11_network.client[26] 	hdistance[26] 	2.7364164771291
scalar tree_4_3_u01_r11_network.client[26] 	downloads[26] 	11871
scalar tree_4_3_u01_r11_network.client[26] 	avg_time[26] 	0.004281523458
scalar tree_4_3_u01_r11_network.client[27] 	hdistance[27] 	2.7453177257525
scalar tree_4_3_u01_r11_network.client[27] 	downloads[27] 	11960
scalar tree_4_3_u01_r11_network.client[27] 	avg_time[27] 	0.004305682616
scalar tree_4_3_u01_r11_network.client[28] 	hdistance[28] 	2.7883278145695
scalar tree_4_3_u01_r11_network.client[28] 	downloads[28] 	12080
scalar tree_4_3_u01_r11_network.client[28] 	avg_time[28] 	0.004383535805
scalar tree_4_3_u01_r11_network.client[29] 	hdistance[29] 	2.7722240581626
scalar tree_4_3_u01_r11_network.client[29] 	downloads[29] 	12104
scalar tree_4_3_u01_r11_network.client[29] 	avg_time[29] 	0.004358528929
scalar tree_4_3_u01_r11_network.client[30] 	hdistance[30] 	2.7763763422533
scalar tree_4_3_u01_r11_network.client[30] 	downloads[30] 	11734
scalar tree_4_3_u01_r11_network.client[30] 	avg_time[30] 	0.00435851956
scalar tree_4_3_u01_r11_network.client[31] 	hdistance[31] 	2.7639290136195
scalar tree_4_3_u01_r11_network.client[31] 	downloads[31] 	12115
scalar tree_4_3_u01_r11_network.client[31] 	avg_time[31] 	0.004411231098
scalar tree_4_3_u01_r11_network.client[32] 	hdistance[32] 	2.797095330575
scalar tree_4_3_u01_r11_network.client[32] 	downloads[32] 	11843
scalar tree_4_3_u01_r11_network.client[32] 	avg_time[32] 	0.004455312172
scalar tree_4_3_u01_r11_network.client[33] 	hdistance[33] 	2.7277174363651
scalar tree_4_3_u01_r11_network.client[33] 	downloads[33] 	12061
scalar tree_4_3_u01_r11_network.client[33] 	avg_time[33] 	0.004358342107
scalar tree_4_3_u01_r11_network.client[34] 	hdistance[34] 	2.7347057842974
scalar tree_4_3_u01_r11_network.client[34] 	downloads[34] 	11998
scalar tree_4_3_u01_r11_network.client[34] 	avg_time[34] 	0.004292045674
scalar tree_4_3_u01_r11_network.client[35] 	hdistance[35] 	2.7690886182276
scalar tree_4_3_u01_r11_network.client[35] 	downloads[35] 	11905
scalar tree_4_3_u01_r11_network.client[35] 	avg_time[35] 	0.004351781978
scalar tree_4_3_u01_r11_network.client[36] 	hdistance[36] 	2.7799515090711
scalar tree_4_3_u01_r11_network.client[36] 	downloads[36] 	11961
scalar tree_4_3_u01_r11_network.client[36] 	avg_time[36] 	0.004373544389
scalar tree_4_3_u01_r11_network.client[37] 	hdistance[37] 	2.7720871751886
scalar tree_4_3_u01_r11_network.client[37] 	downloads[37] 	11930
scalar tree_4_3_u01_r11_network.client[37] 	avg_time[37] 	0.004354230035
scalar tree_4_3_u01_r11_network.client[38] 	hdistance[38] 	2.7770275833676
scalar tree_4_3_u01_r11_network.client[38] 	downloads[38] 	12145
scalar tree_4_3_u01_r11_network.client[38] 	avg_time[38] 	0.004362065281
scalar tree_4_3_u01_r11_network.client[39] 	hdistance[39] 	2.7590432228284
scalar tree_4_3_u01_r11_network.client[39] 	downloads[39] 	11915
scalar tree_4_3_u01_r11_network.client[39] 	avg_time[39] 	0.004331511972
