version 2
run General-31-20160819-00:58:43-14109
attr a 0.9
attr cd fix0.01
attr configname General
attr cr lru
attr datetime 20160819-00:58:43
attr experiment General
attr fsize 1
attr inifile hw5115/scenario_A/NRR-FIX0.01.ini
attr iterationvars "$name=tree_4_3, $un=01, $rep=12, $cd=fix0.01, $cr=lru, $fsize=1, $a=0.9, $sl=nrr, $ttl=1000, $variance=0.05"
attr iterationvars2 "$name=tree_4_3, $un=01, $rep=12, $cd=fix0.01, $cr=lru, $fsize=1, $a=0.9, $sl=nrr, $ttl=1000, $variance=0.05, $repetition=0"
attr measurement "$name=tree_4_3, $un=01, $rep=12, $cd=fix0.01, $cr=lru, $fsize=1, $a=0.9, $sl=nrr, $ttl=1000, $variance=0.05"
attr name tree_4_3
attr network networks.${name}_u${un}_r${rep}_network
attr processid 14109
attr rep 12
attr repetition 0
attr replication #0
attr resultdir results
attr runnumber 31
attr seedset 12
attr sl nrr
attr ttl 1000
attr un 01
attr variance 0.05

scalar . 	a 	0.9
scalar . 	fsize 	1
scalar . 	rep 	12
scalar . 	ttl 	1000
scalar . 	un 	01
scalar . 	variance 	0.05
scalar tree_4_3_u01_r12_network.content_distribution 	repo-0 	0
scalar tree_4_3_u01_r12_network.content_distribution 	client-0 	13
scalar tree_4_3_u01_r12_network.content_distribution 	client-1 	14
scalar tree_4_3_u01_r12_network.content_distribution 	client-2 	15
scalar tree_4_3_u01_r12_network.content_distribution 	client-3 	16
scalar tree_4_3_u01_r12_network.content_distribution 	client-4 	17
scalar tree_4_3_u01_r12_network.content_distribution 	client-5 	18
scalar tree_4_3_u01_r12_network.content_distribution 	client-6 	19
scalar tree_4_3_u01_r12_network.content_distribution 	client-7 	20
scalar tree_4_3_u01_r12_network.content_distribution 	client-8 	21
scalar tree_4_3_u01_r12_network.content_distribution 	client-9 	22
scalar tree_4_3_u01_r12_network.content_distribution 	client-10 	23
scalar tree_4_3_u01_r12_network.content_distribution 	client-11 	24
scalar tree_4_3_u01_r12_network.content_distribution 	client-12 	25
scalar tree_4_3_u01_r12_network.content_distribution 	client-13 	26
scalar tree_4_3_u01_r12_network.content_distribution 	client-14 	27
scalar tree_4_3_u01_r12_network.content_distribution 	client-15 	28
scalar tree_4_3_u01_r12_network.content_distribution 	client-16 	29
scalar tree_4_3_u01_r12_network.content_distribution 	client-17 	30
scalar tree_4_3_u01_r12_network.content_distribution 	client-18 	31
scalar tree_4_3_u01_r12_network.content_distribution 	client-19 	32
scalar tree_4_3_u01_r12_network.content_distribution 	client-20 	33
scalar tree_4_3_u01_r12_network.content_distribution 	client-21 	34
scalar tree_4_3_u01_r12_network.content_distribution 	client-22 	35
scalar tree_4_3_u01_r12_network.content_distribution 	client-23 	36
scalar tree_4_3_u01_r12_network.content_distribution 	client-24 	37
scalar tree_4_3_u01_r12_network.content_distribution 	client-25 	38
scalar tree_4_3_u01_r12_network.content_distribution 	client-26 	39
scalar tree_4_3_u01_r12_network.content_distribution 	repo-0_card 	100000
scalar tree_4_3_u01_r12_network.content_distribution 	repo-0_price 	0
scalar tree_4_3_u01_r12_network.statistics 	stabilization_time 	1869.2
scalar tree_4_3_u01_r12_network.statistics 	p_hit 	0.21845502835682
scalar tree_4_3_u01_r12_network.statistics 	interests 	25771.125
scalar tree_4_3_u01_r12_network.statistics 	data 	17663.8
scalar tree_4_3_u01_r12_network.statistics 	hdistance 	2.7622715162821
scalar tree_4_3_u01_r12_network.statistics 	avg_time 	0.004357531415
scalar tree_4_3_u01_r12_network.statistics 	downloads 	324290
scalar tree_4_3_u01_r12_network.statistics 	total_cost 	0
scalar tree_4_3_u01_r12_network.statistics 	total_replicas 	100000
scalar tree_4_3_u01_r12_network.statistics 	inner_hit 	0.41653766690308
scalar tree_4_3_u01_r12_network.node[0].core_layer 	interests[0] 	191022
scalar tree_4_3_u01_r12_network.node[0].core_layer 	repo_load[0] 	189211
scalar tree_4_3_u01_r12_network.node[0].core_layer 	data[0] 	0
scalar tree_4_3_u01_r12_network.node[0].core_layer 	repo_int[0] 	189211
scalar tree_4_3_u01_r12_network.node[0].content_store 	p_hit[0] 	0.0094805833883008
scalar tree_4_3_u01_r12_network.node[0].content_store 	hits[0] 	1811
scalar tree_4_3_u01_r12_network.node[0].content_store 	misses[0] 	189211
scalar tree_4_3_u01_r12_network.node[0].content_store 	decision_yes[0] 	1954
scalar tree_4_3_u01_r12_network.node[0].content_store 	decision_no[0] 	187257
scalar tree_4_3_u01_r12_network.node[0].content_store 	decision_ratio[0] 	0.010327095147745
scalar tree_4_3_u01_r12_network.node[1].core_layer 	interests[1] 	72360
scalar tree_4_3_u01_r12_network.node[1].core_layer 	data[1] 	70780
scalar tree_4_3_u01_r12_network.node[1].content_store 	p_hit[1] 	0.021821448313986
scalar tree_4_3_u01_r12_network.node[1].content_store 	hits[1] 	1579
scalar tree_4_3_u01_r12_network.node[1].content_store 	misses[1] 	70781
scalar tree_4_3_u01_r12_network.node[1].content_store 	decision_yes[1] 	711
scalar tree_4_3_u01_r12_network.node[1].content_store 	decision_no[1] 	70069
scalar tree_4_3_u01_r12_network.node[1].content_store 	decision_ratio[1] 	0.010045210511444
scalar tree_4_3_u01_r12_network.node[2].core_layer 	interests[2] 	94623
scalar tree_4_3_u01_r12_network.node[2].core_layer 	data[2] 	92456
scalar tree_4_3_u01_r12_network.node[2].content_store 	p_hit[2] 	0.022890840493326
scalar tree_4_3_u01_r12_network.node[2].content_store 	hits[2] 	2166
scalar tree_4_3_u01_r12_network.node[2].content_store 	misses[2] 	92457
scalar tree_4_3_u01_r12_network.node[2].content_store 	decision_yes[2] 	903
scalar tree_4_3_u01_r12_network.node[2].content_store 	decision_no[2] 	91553
scalar tree_4_3_u01_r12_network.node[2].content_store 	decision_ratio[2] 	0.0097668079951545
scalar tree_4_3_u01_r12_network.node[3].core_layer 	interests[3] 	50788
scalar tree_4_3_u01_r12_network.node[3].core_layer 	data[3] 	48545
scalar tree_4_3_u01_r12_network.node[3].content_store 	p_hit[3] 	0.044183665432779
scalar tree_4_3_u01_r12_network.node[3].content_store 	hits[3] 	2244
scalar tree_4_3_u01_r12_network.node[3].content_store 	misses[3] 	48544
scalar tree_4_3_u01_r12_network.node[3].content_store 	decision_yes[3] 	487
scalar tree_4_3_u01_r12_network.node[3].content_store 	decision_no[3] 	48058
scalar tree_4_3_u01_r12_network.node[3].content_store 	decision_ratio[3] 	0.010031929137913
scalar tree_4_3_u01_r12_network.node[4].core_layer 	interests[4] 	28631
scalar tree_4_3_u01_r12_network.node[4].core_layer 	data[4] 	26149
scalar tree_4_3_u01_r12_network.node[4].content_store 	p_hit[4] 	0.086689252907687
scalar tree_4_3_u01_r12_network.node[4].content_store 	hits[4] 	2482
scalar tree_4_3_u01_r12_network.node[4].content_store 	misses[4] 	26149
scalar tree_4_3_u01_r12_network.node[4].content_store 	decision_yes[4] 	252
scalar tree_4_3_u01_r12_network.node[4].content_store 	decision_no[4] 	25897
scalar tree_4_3_u01_r12_network.node[4].content_store 	decision_ratio[4] 	0.0096370798118475
scalar tree_4_3_u01_r12_network.node[5].core_layer 	interests[5] 	29784
scalar tree_4_3_u01_r12_network.node[5].core_layer 	data[5] 	27072
scalar tree_4_3_u01_r12_network.node[5].content_store 	p_hit[5] 	0.09098845017459
scalar tree_4_3_u01_r12_network.node[5].content_store 	hits[5] 	2710
scalar tree_4_3_u01_r12_network.node[5].content_store 	misses[5] 	27074
scalar tree_4_3_u01_r12_network.node[5].content_store 	decision_yes[5] 	239
scalar tree_4_3_u01_r12_network.node[5].content_store 	decision_no[5] 	26833
scalar tree_4_3_u01_r12_network.node[5].content_store 	decision_ratio[5] 	0.0088283096926714
scalar tree_4_3_u01_r12_network.node[6].core_layer 	interests[6] 	30805
scalar tree_4_3_u01_r12_network.node[6].core_layer 	data[6] 	27439
scalar tree_4_3_u01_r12_network.node[6].content_store 	p_hit[6] 	0.10923551371531
scalar tree_4_3_u01_r12_network.node[6].content_store 	hits[6] 	3365
scalar tree_4_3_u01_r12_network.node[6].content_store 	misses[6] 	27440
scalar tree_4_3_u01_r12_network.node[6].content_store 	decision_yes[6] 	272
scalar tree_4_3_u01_r12_network.node[6].content_store 	decision_no[6] 	27167
scalar tree_4_3_u01_r12_network.node[6].content_store 	decision_ratio[6] 	0.0099128977003535
scalar tree_4_3_u01_r12_network.node[7].core_layer 	interests[7] 	38309
scalar tree_4_3_u01_r12_network.node[7].core_layer 	data[7] 	35296
scalar tree_4_3_u01_r12_network.node[7].content_store 	p_hit[7] 	0.078623822078363
scalar tree_4_3_u01_r12_network.node[7].content_store 	hits[7] 	3012
scalar tree_4_3_u01_r12_network.node[7].content_store 	misses[7] 	35297
scalar tree_4_3_u01_r12_network.node[7].content_store 	decision_yes[7] 	327
scalar tree_4_3_u01_r12_network.node[7].content_store 	decision_no[7] 	34969
scalar tree_4_3_u01_r12_network.node[7].content_store 	decision_ratio[7] 	0.009264505893019
scalar tree_4_3_u01_r12_network.node[8].core_layer 	interests[8] 	21551
scalar tree_4_3_u01_r12_network.node[8].core_layer 	data[8] 	18545
scalar tree_4_3_u01_r12_network.node[8].content_store 	p_hit[8] 	0.13948308663171
scalar tree_4_3_u01_r12_network.node[8].content_store 	hits[8] 	3006
scalar tree_4_3_u01_r12_network.node[8].content_store 	misses[8] 	18545
scalar tree_4_3_u01_r12_network.node[8].content_store 	decision_yes[8] 	174
scalar tree_4_3_u01_r12_network.node[8].content_store 	decision_no[8] 	18371
scalar tree_4_3_u01_r12_network.node[8].content_store 	decision_ratio[8] 	0.0093825829064438
scalar tree_4_3_u01_r12_network.node[9].core_layer 	interests[9] 	29686
scalar tree_4_3_u01_r12_network.node[9].core_layer 	data[9] 	26786
scalar tree_4_3_u01_r12_network.node[9].content_store 	p_hit[9] 	0.097689146398976
scalar tree_4_3_u01_r12_network.node[9].content_store 	hits[9] 	2900
scalar tree_4_3_u01_r12_network.node[9].content_store 	misses[9] 	26786
scalar tree_4_3_u01_r12_network.node[9].content_store 	decision_yes[9] 	252
scalar tree_4_3_u01_r12_network.node[9].content_store 	decision_no[9] 	26534
scalar tree_4_3_u01_r12_network.node[9].content_store 	decision_ratio[9] 	0.0094078996490704
scalar tree_4_3_u01_r12_network.node[10].core_layer 	interests[10] 	29151
scalar tree_4_3_u01_r12_network.node[10].core_layer 	data[10] 	26883
scalar tree_4_3_u01_r12_network.node[10].content_store 	p_hit[10] 	0.077767486535625
scalar tree_4_3_u01_r12_network.node[10].content_store 	hits[10] 	2267
scalar tree_4_3_u01_r12_network.node[10].content_store 	misses[10] 	26884
scalar tree_4_3_u01_r12_network.node[10].content_store 	decision_yes[10] 	278
scalar tree_4_3_u01_r12_network.node[10].content_store 	decision_no[10] 	26605
scalar tree_4_3_u01_r12_network.node[10].content_store 	decision_ratio[10] 	0.01034110776327
scalar tree_4_3_u01_r12_network.node[11].core_layer 	interests[11] 	33534
scalar tree_4_3_u01_r12_network.node[11].core_layer 	data[11] 	29440
scalar tree_4_3_u01_r12_network.node[11].content_store 	p_hit[11] 	0.12208504801097
scalar tree_4_3_u01_r12_network.node[11].content_store 	hits[11] 	4094
scalar tree_4_3_u01_r12_network.node[11].content_store 	misses[11] 	29440
scalar tree_4_3_u01_r12_network.node[11].content_store 	decision_yes[11] 	264
scalar tree_4_3_u01_r12_network.node[11].content_store 	decision_no[11] 	29176
scalar tree_4_3_u01_r12_network.node[11].content_store 	decision_ratio[11] 	0.0089673913043478
scalar tree_4_3_u01_r12_network.node[12].core_layer 	interests[12] 	29542
scalar tree_4_3_u01_r12_network.node[12].core_layer 	data[12] 	26928
scalar tree_4_3_u01_r12_network.node[12].content_store 	p_hit[12] 	0.088484191997834
scalar tree_4_3_u01_r12_network.node[12].content_store 	hits[12] 	2614
scalar tree_4_3_u01_r12_network.node[12].content_store 	misses[12] 	26928
scalar tree_4_3_u01_r12_network.node[12].content_store 	decision_yes[12] 	255
scalar tree_4_3_u01_r12_network.node[12].content_store 	decision_no[12] 	26673
scalar tree_4_3_u01_r12_network.node[12].content_store 	decision_ratio[12] 	0.009469696969697
scalar tree_4_3_u01_r12_network.node[13].core_layer 	interests[13] 	12728
scalar tree_4_3_u01_r12_network.node[13].core_layer 	data[13] 	9068
scalar tree_4_3_u01_r12_network.node[13].content_store 	p_hit[13] 	0.28755499685732
scalar tree_4_3_u01_r12_network.node[13].content_store 	hits[13] 	3660
scalar tree_4_3_u01_r12_network.node[13].content_store 	misses[13] 	9068
scalar tree_4_3_u01_r12_network.node[13].content_store 	decision_yes[13] 	92
scalar tree_4_3_u01_r12_network.node[13].content_store 	decision_no[13] 	8976
scalar tree_4_3_u01_r12_network.node[13].content_store 	decision_ratio[13] 	0.010145566828408
scalar tree_4_3_u01_r12_network.node[14].core_layer 	interests[14] 	12812
scalar tree_4_3_u01_r12_network.node[14].core_layer 	data[14] 	9425
scalar tree_4_3_u01_r12_network.node[14].content_store 	p_hit[14] 	0.26436153605994
scalar tree_4_3_u01_r12_network.node[14].content_store 	hits[14] 	3387
scalar tree_4_3_u01_r12_network.node[14].content_store 	misses[14] 	9425
scalar tree_4_3_u01_r12_network.node[14].content_store 	decision_yes[14] 	89
scalar tree_4_3_u01_r12_network.node[14].content_store 	decision_no[14] 	9336
scalar tree_4_3_u01_r12_network.node[14].content_store 	decision_ratio[14] 	0.0094429708222812
scalar tree_4_3_u01_r12_network.node[15].core_layer 	interests[15] 	13183
scalar tree_4_3_u01_r12_network.node[15].core_layer 	data[15] 	9218
scalar tree_4_3_u01_r12_network.node[15].content_store 	p_hit[15] 	0.3007661382083
scalar tree_4_3_u01_r12_network.node[15].content_store 	hits[15] 	3965
scalar tree_4_3_u01_r12_network.node[15].content_store 	misses[15] 	9218
scalar tree_4_3_u01_r12_network.node[15].content_store 	decision_yes[15] 	81
scalar tree_4_3_u01_r12_network.node[15].content_store 	decision_no[15] 	9137
scalar tree_4_3_u01_r12_network.node[15].content_store 	decision_ratio[15] 	0.0087871555651985
scalar tree_4_3_u01_r12_network.node[16].core_layer 	interests[16] 	12909
scalar tree_4_3_u01_r12_network.node[16].core_layer 	data[16] 	9308
scalar tree_4_3_u01_r12_network.node[16].content_store 	p_hit[16] 	0.27895266868077
scalar tree_4_3_u01_r12_network.node[16].content_store 	hits[16] 	3601
scalar tree_4_3_u01_r12_network.node[16].content_store 	misses[16] 	9308
scalar tree_4_3_u01_r12_network.node[16].content_store 	decision_yes[16] 	71
scalar tree_4_3_u01_r12_network.node[16].content_store 	decision_no[16] 	9237
scalar tree_4_3_u01_r12_network.node[16].content_store 	decision_ratio[16] 	0.0076278470133219
scalar tree_4_3_u01_r12_network.node[17].core_layer 	interests[17] 	12891
scalar tree_4_3_u01_r12_network.node[17].core_layer 	data[17] 	9262
scalar tree_4_3_u01_r12_network.node[17].content_store 	p_hit[17] 	0.28143666123652
scalar tree_4_3_u01_r12_network.node[17].content_store 	hits[17] 	3628
scalar tree_4_3_u01_r12_network.node[17].content_store 	misses[17] 	9263
scalar tree_4_3_u01_r12_network.node[17].content_store 	decision_yes[17] 	86
scalar tree_4_3_u01_r12_network.node[17].content_store 	decision_no[17] 	9176
scalar tree_4_3_u01_r12_network.node[17].content_store 	decision_ratio[17] 	0.0092852515655366
scalar tree_4_3_u01_r12_network.node[18].core_layer 	interests[18] 	12940
scalar tree_4_3_u01_r12_network.node[18].core_layer 	data[18] 	9228
scalar tree_4_3_u01_r12_network.node[18].content_store 	p_hit[18] 	0.28686244204019
scalar tree_4_3_u01_r12_network.node[18].content_store 	hits[18] 	3712
scalar tree_4_3_u01_r12_network.node[18].content_store 	misses[18] 	9228
scalar tree_4_3_u01_r12_network.node[18].content_store 	decision_yes[18] 	103
scalar tree_4_3_u01_r12_network.node[18].content_store 	decision_no[18] 	9125
scalar tree_4_3_u01_r12_network.node[18].content_store 	decision_ratio[18] 	0.011161681837885
scalar tree_4_3_u01_r12_network.node[19].core_layer 	interests[19] 	12989
scalar tree_4_3_u01_r12_network.node[19].core_layer 	data[19] 	9426
scalar tree_4_3_u01_r12_network.node[19].content_store 	p_hit[19] 	0.2742320424975
scalar tree_4_3_u01_r12_network.node[19].content_store 	hits[19] 	3562
scalar tree_4_3_u01_r12_network.node[19].content_store 	misses[19] 	9427
scalar tree_4_3_u01_r12_network.node[19].content_store 	decision_yes[19] 	109
scalar tree_4_3_u01_r12_network.node[19].content_store 	decision_no[19] 	9317
scalar tree_4_3_u01_r12_network.node[19].content_store 	decision_ratio[19] 	0.011563759813282
scalar tree_4_3_u01_r12_network.node[20].core_layer 	interests[20] 	12952
scalar tree_4_3_u01_r12_network.node[20].core_layer 	data[20] 	9333
scalar tree_4_3_u01_r12_network.node[20].content_store 	p_hit[20] 	0.27941630636195
scalar tree_4_3_u01_r12_network.node[20].content_store 	hits[20] 	3619
scalar tree_4_3_u01_r12_network.node[20].content_store 	misses[20] 	9333
scalar tree_4_3_u01_r12_network.node[20].content_store 	decision_yes[20] 	100
scalar tree_4_3_u01_r12_network.node[20].content_store 	decision_no[20] 	9233
scalar tree_4_3_u01_r12_network.node[20].content_store 	decision_ratio[20] 	0.010714668381014
scalar tree_4_3_u01_r12_network.node[21].core_layer 	interests[21] 	13057
scalar tree_4_3_u01_r12_network.node[21].core_layer 	data[21] 	9188
scalar tree_4_3_u01_r12_network.node[21].content_store 	p_hit[21] 	0.2963161522555
scalar tree_4_3_u01_r12_network.node[21].content_store 	hits[21] 	3869
scalar tree_4_3_u01_r12_network.node[21].content_store 	misses[21] 	9188
scalar tree_4_3_u01_r12_network.node[21].content_store 	decision_yes[21] 	98
scalar tree_4_3_u01_r12_network.node[21].content_store 	decision_no[21] 	9090
scalar tree_4_3_u01_r12_network.node[21].content_store 	decision_ratio[21] 	0.010666086199391
scalar tree_4_3_u01_r12_network.node[22].core_layer 	interests[22] 	12705
scalar tree_4_3_u01_r12_network.node[22].core_layer 	data[22] 	9174
scalar tree_4_3_u01_r12_network.node[22].content_store 	p_hit[22] 	0.27792207792208
scalar tree_4_3_u01_r12_network.node[22].content_store 	hits[22] 	3531
scalar tree_4_3_u01_r12_network.node[22].content_store 	misses[22] 	9174
scalar tree_4_3_u01_r12_network.node[22].content_store 	decision_yes[22] 	89
scalar tree_4_3_u01_r12_network.node[22].content_store 	decision_no[22] 	9085
scalar tree_4_3_u01_r12_network.node[22].content_store 	decision_ratio[22] 	0.0097013298452147
scalar tree_4_3_u01_r12_network.node[23].core_layer 	interests[23] 	13002
scalar tree_4_3_u01_r12_network.node[23].core_layer 	data[23] 	9184
scalar tree_4_3_u01_r12_network.node[23].content_store 	p_hit[23] 	0.29364713121058
scalar tree_4_3_u01_r12_network.node[23].content_store 	hits[23] 	3818
scalar tree_4_3_u01_r12_network.node[23].content_store 	misses[23] 	9184
scalar tree_4_3_u01_r12_network.node[23].content_store 	decision_yes[23] 	97
scalar tree_4_3_u01_r12_network.node[23].content_store 	decision_no[23] 	9087
scalar tree_4_3_u01_r12_network.node[23].content_store 	decision_ratio[23] 	0.010561846689895
scalar tree_4_3_u01_r12_network.node[24].core_layer 	interests[24] 	13064
scalar tree_4_3_u01_r12_network.node[24].core_layer 	data[24] 	9299
scalar tree_4_3_u01_r12_network.node[24].content_store 	p_hit[24] 	0.28819657072872
scalar tree_4_3_u01_r12_network.node[24].content_store 	hits[24] 	3765
scalar tree_4_3_u01_r12_network.node[24].content_store 	misses[24] 	9299
scalar tree_4_3_u01_r12_network.node[24].content_store 	decision_yes[24] 	98
scalar tree_4_3_u01_r12_network.node[24].content_store 	decision_no[24] 	9201
scalar tree_4_3_u01_r12_network.node[24].content_store 	decision_ratio[24] 	0.01053876760942
scalar tree_4_3_u01_r12_network.node[25].core_layer 	interests[25] 	13693
scalar tree_4_3_u01_r12_network.node[25].core_layer 	data[25] 	9148
scalar tree_4_3_u01_r12_network.node[25].content_store 	p_hit[25] 	0.3319214197035
scalar tree_4_3_u01_r12_network.node[25].content_store 	hits[25] 	4545
scalar tree_4_3_u01_r12_network.node[25].content_store 	misses[25] 	9148
scalar tree_4_3_u01_r12_network.node[25].content_store 	decision_yes[25] 	97
scalar tree_4_3_u01_r12_network.node[25].content_store 	decision_no[25] 	9051
scalar tree_4_3_u01_r12_network.node[25].content_store 	decision_ratio[25] 	0.010603410581548
scalar tree_4_3_u01_r12_network.node[26].core_layer 	interests[26] 	12886
scalar tree_4_3_u01_r12_network.node[26].core_layer 	data[26] 	9401
scalar tree_4_3_u01_r12_network.node[26].content_store 	p_hit[26] 	0.27044854881266
scalar tree_4_3_u01_r12_network.node[26].content_store 	hits[26] 	3485
scalar tree_4_3_u01_r12_network.node[26].content_store 	misses[26] 	9401
scalar tree_4_3_u01_r12_network.node[26].content_store 	decision_yes[26] 	97
scalar tree_4_3_u01_r12_network.node[26].content_store 	decision_no[26] 	9304
scalar tree_4_3_u01_r12_network.node[26].content_store 	decision_ratio[26] 	0.010318051271141
scalar tree_4_3_u01_r12_network.node[27].core_layer 	interests[27] 	12852
scalar tree_4_3_u01_r12_network.node[27].core_layer 	data[27] 	9163
scalar tree_4_3_u01_r12_network.node[27].content_store 	p_hit[27] 	0.28703703703704
scalar tree_4_3_u01_r12_network.node[27].content_store 	hits[27] 	3689
scalar tree_4_3_u01_r12_network.node[27].content_store 	misses[27] 	9163
scalar tree_4_3_u01_r12_network.node[27].content_store 	decision_yes[27] 	91
scalar tree_4_3_u01_r12_network.node[27].content_store 	decision_no[27] 	9072
scalar tree_4_3_u01_r12_network.node[27].content_store 	decision_ratio[27] 	0.0099312452253629
scalar tree_4_3_u01_r12_network.node[28].core_layer 	interests[28] 	12887
scalar tree_4_3_u01_r12_network.node[28].core_layer 	data[28] 	9270
scalar tree_4_3_u01_r12_network.node[28].content_store 	p_hit[28] 	0.28067044308218
scalar tree_4_3_u01_r12_network.node[28].content_store 	hits[28] 	3617
scalar tree_4_3_u01_r12_network.node[28].content_store 	misses[28] 	9270
scalar tree_4_3_u01_r12_network.node[28].content_store 	decision_yes[28] 	98
scalar tree_4_3_u01_r12_network.node[28].content_store 	decision_no[28] 	9172
scalar tree_4_3_u01_r12_network.node[28].content_store 	decision_ratio[28] 	0.010571736785329
scalar tree_4_3_u01_r12_network.node[29].core_layer 	interests[29] 	12708
scalar tree_4_3_u01_r12_network.node[29].core_layer 	data[29] 	9013
scalar tree_4_3_u01_r12_network.node[29].content_store 	p_hit[29] 	0.2907617248977
scalar tree_4_3_u01_r12_network.node[29].content_store 	hits[29] 	3695
scalar tree_4_3_u01_r12_network.node[29].content_store 	misses[29] 	9013
scalar tree_4_3_u01_r12_network.node[29].content_store 	decision_yes[29] 	87
scalar tree_4_3_u01_r12_network.node[29].content_store 	decision_no[29] 	8926
scalar tree_4_3_u01_r12_network.node[29].content_store 	decision_ratio[29] 	0.0096527238433374
scalar tree_4_3_u01_r12_network.node[30].core_layer 	interests[30] 	12940
scalar tree_4_3_u01_r12_network.node[30].core_layer 	data[30] 	9136
scalar tree_4_3_u01_r12_network.node[30].content_store 	p_hit[30] 	0.29397217928903
scalar tree_4_3_u01_r12_network.node[30].content_store 	hits[30] 	3804
scalar tree_4_3_u01_r12_network.node[30].content_store 	misses[30] 	9136
scalar tree_4_3_u01_r12_network.node[30].content_store 	decision_yes[30] 	99
scalar tree_4_3_u01_r12_network.node[30].content_store 	decision_no[30] 	9037
scalar tree_4_3_u01_r12_network.node[30].content_store 	decision_ratio[30] 	0.010836252189142
scalar tree_4_3_u01_r12_network.node[31].core_layer 	interests[31] 	12721
scalar tree_4_3_u01_r12_network.node[31].core_layer 	data[31] 	9185
scalar tree_4_3_u01_r12_network.node[31].content_store 	p_hit[31] 	0.2779655687446
scalar tree_4_3_u01_r12_network.node[31].content_store 	hits[31] 	3536
scalar tree_4_3_u01_r12_network.node[31].content_store 	misses[31] 	9185
scalar tree_4_3_u01_r12_network.node[31].content_store 	decision_yes[31] 	80
scalar tree_4_3_u01_r12_network.node[31].content_store 	decision_no[31] 	9105
scalar tree_4_3_u01_r12_network.node[31].content_store 	decision_ratio[31] 	0.0087098530212303
scalar tree_4_3_u01_r12_network.node[32].core_layer 	interests[32] 	12871
scalar tree_4_3_u01_r12_network.node[32].core_layer 	data[32] 	9359
scalar tree_4_3_u01_r12_network.node[32].content_store 	p_hit[32] 	0.27278377748427
scalar tree_4_3_u01_r12_network.node[32].content_store 	hits[32] 	3511
scalar tree_4_3_u01_r12_network.node[32].content_store 	misses[32] 	9360
scalar tree_4_3_u01_r12_network.node[32].content_store 	decision_yes[32] 	82
scalar tree_4_3_u01_r12_network.node[32].content_store 	decision_no[32] 	9277
scalar tree_4_3_u01_r12_network.node[32].content_store 	decision_ratio[32] 	0.0087616198311785
scalar tree_4_3_u01_r12_network.node[33].core_layer 	interests[33] 	12761
scalar tree_4_3_u01_r12_network.node[33].core_layer 	data[33] 	9115
scalar tree_4_3_u01_r12_network.node[33].content_store 	p_hit[33] 	0.28571428571429
scalar tree_4_3_u01_r12_network.node[33].content_store 	hits[33] 	3646
scalar tree_4_3_u01_r12_network.node[33].content_store 	misses[33] 	9115
scalar tree_4_3_u01_r12_network.node[33].content_store 	decision_yes[33] 	94
scalar tree_4_3_u01_r12_network.node[33].content_store 	decision_no[33] 	9021
scalar tree_4_3_u01_r12_network.node[33].content_store 	decision_ratio[33] 	0.010312671420735
scalar tree_4_3_u01_r12_network.node[34].core_layer 	interests[34] 	13562
scalar tree_4_3_u01_r12_network.node[34].core_layer 	data[34] 	9660
scalar tree_4_3_u01_r12_network.node[34].content_store 	p_hit[34] 	0.28778941159121
scalar tree_4_3_u01_r12_network.node[34].content_store 	hits[34] 	3903
scalar tree_4_3_u01_r12_network.node[34].content_store 	misses[34] 	9659
scalar tree_4_3_u01_r12_network.node[34].content_store 	decision_yes[34] 	90
scalar tree_4_3_u01_r12_network.node[34].content_store 	decision_no[34] 	9570
scalar tree_4_3_u01_r12_network.node[34].content_store 	decision_ratio[34] 	0.0093167701863354
scalar tree_4_3_u01_r12_network.node[35].core_layer 	interests[35] 	13569
scalar tree_4_3_u01_r12_network.node[35].core_layer 	data[35] 	9522
scalar tree_4_3_u01_r12_network.node[35].content_store 	p_hit[35] 	0.29825337165598
scalar tree_4_3_u01_r12_network.node[35].content_store 	hits[35] 	4047
scalar tree_4_3_u01_r12_network.node[35].content_store 	misses[35] 	9522
scalar tree_4_3_u01_r12_network.node[35].content_store 	decision_yes[35] 	110
scalar tree_4_3_u01_r12_network.node[35].content_store 	decision_no[35] 	9412
scalar tree_4_3_u01_r12_network.node[35].content_store 	decision_ratio[35] 	0.011552194917034
scalar tree_4_3_u01_r12_network.node[36].core_layer 	interests[36] 	13583
scalar tree_4_3_u01_r12_network.node[36].core_layer 	data[36] 	9366
scalar tree_4_3_u01_r12_network.node[36].content_store 	p_hit[36] 	0.31046160641979
scalar tree_4_3_u01_r12_network.node[36].content_store 	hits[36] 	4217
scalar tree_4_3_u01_r12_network.node[36].content_store 	misses[36] 	9366
scalar tree_4_3_u01_r12_network.node[36].content_store 	decision_yes[36] 	92
scalar tree_4_3_u01_r12_network.node[36].content_store 	decision_no[36] 	9274
scalar tree_4_3_u01_r12_network.node[36].content_store 	decision_ratio[36] 	0.0098227631859919
scalar tree_4_3_u01_r12_network.node[37].core_layer 	interests[37] 	12997
scalar tree_4_3_u01_r12_network.node[37].core_layer 	data[37] 	9212
scalar tree_4_3_u01_r12_network.node[37].content_store 	p_hit[37] 	0.29122105101177
scalar tree_4_3_u01_r12_network.node[37].content_store 	hits[37] 	3785
scalar tree_4_3_u01_r12_network.node[37].content_store 	misses[37] 	9212
scalar tree_4_3_u01_r12_network.node[37].content_store 	decision_yes[37] 	102
scalar tree_4_3_u01_r12_network.node[37].content_store 	decision_no[37] 	9110
scalar tree_4_3_u01_r12_network.node[37].content_store 	decision_ratio[37] 	0.011072514112028
scalar tree_4_3_u01_r12_network.node[38].core_layer 	interests[38] 	13100
scalar tree_4_3_u01_r12_network.node[38].core_layer 	data[38] 	9354
scalar tree_4_3_u01_r12_network.node[38].content_store 	p_hit[38] 	0.28595419847328
scalar tree_4_3_u01_r12_network.node[38].content_store 	hits[38] 	3746
scalar tree_4_3_u01_r12_network.node[38].content_store 	misses[38] 	9354
scalar tree_4_3_u01_r12_network.node[38].content_store 	decision_yes[38] 	103
scalar tree_4_3_u01_r12_network.node[38].content_store 	decision_no[38] 	9251
scalar tree_4_3_u01_r12_network.node[38].content_store 	decision_ratio[38] 	0.01101133205046
scalar tree_4_3_u01_r12_network.node[39].core_layer 	interests[39] 	12697
scalar tree_4_3_u01_r12_network.node[39].core_layer 	data[39] 	9216
scalar tree_4_3_u01_r12_network.node[39].content_store 	p_hit[39] 	0.27415925021659
scalar tree_4_3_u01_r12_network.node[39].content_store 	hits[39] 	3481
scalar tree_4_3_u01_r12_network.node[39].content_store 	misses[39] 	9216
scalar tree_4_3_u01_r12_network.node[39].content_store 	decision_yes[39] 	77
scalar tree_4_3_u01_r12_network.node[39].content_store 	decision_no[39] 	9139
scalar tree_4_3_u01_r12_network.node[39].content_store 	decision_ratio[39] 	0.0083550347222222
scalar tree_4_3_u01_r12_network.client[13] 	hdistance[13] 	2.7725903614458
scalar tree_4_3_u01_r12_network.client[13] 	downloads[13] 	11952
scalar tree_4_3_u01_r12_network.client[13] 	avg_time[13] 	0.004353912691
scalar tree_4_3_u01_r12_network.client[14] 	hdistance[14] 	2.8085704831237
scalar tree_4_3_u01_r12_network.client[14] 	downloads[14] 	12088
scalar tree_4_3_u01_r12_network.client[14] 	avg_time[14] 	0.00442008302
scalar tree_4_3_u01_r12_network.client[15] 	hdistance[15] 	2.717668794088
scalar tree_4_3_u01_r12_network.client[15] 	downloads[15] 	11908
scalar tree_4_3_u01_r12_network.client[15] 	avg_time[15] 	0.004233621485
scalar tree_4_3_u01_r12_network.client[16] 	hdistance[16] 	2.7702456023897
scalar tree_4_3_u01_r12_network.client[16] 	downloads[16] 	12052
scalar tree_4_3_u01_r12_network.client[16] 	avg_time[16] 	0.004359985998
scalar tree_4_3_u01_r12_network.client[17] 	hdistance[17] 	2.791937364651
scalar tree_4_3_u01_r12_network.client[17] 	downloads[17] 	12006
scalar tree_4_3_u01_r12_network.client[17] 	avg_time[17] 	0.004389635531
scalar tree_4_3_u01_r12_network.client[18] 	hdistance[18] 	2.7577490469087
scalar tree_4_3_u01_r12_network.client[18] 	downloads[18] 	12066
scalar tree_4_3_u01_r12_network.client[18] 	avg_time[18] 	0.004331341264
scalar tree_4_3_u01_r12_network.client[19] 	hdistance[19] 	2.7812370963746
scalar tree_4_3_u01_r12_network.client[19] 	downloads[19] 	12109
scalar tree_4_3_u01_r12_network.client[19] 	avg_time[19] 	0.004359180565
scalar tree_4_3_u01_r12_network.client[20] 	hdistance[20] 	2.7693012409428
scalar tree_4_3_u01_r12_network.client[20] 	downloads[20] 	12007
scalar tree_4_3_u01_r12_network.client[20] 	avg_time[20] 	0.004348428838
scalar tree_4_3_u01_r12_network.client[21] 	hdistance[21] 	2.7370091896408
scalar tree_4_3_u01_r12_network.client[21] 	downloads[21] 	11970
scalar tree_4_3_u01_r12_network.client[21] 	avg_time[21] 	0.004294566721
scalar tree_4_3_u01_r12_network.client[22] 	hdistance[22] 	2.7528682689892
scalar tree_4_3_u01_r12_network.client[22] 	downloads[22] 	11941
scalar tree_4_3_u01_r12_network.client[22] 	avg_time[22] 	0.004353239612
scalar tree_4_3_u01_r12_network.client[23] 	hdistance[23] 	2.7343607589693
scalar tree_4_3_u01_r12_network.client[23] 	downloads[23] 	12069
scalar tree_4_3_u01_r12_network.client[23] 	avg_time[23] 	0.004323801794
scalar tree_4_3_u01_r12_network.client[24] 	hdistance[24] 	2.7544366487825
scalar tree_4_3_u01_r12_network.client[24] 	downloads[24] 	12115
scalar tree_4_3_u01_r12_network.client[24] 	avg_time[24] 	0.004357570223
scalar tree_4_3_u01_r12_network.client[25] 	hdistance[25] 	2.664944587951
scalar tree_4_3_u01_r12_network.client[25] 	downloads[25] 	12001
scalar tree_4_3_u01_r12_network.client[25] 	avg_time[25] 	0.004180729586
scalar tree_4_3_u01_r12_network.client[26] 	hdistance[26] 	2.7638717124248
scalar tree_4_3_u01_r12_network.client[26] 	downloads[26] 	12129
scalar tree_4_3_u01_r12_network.client[26] 	avg_time[26] 	0.004381067145
scalar tree_4_3_u01_r12_network.client[27] 	hdistance[27] 	2.7864798717191
scalar tree_4_3_u01_r12_network.client[27] 	downloads[27] 	11849
scalar tree_4_3_u01_r12_network.client[27] 	avg_time[27] 	0.004408470334
scalar tree_4_3_u01_r12_network.client[28] 	hdistance[28] 	2.7795255930087
scalar tree_4_3_u01_r12_network.client[28] 	downloads[28] 	12015
scalar tree_4_3_u01_r12_network.client[28] 	avg_time[28] 	0.004401328651
scalar tree_4_3_u01_r12_network.client[29] 	hdistance[29] 	2.760736196319
scalar tree_4_3_u01_r12_network.client[29] 	downloads[29] 	11736
scalar tree_4_3_u01_r12_network.client[29] 	avg_time[29] 	0.004375593543
scalar tree_4_3_u01_r12_network.client[30] 	hdistance[30] 	2.7167783014967
scalar tree_4_3_u01_r12_network.client[30] 	downloads[30] 	12093
scalar tree_4_3_u01_r12_network.client[30] 	avg_time[30] 	0.004301162927
scalar tree_4_3_u01_r12_network.client[31] 	hdistance[31] 	2.8023941999663
scalar tree_4_3_u01_r12_network.client[31] 	downloads[31] 	11862
scalar tree_4_3_u01_r12_network.client[31] 	avg_time[31] 	0.004411019662
scalar tree_4_3_u01_r12_network.client[32] 	hdistance[32] 	2.7935025212863
scalar tree_4_3_u01_r12_network.client[32] 	downloads[32] 	12097
scalar tree_4_3_u01_r12_network.client[32] 	avg_time[32] 	0.004402092049
scalar tree_4_3_u01_r12_network.client[33] 	hdistance[33] 	2.7630518717475
scalar tree_4_3_u01_r12_network.client[33] 	downloads[33] 	11914
scalar tree_4_3_u01_r12_network.client[33] 	avg_time[33] 	0.004347655255
scalar tree_4_3_u01_r12_network.client[34] 	hdistance[34] 	2.7853481064991
scalar tree_4_3_u01_r12_network.client[34] 	downloads[34] 	12094
scalar tree_4_3_u01_r12_network.client[34] 	avg_time[34] 	0.004459232936
scalar tree_4_3_u01_r12_network.client[35] 	hdistance[35] 	2.7673533548441
scalar tree_4_3_u01_r12_network.client[35] 	downloads[35] 	12087
scalar tree_4_3_u01_r12_network.client[35] 	avg_time[35] 	0.004426425398
scalar tree_4_3_u01_r12_network.client[36] 	hdistance[36] 	2.7628323022906
scalar tree_4_3_u01_r12_network.client[36] 	downloads[36] 	11962
scalar tree_4_3_u01_r12_network.client[36] 	avg_time[36] 	0.004412804204
scalar tree_4_3_u01_r12_network.client[37] 	hdistance[37] 	2.7490939044481
scalar tree_4_3_u01_r12_network.client[37] 	downloads[37] 	12140
scalar tree_4_3_u01_r12_network.client[37] 	avg_time[37] 	0.004306916202
scalar tree_4_3_u01_r12_network.client[38] 	hdistance[38] 	2.7550802139038
scalar tree_4_3_u01_r12_network.client[38] 	downloads[38] 	12155
scalar tree_4_3_u01_r12_network.client[38] 	avg_time[38] 	0.004335990385
scalar tree_4_3_u01_r12_network.client[39] 	hdistance[39] 	2.7823633454055
scalar tree_4_3_u01_r12_network.client[39] 	downloads[39] 	11873
scalar tree_4_3_u01_r12_network.client[39] 	avg_time[39] 	0.004377492204
