version 2
run General-24-20160902-11:52:26-7280
attr a 0.9
attr cd wfc0.01
attr configname General
attr cr lru
attr datetime 20160902-11:52:26
attr experiment General
attr fsize 1
attr inifile hw5115/scenario_Y/omnetp.ini
attr iterationvars "$name=tree_4_3, $un=01, $rep=5, $cd=wfc0.01, $cr=lru, $fsize=1, $a=0.9, $sl=nrr, $ttl=1000, $variance=0.05"
attr iterationvars2 "$name=tree_4_3, $un=01, $rep=5, $cd=wfc0.01, $cr=lru, $fsize=1, $a=0.9, $sl=nrr, $ttl=1000, $variance=0.05, $repetition=0"
attr measurement "$name=tree_4_3, $un=01, $rep=5, $cd=wfc0.01, $cr=lru, $fsize=1, $a=0.9, $sl=nrr, $ttl=1000, $variance=0.05"
attr name tree_4_3
attr network networks.${name}_u${un}_r${rep}_network
attr processid 7280
attr rep 5
attr repetition 0
attr replication #0
attr resultdir results
attr runnumber 24
attr seedset 5
attr sl nrr
attr ttl 1000
attr un 01
attr variance 0.05

scalar . 	a 	0.9
scalar . 	fsize 	1
scalar . 	rep 	5
scalar . 	ttl 	1000
scalar . 	un 	01
scalar . 	variance 	0.05
scalar tree_4_3_u01_r5_network.content_distribution 	repo-0 	0
scalar tree_4_3_u01_r5_network.content_distribution 	client-0 	13
scalar tree_4_3_u01_r5_network.content_distribution 	client-1 	14
scalar tree_4_3_u01_r5_network.content_distribution 	client-2 	15
scalar tree_4_3_u01_r5_network.content_distribution 	client-3 	16
scalar tree_4_3_u01_r5_network.content_distribution 	client-4 	17
scalar tree_4_3_u01_r5_network.content_distribution 	client-5 	18
scalar tree_4_3_u01_r5_network.content_distribution 	client-6 	19
scalar tree_4_3_u01_r5_network.content_distribution 	client-7 	20
scalar tree_4_3_u01_r5_network.content_distribution 	client-8 	21
scalar tree_4_3_u01_r5_network.content_distribution 	client-9 	22
scalar tree_4_3_u01_r5_network.content_distribution 	client-10 	23
scalar tree_4_3_u01_r5_network.content_distribution 	client-11 	24
scalar tree_4_3_u01_r5_network.content_distribution 	client-12 	25
scalar tree_4_3_u01_r5_network.content_distribution 	client-13 	26
scalar tree_4_3_u01_r5_network.content_distribution 	client-14 	27
scalar tree_4_3_u01_r5_network.content_distribution 	client-15 	28
scalar tree_4_3_u01_r5_network.content_distribution 	client-16 	29
scalar tree_4_3_u01_r5_network.content_distribution 	client-17 	30
scalar tree_4_3_u01_r5_network.content_distribution 	client-18 	31
scalar tree_4_3_u01_r5_network.content_distribution 	client-19 	32
scalar tree_4_3_u01_r5_network.content_distribution 	client-20 	33
scalar tree_4_3_u01_r5_network.content_distribution 	client-21 	34
scalar tree_4_3_u01_r5_network.content_distribution 	client-22 	35
scalar tree_4_3_u01_r5_network.content_distribution 	client-23 	36
scalar tree_4_3_u01_r5_network.content_distribution 	client-24 	37
scalar tree_4_3_u01_r5_network.content_distribution 	client-25 	38
scalar tree_4_3_u01_r5_network.content_distribution 	client-26 	39
scalar tree_4_3_u01_r5_network.content_distribution 	repo-0_card 	100000
scalar tree_4_3_u01_r5_network.content_distribution 	repo-0_price 	0
scalar tree_4_3_u01_r5_network.statistics 	stabilization_time 	1133.3
scalar tree_4_3_u01_r5_network.statistics 	p_hit 	0.21535527269654
scalar tree_4_3_u01_r5_network.statistics 	interests 	25250.025
scalar tree_4_3_u01_r5_network.statistics 	data 	17149.55
scalar tree_4_3_u01_r5_network.statistics 	hdistance 	2.732489227796
scalar tree_4_3_u01_r5_network.statistics 	avg_time 	0.00423431719
scalar tree_4_3_u01_r5_network.statistics 	downloads 	324012
scalar tree_4_3_u01_r5_network.statistics 	total_cost 	0
scalar tree_4_3_u01_r5_network.statistics 	total_replicas 	100000
scalar tree_4_3_u01_r5_network.statistics 	inner_hit 	0.38470180116786
scalar tree_4_3_u01_r5_network.node[0].core_layer 	interests[0] 	202248
scalar tree_4_3_u01_r5_network.node[0].core_layer 	repo_load[0] 	199364
scalar tree_4_3_u01_r5_network.node[0].core_layer 	data[0] 	0
scalar tree_4_3_u01_r5_network.node[0].core_layer 	repo_int[0] 	199364
scalar tree_4_3_u01_r5_network.node[0].content_store 	p_hit[0] 	0.014259720738895
scalar tree_4_3_u01_r5_network.node[0].content_store 	hits[0] 	2884
scalar tree_4_3_u01_r5_network.node[0].content_store 	misses[0] 	199364
scalar tree_4_3_u01_r5_network.node[0].content_store 	decision_yes[0] 	3183
scalar tree_4_3_u01_r5_network.node[0].content_store 	decision_no[0] 	196181
scalar tree_4_3_u01_r5_network.node[0].content_store 	decision_ratio[0] 	0.015965771152264
scalar tree_4_3_u01_r5_network.node[1].core_layer 	interests[1] 	72724
scalar tree_4_3_u01_r5_network.node[1].core_layer 	data[1] 	71172
scalar tree_4_3_u01_r5_network.node[1].content_store 	p_hit[1] 	0.021327209724438
scalar tree_4_3_u01_r5_network.node[1].content_store 	hits[1] 	1551
scalar tree_4_3_u01_r5_network.node[1].content_store 	misses[1] 	71173
scalar tree_4_3_u01_r5_network.node[1].content_store 	decision_yes[1] 	834
scalar tree_4_3_u01_r5_network.node[1].content_store 	decision_no[1] 	70338
scalar tree_4_3_u01_r5_network.node[1].content_store 	decision_ratio[1] 	0.011718091384252
scalar tree_4_3_u01_r5_network.node[2].core_layer 	interests[2] 	72390
scalar tree_4_3_u01_r5_network.node[2].core_layer 	data[2] 	70967
scalar tree_4_3_u01_r5_network.node[2].content_store 	p_hit[2] 	0.019643597181931
scalar tree_4_3_u01_r5_network.node[2].content_store 	hits[2] 	1422
scalar tree_4_3_u01_r5_network.node[2].content_store 	misses[2] 	70968
scalar tree_4_3_u01_r5_network.node[2].content_store 	decision_yes[2] 	847
scalar tree_4_3_u01_r5_network.node[2].content_store 	decision_no[2] 	70120
scalar tree_4_3_u01_r5_network.node[2].content_store 	decision_ratio[2] 	0.011935124776304
scalar tree_4_3_u01_r5_network.node[3].core_layer 	interests[3] 	73447
scalar tree_4_3_u01_r5_network.node[3].core_layer 	data[3] 	71665
scalar tree_4_3_u01_r5_network.node[3].content_store 	p_hit[3] 	0.0242623932904
scalar tree_4_3_u01_r5_network.node[3].content_store 	hits[3] 	1782
scalar tree_4_3_u01_r5_network.node[3].content_store 	misses[3] 	71665
scalar tree_4_3_u01_r5_network.node[3].content_store 	decision_yes[3] 	834
scalar tree_4_3_u01_r5_network.node[3].content_store 	decision_no[3] 	70831
scalar tree_4_3_u01_r5_network.node[3].content_store 	decision_ratio[3] 	0.011637479941394
scalar tree_4_3_u01_r5_network.node[4].core_layer 	interests[4] 	36327
scalar tree_4_3_u01_r5_network.node[4].core_layer 	data[4] 	34091
scalar tree_4_3_u01_r5_network.node[4].content_store 	p_hit[4] 	0.061524485919564
scalar tree_4_3_u01_r5_network.node[4].content_store 	hits[4] 	2235
scalar tree_4_3_u01_r5_network.node[4].content_store 	misses[4] 	34092
scalar tree_4_3_u01_r5_network.node[4].content_store 	decision_yes[4] 	434
scalar tree_4_3_u01_r5_network.node[4].content_store 	decision_no[4] 	33657
scalar tree_4_3_u01_r5_network.node[4].content_store 	decision_ratio[4] 	0.012730632718313
scalar tree_4_3_u01_r5_network.node[5].core_layer 	interests[5] 	27905
scalar tree_4_3_u01_r5_network.node[5].core_layer 	data[5] 	25893
scalar tree_4_3_u01_r5_network.node[5].content_store 	p_hit[5] 	0.07210177387565
scalar tree_4_3_u01_r5_network.node[5].content_store 	hits[5] 	2012
scalar tree_4_3_u01_r5_network.node[5].content_store 	misses[5] 	25893
scalar tree_4_3_u01_r5_network.node[5].content_store 	decision_yes[5] 	364
scalar tree_4_3_u01_r5_network.node[5].content_store 	decision_no[5] 	25529
scalar tree_4_3_u01_r5_network.node[5].content_store 	decision_ratio[5] 	0.014057853473912
scalar tree_4_3_u01_r5_network.node[6].core_layer 	interests[6] 	19321
scalar tree_4_3_u01_r5_network.node[6].core_layer 	data[6] 	17222
scalar tree_4_3_u01_r5_network.node[6].content_store 	p_hit[6] 	0.10863826924072
scalar tree_4_3_u01_r5_network.node[6].content_store 	hits[6] 	2099
scalar tree_4_3_u01_r5_network.node[6].content_store 	misses[6] 	17222
scalar tree_4_3_u01_r5_network.node[6].content_store 	decision_yes[6] 	305
scalar tree_4_3_u01_r5_network.node[6].content_store 	decision_no[6] 	16917
scalar tree_4_3_u01_r5_network.node[6].content_store 	decision_ratio[6] 	0.01770990593427
scalar tree_4_3_u01_r5_network.node[7].core_layer 	interests[7] 	35926
scalar tree_4_3_u01_r5_network.node[7].core_layer 	data[7] 	33743
scalar tree_4_3_u01_r5_network.node[7].content_store 	p_hit[7] 	0.060763792239604
scalar tree_4_3_u01_r5_network.node[7].content_store 	hits[7] 	2183
scalar tree_4_3_u01_r5_network.node[7].content_store 	misses[7] 	33743
scalar tree_4_3_u01_r5_network.node[7].content_store 	decision_yes[7] 	497
scalar tree_4_3_u01_r5_network.node[7].content_store 	decision_no[7] 	33246
scalar tree_4_3_u01_r5_network.node[7].content_store 	decision_ratio[7] 	0.014728980825653
scalar tree_4_3_u01_r5_network.node[8].core_layer 	interests[8] 	19996
scalar tree_4_3_u01_r5_network.node[8].core_layer 	data[8] 	17522
scalar tree_4_3_u01_r5_network.node[8].content_store 	p_hit[8] 	0.12372474494899
scalar tree_4_3_u01_r5_network.node[8].content_store 	hits[8] 	2474
scalar tree_4_3_u01_r5_network.node[8].content_store 	misses[8] 	17522
scalar tree_4_3_u01_r5_network.node[8].content_store 	decision_yes[8] 	313
scalar tree_4_3_u01_r5_network.node[8].content_store 	decision_no[8] 	17209
scalar tree_4_3_u01_r5_network.node[8].content_store 	decision_ratio[8] 	0.017863257618993
scalar tree_4_3_u01_r5_network.node[9].core_layer 	interests[9] 	27919
scalar tree_4_3_u01_r5_network.node[9].core_layer 	data[9] 	26098
scalar tree_4_3_u01_r5_network.node[9].content_store 	p_hit[9] 	0.06518858125291
scalar tree_4_3_u01_r5_network.node[9].content_store 	hits[9] 	1820
scalar tree_4_3_u01_r5_network.node[9].content_store 	misses[9] 	26099
scalar tree_4_3_u01_r5_network.node[9].content_store 	decision_yes[9] 	382
scalar tree_4_3_u01_r5_network.node[9].content_store 	decision_no[9] 	25716
scalar tree_4_3_u01_r5_network.node[9].content_store 	decision_ratio[9] 	0.01463713694536
scalar tree_4_3_u01_r5_network.node[10].core_layer 	interests[10] 	28062
scalar tree_4_3_u01_r5_network.node[10].core_layer 	data[10] 	25814
scalar tree_4_3_u01_r5_network.node[10].content_store 	p_hit[10] 	0.08007269617276
scalar tree_4_3_u01_r5_network.node[10].content_store 	hits[10] 	2247
scalar tree_4_3_u01_r5_network.node[10].content_store 	misses[10] 	25815
scalar tree_4_3_u01_r5_network.node[10].content_store 	decision_yes[10] 	370
scalar tree_4_3_u01_r5_network.node[10].content_store 	decision_no[10] 	25444
scalar tree_4_3_u01_r5_network.node[10].content_store 	decision_ratio[10] 	0.014333307507554
scalar tree_4_3_u01_r5_network.node[11].core_layer 	interests[11] 	27948
scalar tree_4_3_u01_r5_network.node[11].core_layer 	data[11] 	25791
scalar tree_4_3_u01_r5_network.node[11].content_store 	p_hit[11] 	0.07714326606555
scalar tree_4_3_u01_r5_network.node[11].content_store 	hits[11] 	2156
scalar tree_4_3_u01_r5_network.node[11].content_store 	misses[11] 	25792
scalar tree_4_3_u01_r5_network.node[11].content_store 	decision_yes[11] 	415
scalar tree_4_3_u01_r5_network.node[11].content_store 	decision_no[11] 	25376
scalar tree_4_3_u01_r5_network.node[11].content_store 	decision_ratio[11] 	0.016090884417045
scalar tree_4_3_u01_r5_network.node[12].core_layer 	interests[12] 	28084
scalar tree_4_3_u01_r5_network.node[12].core_layer 	data[12] 	26074
scalar tree_4_3_u01_r5_network.node[12].content_store 	p_hit[12] 	0.071571001281869
scalar tree_4_3_u01_r5_network.node[12].content_store 	hits[12] 	2010
scalar tree_4_3_u01_r5_network.node[12].content_store 	misses[12] 	26074
scalar tree_4_3_u01_r5_network.node[12].content_store 	decision_yes[12] 	370
scalar tree_4_3_u01_r5_network.node[12].content_store 	decision_no[12] 	25704
scalar tree_4_3_u01_r5_network.node[12].content_store 	decision_ratio[12] 	0.014190381222674
scalar tree_4_3_u01_r5_network.node[13].core_layer 	interests[13] 	12521
scalar tree_4_3_u01_r5_network.node[13].core_layer 	data[13] 	8900
scalar tree_4_3_u01_r5_network.node[13].content_store 	p_hit[13] 	0.28919415382158
scalar tree_4_3_u01_r5_network.node[13].content_store 	hits[13] 	3621
scalar tree_4_3_u01_r5_network.node[13].content_store 	misses[13] 	8900
scalar tree_4_3_u01_r5_network.node[13].content_store 	decision_yes[13] 	128
scalar tree_4_3_u01_r5_network.node[13].content_store 	decision_no[13] 	8772
scalar tree_4_3_u01_r5_network.node[13].content_store 	decision_ratio[13] 	0.01438202247191
scalar tree_4_3_u01_r5_network.node[14].core_layer 	interests[14] 	12407
scalar tree_4_3_u01_r5_network.node[14].core_layer 	data[14] 	8894
scalar tree_4_3_u01_r5_network.node[14].content_store 	p_hit[14] 	0.28314661078423
scalar tree_4_3_u01_r5_network.node[14].content_store 	hits[14] 	3513
scalar tree_4_3_u01_r5_network.node[14].content_store 	misses[14] 	8894
scalar tree_4_3_u01_r5_network.node[14].content_store 	decision_yes[14] 	131
scalar tree_4_3_u01_r5_network.node[14].content_store 	decision_no[14] 	8763
scalar tree_4_3_u01_r5_network.node[14].content_store 	decision_ratio[14] 	0.014729030807286
scalar tree_4_3_u01_r5_network.node[15].core_layer 	interests[15] 	12541
scalar tree_4_3_u01_r5_network.node[15].core_layer 	data[15] 	8909
scalar tree_4_3_u01_r5_network.node[15].content_store 	p_hit[15] 	0.28945060202536
scalar tree_4_3_u01_r5_network.node[15].content_store 	hits[15] 	3630
scalar tree_4_3_u01_r5_network.node[15].content_store 	misses[15] 	8911
scalar tree_4_3_u01_r5_network.node[15].content_store 	decision_yes[15] 	116
scalar tree_4_3_u01_r5_network.node[15].content_store 	decision_no[15] 	8793
scalar tree_4_3_u01_r5_network.node[15].content_store 	decision_ratio[15] 	0.013020541025929
scalar tree_4_3_u01_r5_network.node[16].core_layer 	interests[16] 	12434
scalar tree_4_3_u01_r5_network.node[16].core_layer 	data[16] 	9057
scalar tree_4_3_u01_r5_network.node[16].content_store 	p_hit[16] 	0.27159401640663
scalar tree_4_3_u01_r5_network.node[16].content_store 	hits[16] 	3377
scalar tree_4_3_u01_r5_network.node[16].content_store 	misses[16] 	9057
scalar tree_4_3_u01_r5_network.node[16].content_store 	decision_yes[16] 	152
scalar tree_4_3_u01_r5_network.node[16].content_store 	decision_no[16] 	8905
scalar tree_4_3_u01_r5_network.node[16].content_store 	decision_ratio[16] 	0.016782599094623
scalar tree_4_3_u01_r5_network.node[17].core_layer 	interests[17] 	12339
scalar tree_4_3_u01_r5_network.node[17].core_layer 	data[17] 	8795
scalar tree_4_3_u01_r5_network.node[17].content_store 	p_hit[17] 	0.28721938568766
scalar tree_4_3_u01_r5_network.node[17].content_store 	hits[17] 	3544
scalar tree_4_3_u01_r5_network.node[17].content_store 	misses[17] 	8795
scalar tree_4_3_u01_r5_network.node[17].content_store 	decision_yes[17] 	125
scalar tree_4_3_u01_r5_network.node[17].content_store 	decision_no[17] 	8670
scalar tree_4_3_u01_r5_network.node[17].content_store 	decision_ratio[17] 	0.014212620807277
scalar tree_4_3_u01_r5_network.node[18].core_layer 	interests[18] 	12435
scalar tree_4_3_u01_r5_network.node[18].core_layer 	data[18] 	8849
scalar tree_4_3_u01_r5_network.node[18].content_store 	p_hit[18] 	0.28837957378368
scalar tree_4_3_u01_r5_network.node[18].content_store 	hits[18] 	3586
scalar tree_4_3_u01_r5_network.node[18].content_store 	misses[18] 	8849
scalar tree_4_3_u01_r5_network.node[18].content_store 	decision_yes[18] 	109
scalar tree_4_3_u01_r5_network.node[18].content_store 	decision_no[18] 	8740
scalar tree_4_3_u01_r5_network.node[18].content_store 	decision_ratio[18] 	0.012317776019889
scalar tree_4_3_u01_r5_network.node[19].core_layer 	interests[19] 	13027
scalar tree_4_3_u01_r5_network.node[19].core_layer 	data[19] 	8910
scalar tree_4_3_u01_r5_network.node[19].content_store 	p_hit[19] 	0.315959161741
scalar tree_4_3_u01_r5_network.node[19].content_store 	hits[19] 	4116
scalar tree_4_3_u01_r5_network.node[19].content_store 	misses[19] 	8911
scalar tree_4_3_u01_r5_network.node[19].content_store 	decision_yes[19] 	154
scalar tree_4_3_u01_r5_network.node[19].content_store 	decision_no[19] 	8756
scalar tree_4_3_u01_r5_network.node[19].content_store 	decision_ratio[19] 	0.017283950617284
scalar tree_4_3_u01_r5_network.node[20].core_layer 	interests[20] 	12370
scalar tree_4_3_u01_r5_network.node[20].core_layer 	data[20] 	8875
scalar tree_4_3_u01_r5_network.node[20].content_store 	p_hit[20] 	0.28253839935327
scalar tree_4_3_u01_r5_network.node[20].content_store 	hits[20] 	3495
scalar tree_4_3_u01_r5_network.node[20].content_store 	misses[20] 	8875
scalar tree_4_3_u01_r5_network.node[20].content_store 	decision_yes[20] 	112
scalar tree_4_3_u01_r5_network.node[20].content_store 	decision_no[20] 	8763
scalar tree_4_3_u01_r5_network.node[20].content_store 	decision_ratio[20] 	0.012619718309859
scalar tree_4_3_u01_r5_network.node[21].core_layer 	interests[21] 	12165
scalar tree_4_3_u01_r5_network.node[21].core_layer 	data[21] 	8730
scalar tree_4_3_u01_r5_network.node[21].content_store 	p_hit[21] 	0.28236744759556
scalar tree_4_3_u01_r5_network.node[21].content_store 	hits[21] 	3435
scalar tree_4_3_u01_r5_network.node[21].content_store 	misses[21] 	8730
scalar tree_4_3_u01_r5_network.node[21].content_store 	decision_yes[21] 	123
scalar tree_4_3_u01_r5_network.node[21].content_store 	decision_no[21] 	8607
scalar tree_4_3_u01_r5_network.node[21].content_store 	decision_ratio[21] 	0.014089347079038
scalar tree_4_3_u01_r5_network.node[22].core_layer 	interests[22] 	12586
scalar tree_4_3_u01_r5_network.node[22].core_layer 	data[22] 	8998
scalar tree_4_3_u01_r5_network.node[22].content_store 	p_hit[22] 	0.28507865882727
scalar tree_4_3_u01_r5_network.node[22].content_store 	hits[22] 	3588
scalar tree_4_3_u01_r5_network.node[22].content_store 	misses[22] 	8998
scalar tree_4_3_u01_r5_network.node[22].content_store 	decision_yes[22] 	116
scalar tree_4_3_u01_r5_network.node[22].content_store 	decision_no[22] 	8882
scalar tree_4_3_u01_r5_network.node[22].content_store 	decision_ratio[22] 	0.01289175372305
scalar tree_4_3_u01_r5_network.node[23].core_layer 	interests[23] 	12991
scalar tree_4_3_u01_r5_network.node[23].core_layer 	data[23] 	9087
scalar tree_4_3_u01_r5_network.node[23].content_store 	p_hit[23] 	0.30043876529905
scalar tree_4_3_u01_r5_network.node[23].content_store 	hits[23] 	3903
scalar tree_4_3_u01_r5_network.node[23].content_store 	misses[23] 	9088
scalar tree_4_3_u01_r5_network.node[23].content_store 	decision_yes[23] 	170
scalar tree_4_3_u01_r5_network.node[23].content_store 	decision_no[23] 	8917
scalar tree_4_3_u01_r5_network.node[23].content_store 	decision_ratio[23] 	0.018708044459117
scalar tree_4_3_u01_r5_network.node[24].core_layer 	interests[24] 	12568
scalar tree_4_3_u01_r5_network.node[24].core_layer 	data[24] 	8956
scalar tree_4_3_u01_r5_network.node[24].content_store 	p_hit[24] 	0.28739656269892
scalar tree_4_3_u01_r5_network.node[24].content_store 	hits[24] 	3612
scalar tree_4_3_u01_r5_network.node[24].content_store 	misses[24] 	8956
scalar tree_4_3_u01_r5_network.node[24].content_store 	decision_yes[24] 	129
scalar tree_4_3_u01_r5_network.node[24].content_store 	decision_no[24] 	8827
scalar tree_4_3_u01_r5_network.node[24].content_store 	decision_ratio[24] 	0.014403751674855
scalar tree_4_3_u01_r5_network.node[25].core_layer 	interests[25] 	12862
scalar tree_4_3_u01_r5_network.node[25].core_layer 	data[25] 	8763
scalar tree_4_3_u01_r5_network.node[25].content_store 	p_hit[25] 	0.3186907168403
scalar tree_4_3_u01_r5_network.node[25].content_store 	hits[25] 	4099
scalar tree_4_3_u01_r5_network.node[25].content_store 	misses[25] 	8763
scalar tree_4_3_u01_r5_network.node[25].content_store 	decision_yes[25] 	144
scalar tree_4_3_u01_r5_network.node[25].content_store 	decision_no[25] 	8619
scalar tree_4_3_u01_r5_network.node[25].content_store 	decision_ratio[25] 	0.016432728517631
scalar tree_4_3_u01_r5_network.node[26].core_layer 	interests[26] 	12282
scalar tree_4_3_u01_r5_network.node[26].core_layer 	data[26] 	8824
scalar tree_4_3_u01_r5_network.node[26].content_store 	p_hit[26] 	0.2815502361179
scalar tree_4_3_u01_r5_network.node[26].content_store 	hits[26] 	3458
scalar tree_4_3_u01_r5_network.node[26].content_store 	misses[26] 	8824
scalar tree_4_3_u01_r5_network.node[26].content_store 	decision_yes[26] 	120
scalar tree_4_3_u01_r5_network.node[26].content_store 	decision_no[26] 	8704
scalar tree_4_3_u01_r5_network.node[26].content_store 	decision_ratio[26] 	0.013599274705349
scalar tree_4_3_u01_r5_network.node[27].core_layer 	interests[27] 	12592
scalar tree_4_3_u01_r5_network.node[27].core_layer 	data[27] 	8949
scalar tree_4_3_u01_r5_network.node[27].content_store 	p_hit[27] 	0.28931067344346
scalar tree_4_3_u01_r5_network.node[27].content_store 	hits[27] 	3643
scalar tree_4_3_u01_r5_network.node[27].content_store 	misses[27] 	8949
scalar tree_4_3_u01_r5_network.node[27].content_store 	decision_yes[27] 	118
scalar tree_4_3_u01_r5_network.node[27].content_store 	decision_no[27] 	8831
scalar tree_4_3_u01_r5_network.node[27].content_store 	decision_ratio[27] 	0.013185830819086
scalar tree_4_3_u01_r5_network.node[28].core_layer 	interests[28] 	12438
scalar tree_4_3_u01_r5_network.node[28].core_layer 	data[28] 	8796
scalar tree_4_3_u01_r5_network.node[28].content_store 	p_hit[28] 	0.29281234925229
scalar tree_4_3_u01_r5_network.node[28].content_store 	hits[28] 	3642
scalar tree_4_3_u01_r5_network.node[28].content_store 	misses[28] 	8796
scalar tree_4_3_u01_r5_network.node[28].content_store 	decision_yes[28] 	92
scalar tree_4_3_u01_r5_network.node[28].content_store 	decision_no[28] 	8704
scalar tree_4_3_u01_r5_network.node[28].content_store 	decision_ratio[28] 	0.010459299681673
scalar tree_4_3_u01_r5_network.node[29].core_layer 	interests[29] 	12487
scalar tree_4_3_u01_r5_network.node[29].core_layer 	data[29] 	8793
scalar tree_4_3_u01_r5_network.node[29].content_store 	p_hit[29] 	0.29574757748058
scalar tree_4_3_u01_r5_network.node[29].content_store 	hits[29] 	3693
scalar tree_4_3_u01_r5_network.node[29].content_store 	misses[29] 	8794
scalar tree_4_3_u01_r5_network.node[29].content_store 	decision_yes[29] 	105
scalar tree_4_3_u01_r5_network.node[29].content_store 	decision_no[29] 	8688
scalar tree_4_3_u01_r5_network.node[29].content_store 	decision_ratio[29] 	0.01194131695667
scalar tree_4_3_u01_r5_network.node[30].core_layer 	interests[30] 	12764
scalar tree_4_3_u01_r5_network.node[30].core_layer 	data[30] 	9173
scalar tree_4_3_u01_r5_network.node[30].content_store 	p_hit[30] 	0.28133813851457
scalar tree_4_3_u01_r5_network.node[30].content_store 	hits[30] 	3591
scalar tree_4_3_u01_r5_network.node[30].content_store 	misses[30] 	9173
scalar tree_4_3_u01_r5_network.node[30].content_store 	decision_yes[30] 	117
scalar tree_4_3_u01_r5_network.node[30].content_store 	decision_no[30] 	9056
scalar tree_4_3_u01_r5_network.node[30].content_store 	decision_ratio[30] 	0.012754823939823
scalar tree_4_3_u01_r5_network.node[31].core_layer 	interests[31] 	12538
scalar tree_4_3_u01_r5_network.node[31].core_layer 	data[31] 	8944
scalar tree_4_3_u01_r5_network.node[31].content_store 	p_hit[31] 	0.28664858829159
scalar tree_4_3_u01_r5_network.node[31].content_store 	hits[31] 	3594
scalar tree_4_3_u01_r5_network.node[31].content_store 	misses[31] 	8944
scalar tree_4_3_u01_r5_network.node[31].content_store 	decision_yes[31] 	106
scalar tree_4_3_u01_r5_network.node[31].content_store 	decision_no[31] 	8838
scalar tree_4_3_u01_r5_network.node[31].content_store 	decision_ratio[31] 	0.011851520572451
scalar tree_4_3_u01_r5_network.node[32].core_layer 	interests[32] 	12398
scalar tree_4_3_u01_r5_network.node[32].core_layer 	data[32] 	8855
scalar tree_4_3_u01_r5_network.node[32].content_store 	p_hit[32] 	0.28577189869334
scalar tree_4_3_u01_r5_network.node[32].content_store 	hits[32] 	3543
scalar tree_4_3_u01_r5_network.node[32].content_store 	misses[32] 	8855
scalar tree_4_3_u01_r5_network.node[32].content_store 	decision_yes[32] 	124
scalar tree_4_3_u01_r5_network.node[32].content_store 	decision_no[32] 	8731
scalar tree_4_3_u01_r5_network.node[32].content_store 	decision_ratio[32] 	0.014003387916431
scalar tree_4_3_u01_r5_network.node[33].core_layer 	interests[33] 	12363
scalar tree_4_3_u01_r5_network.node[33].core_layer 	data[33] 	8779
scalar tree_4_3_u01_r5_network.node[33].content_store 	p_hit[33] 	0.2898972741244
scalar tree_4_3_u01_r5_network.node[33].content_store 	hits[33] 	3584
scalar tree_4_3_u01_r5_network.node[33].content_store 	misses[33] 	8779
scalar tree_4_3_u01_r5_network.node[33].content_store 	decision_yes[33] 	118
scalar tree_4_3_u01_r5_network.node[33].content_store 	decision_no[33] 	8661
scalar tree_4_3_u01_r5_network.node[33].content_store 	decision_ratio[33] 	0.013441166419866
scalar tree_4_3_u01_r5_network.node[34].core_layer 	interests[34] 	12617
scalar tree_4_3_u01_r5_network.node[34].core_layer 	data[34] 	8983
scalar tree_4_3_u01_r5_network.node[34].content_store 	p_hit[34] 	0.28802409447571
scalar tree_4_3_u01_r5_network.node[34].content_store 	hits[34] 	3634
scalar tree_4_3_u01_r5_network.node[34].content_store 	misses[34] 	8983
scalar tree_4_3_u01_r5_network.node[34].content_store 	decision_yes[34] 	129
scalar tree_4_3_u01_r5_network.node[34].content_store 	decision_no[34] 	8854
scalar tree_4_3_u01_r5_network.node[34].content_store 	decision_ratio[34] 	0.014360458644106
scalar tree_4_3_u01_r5_network.node[35].core_layer 	interests[35] 	12281
scalar tree_4_3_u01_r5_network.node[35].core_layer 	data[35] 	8694
scalar tree_4_3_u01_r5_network.node[35].content_store 	p_hit[35] 	0.29207719241104
scalar tree_4_3_u01_r5_network.node[35].content_store 	hits[35] 	3587
scalar tree_4_3_u01_r5_network.node[35].content_store 	misses[35] 	8694
scalar tree_4_3_u01_r5_network.node[35].content_store 	decision_yes[35] 	116
scalar tree_4_3_u01_r5_network.node[35].content_store 	decision_no[35] 	8578
scalar tree_4_3_u01_r5_network.node[35].content_store 	decision_ratio[35] 	0.013342535081666
scalar tree_4_3_u01_r5_network.node[36].core_layer 	interests[36] 	12338
scalar tree_4_3_u01_r5_network.node[36].core_layer 	data[36] 	8814
scalar tree_4_3_u01_r5_network.node[36].content_store 	p_hit[36] 	0.28562165667045
scalar tree_4_3_u01_r5_network.node[36].content_store 	hits[36] 	3524
scalar tree_4_3_u01_r5_network.node[36].content_store 	misses[36] 	8814
scalar tree_4_3_u01_r5_network.node[36].content_store 	decision_yes[36] 	108
scalar tree_4_3_u01_r5_network.node[36].content_store 	decision_no[36] 	8706
scalar tree_4_3_u01_r5_network.node[36].content_store 	decision_ratio[36] 	0.012253233492172
scalar tree_4_3_u01_r5_network.node[37].core_layer 	interests[37] 	12381
scalar tree_4_3_u01_r5_network.node[37].core_layer 	data[37] 	8880
scalar tree_4_3_u01_r5_network.node[37].content_store 	p_hit[37] 	0.2827719893385
scalar tree_4_3_u01_r5_network.node[37].content_store 	hits[37] 	3501
scalar tree_4_3_u01_r5_network.node[37].content_store 	misses[37] 	8880
scalar tree_4_3_u01_r5_network.node[37].content_store 	decision_yes[37] 	103
scalar tree_4_3_u01_r5_network.node[37].content_store 	decision_no[37] 	8777
scalar tree_4_3_u01_r5_network.node[37].content_store 	decision_ratio[37] 	0.011599099099099
scalar tree_4_3_u01_r5_network.node[38].core_layer 	interests[38] 	12549
scalar tree_4_3_u01_r5_network.node[38].core_layer 	data[38] 	8898
scalar tree_4_3_u01_r5_network.node[38].content_store 	p_hit[38] 	0.290939517093
scalar tree_4_3_u01_r5_network.node[38].content_store 	hits[38] 	3651
scalar tree_4_3_u01_r5_network.node[38].content_store 	misses[38] 	8898
scalar tree_4_3_u01_r5_network.node[38].content_store 	decision_yes[38] 	120
scalar tree_4_3_u01_r5_network.node[38].content_store 	decision_no[38] 	8778
scalar tree_4_3_u01_r5_network.node[38].content_store 	decision_ratio[38] 	0.013486176668914
scalar tree_4_3_u01_r5_network.node[39].core_layer 	interests[39] 	12430
scalar tree_4_3_u01_r5_network.node[39].core_layer 	data[39] 	8825
scalar tree_4_3_u01_r5_network.node[39].content_store 	p_hit[39] 	0.29002413515688
scalar tree_4_3_u01_r5_network.node[39].content_store 	hits[39] 	3605
scalar tree_4_3_u01_r5_network.node[39].content_store 	misses[39] 	8825
scalar tree_4_3_u01_r5_network.node[39].content_store 	decision_yes[39] 	102
scalar tree_4_3_u01_r5_network.node[39].content_store 	decision_no[39] 	8723
scalar tree_4_3_u01_r5_network.node[39].content_store 	decision_ratio[39] 	0.011558073654391
scalar tree_4_3_u01_r5_network.client[13] 	hdistance[13] 	2.7329063383796
scalar tree_4_3_u01_r5_network.client[13] 	downloads[13] 	12022
scalar tree_4_3_u01_r5_network.client[13] 	avg_time[13] 	0.004226248867
scalar tree_4_3_u01_r5_network.client[14] 	hdistance[14] 	2.7451705022678
scalar tree_4_3_u01_r5_network.client[14] 	downloads[14] 	11906
scalar tree_4_3_u01_r5_network.client[14] 	avg_time[14] 	0.004250760112
scalar tree_4_3_u01_r5_network.client[15] 	hdistance[15] 	2.7378382865682
scalar tree_4_3_u01_r5_network.client[15] 	downloads[15] 	12046
scalar tree_4_3_u01_r5_network.client[15] 	avg_time[15] 	0.004240188085
scalar tree_4_3_u01_r5_network.client[16] 	hdistance[16] 	2.7886795598533
scalar tree_4_3_u01_r5_network.client[16] 	downloads[16] 	11996
scalar tree_4_3_u01_r5_network.client[16] 	avg_time[16] 	0.004325438816
scalar tree_4_3_u01_r5_network.client[17] 	hdistance[17] 	2.7350871313673
scalar tree_4_3_u01_r5_network.client[17] 	downloads[17] 	11936
scalar tree_4_3_u01_r5_network.client[17] 	avg_time[17] 	0.004239943365
scalar tree_4_3_u01_r5_network.client[18] 	hdistance[18] 	2.7380615051254
scalar tree_4_3_u01_r5_network.client[18] 	downloads[18] 	11999
scalar tree_4_3_u01_r5_network.client[18] 	avg_time[18] 	0.004247684321
scalar tree_4_3_u01_r5_network.client[19] 	hdistance[19] 	2.678458465124
scalar tree_4_3_u01_r5_network.client[19] 	downloads[19] 	12014
scalar tree_4_3_u01_r5_network.client[19] 	avg_time[19] 	0.004127658902
scalar tree_4_3_u01_r5_network.client[20] 	hdistance[20] 	2.7307884231537
scalar tree_4_3_u01_r5_network.client[20] 	downloads[20] 	12024
scalar tree_4_3_u01_r5_network.client[20] 	avg_time[20] 	0.004230203275
scalar tree_4_3_u01_r5_network.client[21] 	hdistance[21] 	2.742189484379
scalar tree_4_3_u01_r5_network.client[21] 	downloads[21] 	11811
scalar tree_4_3_u01_r5_network.client[21] 	avg_time[21] 	0.004248748224
scalar tree_4_3_u01_r5_network.client[22] 	hdistance[22] 	2.7271376691978
scalar tree_4_3_u01_r5_network.client[22] 	downloads[22] 	12116
scalar tree_4_3_u01_r5_network.client[22] 	avg_time[22] 	0.004228352078
scalar tree_4_3_u01_r5_network.client[23] 	hdistance[23] 	2.6981521201122
scalar tree_4_3_u01_r5_network.client[23] 	downloads[23] 	12122
scalar tree_4_3_u01_r5_network.client[23] 	avg_time[23] 	0.004162499733
scalar tree_4_3_u01_r5_network.client[24] 	hdistance[24] 	2.7248987686968
scalar tree_4_3_u01_r5_network.client[24] 	downloads[24] 	12101
scalar tree_4_3_u01_r5_network.client[24] 	avg_time[24] 	0.004226755109
scalar tree_4_3_u01_r5_network.client[25] 	hdistance[25] 	2.6476683937824
scalar tree_4_3_u01_r5_network.client[25] 	downloads[25] 	11966
scalar tree_4_3_u01_r5_network.client[25] 	avg_time[25] 	0.004081394285
scalar tree_4_3_u01_r5_network.client[26] 	hdistance[26] 	2.7312505249013
scalar tree_4_3_u01_r5_network.client[26] 	downloads[26] 	11907
scalar tree_4_3_u01_r5_network.client[26] 	avg_time[26] 	0.004233305162
scalar tree_4_3_u01_r5_network.client[27] 	hdistance[27] 	2.7070573669005
scalar tree_4_3_u01_r5_network.client[27] 	downloads[27] 	12115
scalar tree_4_3_u01_r5_network.client[27] 	avg_time[27] 	0.004203051082
scalar tree_4_3_u01_r5_network.client[28] 	hdistance[28] 	2.7246545696687
scalar tree_4_3_u01_r5_network.client[28] 	downloads[28] 	12014
scalar tree_4_3_u01_r5_network.client[28] 	avg_time[28] 	0.004227564845
scalar tree_4_3_u01_r5_network.client[29] 	hdistance[29] 	2.7380474757606
scalar tree_4_3_u01_r5_network.client[29] 	downloads[29] 	11964
scalar tree_4_3_u01_r5_network.client[29] 	avg_time[29] 	0.004248408901
scalar tree_4_3_u01_r5_network.client[30] 	hdistance[30] 	2.760211554109
scalar tree_4_3_u01_r5_network.client[30] 	downloads[30] 	12290
scalar tree_4_3_u01_r5_network.client[30] 	avg_time[30] 	0.004289337857
scalar tree_4_3_u01_r5_network.client[31] 	hdistance[31] 	2.7530720690801
scalar tree_4_3_u01_r5_network.client[31] 	downloads[31] 	12044
scalar tree_4_3_u01_r5_network.client[31] 	avg_time[31] 	0.004267183982
scalar tree_4_3_u01_r5_network.client[32] 	hdistance[32] 	2.7397088353414
scalar tree_4_3_u01_r5_network.client[32] 	downloads[32] 	11952
scalar tree_4_3_u01_r5_network.client[32] 	avg_time[32] 	0.004249543955
scalar tree_4_3_u01_r5_network.client[33] 	hdistance[33] 	2.7231311351623
scalar tree_4_3_u01_r5_network.client[33] 	downloads[33] 	11919
scalar tree_4_3_u01_r5_network.client[33] 	avg_time[33] 	0.004226526077
scalar tree_4_3_u01_r5_network.client[34] 	hdistance[34] 	2.7410060097143
scalar tree_4_3_u01_r5_network.client[34] 	downloads[34] 	12147
scalar tree_4_3_u01_r5_network.client[34] 	avg_time[34] 	0.004249967077
scalar tree_4_3_u01_r5_network.client[35] 	hdistance[35] 	2.7219590593808
scalar tree_4_3_u01_r5_network.client[35] 	downloads[35] 	11822
scalar tree_4_3_u01_r5_network.client[35] 	avg_time[35] 	0.004225677998
scalar tree_4_3_u01_r5_network.client[36] 	hdistance[36] 	2.7459595959596
scalar tree_4_3_u01_r5_network.client[36] 	downloads[36] 	11880
scalar tree_4_3_u01_r5_network.client[36] 	avg_time[36] 	0.00425908793
scalar tree_4_3_u01_r5_network.client[37] 	hdistance[37] 	2.7768074565455
scalar tree_4_3_u01_r5_network.client[37] 	downloads[37] 	11909
scalar tree_4_3_u01_r5_network.client[37] 	avg_time[37] 	0.004304976452
scalar tree_4_3_u01_r5_network.client[38] 	hdistance[38] 	2.7410944116914
scalar tree_4_3_u01_r5_network.client[38] 	downloads[38] 	12043
scalar tree_4_3_u01_r5_network.client[38] 	avg_time[38] 	0.004250598991
scalar tree_4_3_u01_r5_network.client[39] 	hdistance[39] 	2.746212438269
scalar tree_4_3_u01_r5_network.client[39] 	downloads[39] 	11947
scalar tree_4_3_u01_r5_network.client[39] 	avg_time[39] 	0.004255458657
