version 2
run General-39-20160902-12:15:14-7280
attr a 0.9
attr cd wfc0.01
attr configname General
attr cr lru
attr datetime 20160902-12:15:14
attr experiment General
attr fsize 1
attr inifile hw5115/scenario_Y/omnetp.ini
attr iterationvars "$name=tree_4_3, $un=01, $rep=20, $cd=wfc0.01, $cr=lru, $fsize=1, $a=0.9, $sl=nrr, $ttl=1000, $variance=0.05"
attr iterationvars2 "$name=tree_4_3, $un=01, $rep=20, $cd=wfc0.01, $cr=lru, $fsize=1, $a=0.9, $sl=nrr, $ttl=1000, $variance=0.05, $repetition=0"
attr measurement "$name=tree_4_3, $un=01, $rep=20, $cd=wfc0.01, $cr=lru, $fsize=1, $a=0.9, $sl=nrr, $ttl=1000, $variance=0.05"
attr name tree_4_3
attr network networks.${name}_u${un}_r${rep}_network
attr processid 7280
attr rep 20
attr repetition 0
attr replication #0
attr resultdir results
attr runnumber 39
attr seedset 20
attr sl nrr
attr ttl 1000
attr un 01
attr variance 0.05

scalar . 	a 	0.9
scalar . 	fsize 	1
scalar . 	rep 	20
scalar . 	ttl 	1000
scalar . 	un 	01
scalar . 	variance 	0.05
scalar tree_4_3_u01_r20_network.content_distribution 	repo-0 	0
scalar tree_4_3_u01_r20_network.content_distribution 	client-0 	13
scalar tree_4_3_u01_r20_network.content_distribution 	client-1 	14
scalar tree_4_3_u01_r20_network.content_distribution 	client-2 	15
scalar tree_4_3_u01_r20_network.content_distribution 	client-3 	16
scalar tree_4_3_u01_r20_network.content_distribution 	client-4 	17
scalar tree_4_3_u01_r20_network.content_distribution 	client-5 	18
scalar tree_4_3_u01_r20_network.content_distribution 	client-6 	19
scalar tree_4_3_u01_r20_network.content_distribution 	client-7 	20
scalar tree_4_3_u01_r20_network.content_distribution 	client-8 	21
scalar tree_4_3_u01_r20_network.content_distribution 	client-9 	22
scalar tree_4_3_u01_r20_network.content_distribution 	client-10 	23
scalar tree_4_3_u01_r20_network.content_distribution 	client-11 	24
scalar tree_4_3_u01_r20_network.content_distribution 	client-12 	25
scalar tree_4_3_u01_r20_network.content_distribution 	client-13 	26
scalar tree_4_3_u01_r20_network.content_distribution 	client-14 	27
scalar tree_4_3_u01_r20_network.content_distribution 	client-15 	28
scalar tree_4_3_u01_r20_network.content_distribution 	client-16 	29
scalar tree_4_3_u01_r20_network.content_distribution 	client-17 	30
scalar tree_4_3_u01_r20_network.content_distribution 	client-18 	31
scalar tree_4_3_u01_r20_network.content_distribution 	client-19 	32
scalar tree_4_3_u01_r20_network.content_distribution 	client-20 	33
scalar tree_4_3_u01_r20_network.content_distribution 	client-21 	34
scalar tree_4_3_u01_r20_network.content_distribution 	client-22 	35
scalar tree_4_3_u01_r20_network.content_distribution 	client-23 	36
scalar tree_4_3_u01_r20_network.content_distribution 	client-24 	37
scalar tree_4_3_u01_r20_network.content_distribution 	client-25 	38
scalar tree_4_3_u01_r20_network.content_distribution 	client-26 	39
scalar tree_4_3_u01_r20_network.content_distribution 	repo-0_card 	100000
scalar tree_4_3_u01_r20_network.content_distribution 	repo-0_price 	0
scalar tree_4_3_u01_r20_network.statistics 	stabilization_time 	1065.5
scalar tree_4_3_u01_r20_network.statistics 	p_hit 	0.21627218938699
scalar tree_4_3_u01_r20_network.statistics 	interests 	25327.55
scalar tree_4_3_u01_r20_network.statistics 	data 	17213.725
scalar tree_4_3_u01_r20_network.statistics 	hdistance 	2.7282836530696
scalar tree_4_3_u01_r20_network.statistics 	avg_time 	0.004243215559
scalar tree_4_3_u01_r20_network.statistics 	downloads 	324549
scalar tree_4_3_u01_r20_network.statistics 	total_cost 	0
scalar tree_4_3_u01_r20_network.statistics 	total_replicas 	100000
scalar tree_4_3_u01_r20_network.statistics 	inner_hit 	0.39334584300059
scalar tree_4_3_u01_r20_network.node[0].core_layer 	interests[0] 	199668
scalar tree_4_3_u01_r20_network.node[0].core_layer 	repo_load[0] 	196889
scalar tree_4_3_u01_r20_network.node[0].core_layer 	data[0] 	0
scalar tree_4_3_u01_r20_network.node[0].core_layer 	repo_int[0] 	196889
scalar tree_4_3_u01_r20_network.node[0].content_store 	p_hit[0] 	0.013918104052728
scalar tree_4_3_u01_r20_network.node[0].content_store 	hits[0] 	2779
scalar tree_4_3_u01_r20_network.node[0].content_store 	misses[0] 	196889
scalar tree_4_3_u01_r20_network.node[0].content_store 	decision_yes[0] 	3006
scalar tree_4_3_u01_r20_network.node[0].content_store 	decision_no[0] 	193883
scalar tree_4_3_u01_r20_network.node[0].content_store 	decision_ratio[0] 	0.015267485740697
scalar tree_4_3_u01_r20_network.node[1].core_layer 	interests[1] 	71274
scalar tree_4_3_u01_r20_network.node[1].core_layer 	data[1] 	69747
scalar tree_4_3_u01_r20_network.node[1].content_store 	p_hit[1] 	0.021424362320061
scalar tree_4_3_u01_r20_network.node[1].content_store 	hits[1] 	1527
scalar tree_4_3_u01_r20_network.node[1].content_store 	misses[1] 	69747
scalar tree_4_3_u01_r20_network.node[1].content_store 	decision_yes[1] 	796
scalar tree_4_3_u01_r20_network.node[1].content_store 	decision_no[1] 	68951
scalar tree_4_3_u01_r20_network.node[1].content_store 	decision_ratio[1] 	0.011412677247767
scalar tree_4_3_u01_r20_network.node[2].core_layer 	interests[2] 	74827
scalar tree_4_3_u01_r20_network.node[2].core_layer 	data[2] 	72434
scalar tree_4_3_u01_r20_network.node[2].content_store 	p_hit[2] 	0.031980434869766
scalar tree_4_3_u01_r20_network.node[2].content_store 	hits[2] 	2393
scalar tree_4_3_u01_r20_network.node[2].content_store 	misses[2] 	72434
scalar tree_4_3_u01_r20_network.node[2].content_store 	decision_yes[2] 	931
scalar tree_4_3_u01_r20_network.node[2].content_store 	decision_no[2] 	71503
scalar tree_4_3_u01_r20_network.node[2].content_store 	decision_ratio[2] 	0.012853080045283
scalar tree_4_3_u01_r20_network.node[3].core_layer 	interests[3] 	73677
scalar tree_4_3_u01_r20_network.node[3].core_layer 	data[3] 	71900
scalar tree_4_3_u01_r20_network.node[3].content_store 	p_hit[3] 	0.024078070496899
scalar tree_4_3_u01_r20_network.node[3].content_store 	hits[3] 	1774
scalar tree_4_3_u01_r20_network.node[3].content_store 	misses[3] 	71903
scalar tree_4_3_u01_r20_network.node[3].content_store 	decision_yes[3] 	835
scalar tree_4_3_u01_r20_network.node[3].content_store 	decision_no[3] 	71065
scalar tree_4_3_u01_r20_network.node[3].content_store 	decision_ratio[3] 	0.011613351877608
scalar tree_4_3_u01_r20_network.node[4].core_layer 	interests[4] 	27178
scalar tree_4_3_u01_r20_network.node[4].core_layer 	data[4] 	25491
scalar tree_4_3_u01_r20_network.node[4].content_store 	p_hit[4] 	0.062035469865332
scalar tree_4_3_u01_r20_network.node[4].content_store 	hits[4] 	1686
scalar tree_4_3_u01_r20_network.node[4].content_store 	misses[4] 	25492
scalar tree_4_3_u01_r20_network.node[4].content_store 	decision_yes[4] 	330
scalar tree_4_3_u01_r20_network.node[4].content_store 	decision_no[4] 	25161
scalar tree_4_3_u01_r20_network.node[4].content_store 	decision_ratio[4] 	0.012945745557256
scalar tree_4_3_u01_r20_network.node[5].core_layer 	interests[5] 	29777
scalar tree_4_3_u01_r20_network.node[5].core_layer 	data[5] 	26446
scalar tree_4_3_u01_r20_network.node[5].content_store 	p_hit[5] 	0.1118312791752
scalar tree_4_3_u01_r20_network.node[5].content_store 	hits[5] 	3330
scalar tree_4_3_u01_r20_network.node[5].content_store 	misses[5] 	26447
scalar tree_4_3_u01_r20_network.node[5].content_store 	decision_yes[5] 	428
scalar tree_4_3_u01_r20_network.node[5].content_store 	decision_no[5] 	26018
scalar tree_4_3_u01_r20_network.node[5].content_store 	decision_ratio[5] 	0.016183921954171
scalar tree_4_3_u01_r20_network.node[6].core_layer 	interests[6] 	28561
scalar tree_4_3_u01_r20_network.node[6].core_layer 	data[6] 	26234
scalar tree_4_3_u01_r20_network.node[6].content_store 	p_hit[6] 	0.081474738279472
scalar tree_4_3_u01_r20_network.node[6].content_store 	hits[6] 	2327
scalar tree_4_3_u01_r20_network.node[6].content_store 	misses[6] 	26234
scalar tree_4_3_u01_r20_network.node[6].content_store 	decision_yes[6] 	403
scalar tree_4_3_u01_r20_network.node[6].content_store 	decision_no[6] 	25831
scalar tree_4_3_u01_r20_network.node[6].content_store 	decision_ratio[6] 	0.015361744301288
scalar tree_4_3_u01_r20_network.node[7].core_layer 	interests[7] 	28268
scalar tree_4_3_u01_r20_network.node[7].core_layer 	data[7] 	26087
scalar tree_4_3_u01_r20_network.node[7].content_store 	p_hit[7] 	0.077119003820575
scalar tree_4_3_u01_r20_network.node[7].content_store 	hits[7] 	2180
scalar tree_4_3_u01_r20_network.node[7].content_store 	misses[7] 	26088
scalar tree_4_3_u01_r20_network.node[7].content_store 	decision_yes[7] 	388
scalar tree_4_3_u01_r20_network.node[7].content_store 	decision_no[7] 	25699
scalar tree_4_3_u01_r20_network.node[7].content_store 	decision_ratio[7] 	0.014873308544486
scalar tree_4_3_u01_r20_network.node[8].core_layer 	interests[8] 	27479
scalar tree_4_3_u01_r20_network.node[8].core_layer 	data[8] 	25326
scalar tree_4_3_u01_r20_network.node[8].content_store 	p_hit[8] 	0.078350740565523
scalar tree_4_3_u01_r20_network.node[8].content_store 	hits[8] 	2153
scalar tree_4_3_u01_r20_network.node[8].content_store 	misses[8] 	25326
scalar tree_4_3_u01_r20_network.node[8].content_store 	decision_yes[8] 	366
scalar tree_4_3_u01_r20_network.node[8].content_store 	decision_no[8] 	24960
scalar tree_4_3_u01_r20_network.node[8].content_store 	decision_ratio[8] 	0.014451551764985
scalar tree_4_3_u01_r20_network.node[9].core_layer 	interests[9] 	29082
scalar tree_4_3_u01_r20_network.node[9].core_layer 	data[9] 	26384
scalar tree_4_3_u01_r20_network.node[9].content_store 	p_hit[9] 	0.092772161474452
scalar tree_4_3_u01_r20_network.node[9].content_store 	hits[9] 	2698
scalar tree_4_3_u01_r20_network.node[9].content_store 	misses[9] 	26384
scalar tree_4_3_u01_r20_network.node[9].content_store 	decision_yes[9] 	449
scalar tree_4_3_u01_r20_network.node[9].content_store 	decision_no[9] 	25935
scalar tree_4_3_u01_r20_network.node[9].content_store 	decision_ratio[9] 	0.017017889630079
scalar tree_4_3_u01_r20_network.node[10].core_layer 	interests[10] 	28168
scalar tree_4_3_u01_r20_network.node[10].core_layer 	data[10] 	25919
scalar tree_4_3_u01_r20_network.node[10].content_store 	p_hit[10] 	0.079735870491338
scalar tree_4_3_u01_r20_network.node[10].content_store 	hits[10] 	2246
scalar tree_4_3_u01_r20_network.node[10].content_store 	misses[10] 	25922
scalar tree_4_3_u01_r20_network.node[10].content_store 	decision_yes[10] 	394
scalar tree_4_3_u01_r20_network.node[10].content_store 	decision_no[10] 	25525
scalar tree_4_3_u01_r20_network.node[10].content_store 	decision_ratio[10] 	0.015201203750145
scalar tree_4_3_u01_r20_network.node[11].core_layer 	interests[11] 	28292
scalar tree_4_3_u01_r20_network.node[11].core_layer 	data[11] 	26051
scalar tree_4_3_u01_r20_network.node[11].content_store 	p_hit[11] 	0.079209670578255
scalar tree_4_3_u01_r20_network.node[11].content_store 	hits[11] 	2241
scalar tree_4_3_u01_r20_network.node[11].content_store 	misses[11] 	26051
scalar tree_4_3_u01_r20_network.node[11].content_store 	decision_yes[11] 	361
scalar tree_4_3_u01_r20_network.node[11].content_store 	decision_no[11] 	25690
scalar tree_4_3_u01_r20_network.node[11].content_store 	decision_ratio[11] 	0.013857433495835
scalar tree_4_3_u01_r20_network.node[12].core_layer 	interests[12] 	28175
scalar tree_4_3_u01_r20_network.node[12].core_layer 	data[12] 	25963
scalar tree_4_3_u01_r20_network.node[12].content_store 	p_hit[12] 	0.078402839396628
scalar tree_4_3_u01_r20_network.node[12].content_store 	hits[12] 	2209
scalar tree_4_3_u01_r20_network.node[12].content_store 	misses[12] 	25966
scalar tree_4_3_u01_r20_network.node[12].content_store 	decision_yes[12] 	385
scalar tree_4_3_u01_r20_network.node[12].content_store 	decision_no[12] 	25578
scalar tree_4_3_u01_r20_network.node[12].content_store 	decision_ratio[12] 	0.014828794823403
scalar tree_4_3_u01_r20_network.node[13].core_layer 	interests[13] 	12566
scalar tree_4_3_u01_r20_network.node[13].core_layer 	data[13] 	9101
scalar tree_4_3_u01_r20_network.node[13].content_store 	p_hit[13] 	0.27574407130352
scalar tree_4_3_u01_r20_network.node[13].content_store 	hits[13] 	3465
scalar tree_4_3_u01_r20_network.node[13].content_store 	misses[13] 	9101
scalar tree_4_3_u01_r20_network.node[13].content_store 	decision_yes[13] 	138
scalar tree_4_3_u01_r20_network.node[13].content_store 	decision_no[13] 	8963
scalar tree_4_3_u01_r20_network.node[13].content_store 	decision_ratio[13] 	0.01516316888254
scalar tree_4_3_u01_r20_network.node[14].core_layer 	interests[14] 	12248
scalar tree_4_3_u01_r20_network.node[14].core_layer 	data[14] 	8773
scalar tree_4_3_u01_r20_network.node[14].content_store 	p_hit[14] 	0.28371979098628
scalar tree_4_3_u01_r20_network.node[14].content_store 	hits[14] 	3475
scalar tree_4_3_u01_r20_network.node[14].content_store 	misses[14] 	8773
scalar tree_4_3_u01_r20_network.node[14].content_store 	decision_yes[14] 	113
scalar tree_4_3_u01_r20_network.node[14].content_store 	decision_no[14] 	8660
scalar tree_4_3_u01_r20_network.node[14].content_store 	decision_ratio[14] 	0.012880428587712
scalar tree_4_3_u01_r20_network.node[15].core_layer 	interests[15] 	13203
scalar tree_4_3_u01_r20_network.node[15].core_layer 	data[15] 	9033
scalar tree_4_3_u01_r20_network.node[15].content_store 	p_hit[15] 	0.31583730970234
scalar tree_4_3_u01_r20_network.node[15].content_store 	hits[15] 	4170
scalar tree_4_3_u01_r20_network.node[15].content_store 	misses[15] 	9033
scalar tree_4_3_u01_r20_network.node[15].content_store 	decision_yes[15] 	139
scalar tree_4_3_u01_r20_network.node[15].content_store 	decision_no[15] 	8894
scalar tree_4_3_u01_r20_network.node[15].content_store 	decision_ratio[15] 	0.015388021698218
scalar tree_4_3_u01_r20_network.node[16].core_layer 	interests[16] 	12571
scalar tree_4_3_u01_r20_network.node[16].core_layer 	data[16] 	8918
scalar tree_4_3_u01_r20_network.node[16].content_store 	p_hit[16] 	0.29058945191313
scalar tree_4_3_u01_r20_network.node[16].content_store 	hits[16] 	3653
scalar tree_4_3_u01_r20_network.node[16].content_store 	misses[16] 	8918
scalar tree_4_3_u01_r20_network.node[16].content_store 	decision_yes[16] 	115
scalar tree_4_3_u01_r20_network.node[16].content_store 	decision_no[16] 	8803
scalar tree_4_3_u01_r20_network.node[16].content_store 	decision_ratio[16] 	0.012895267997309
scalar tree_4_3_u01_r20_network.node[17].core_layer 	interests[17] 	12602
scalar tree_4_3_u01_r20_network.node[17].core_layer 	data[17] 	8980
scalar tree_4_3_u01_r20_network.node[17].content_store 	p_hit[17] 	0.28741469607999
scalar tree_4_3_u01_r20_network.node[17].content_store 	hits[17] 	3622
scalar tree_4_3_u01_r20_network.node[17].content_store 	misses[17] 	8980
scalar tree_4_3_u01_r20_network.node[17].content_store 	decision_yes[17] 	100
scalar tree_4_3_u01_r20_network.node[17].content_store 	decision_no[17] 	8880
scalar tree_4_3_u01_r20_network.node[17].content_store 	decision_ratio[17] 	0.011135857461024
scalar tree_4_3_u01_r20_network.node[18].core_layer 	interests[18] 	12550
scalar tree_4_3_u01_r20_network.node[18].core_layer 	data[18] 	8825
scalar tree_4_3_u01_r20_network.node[18].content_store 	p_hit[18] 	0.29681274900398
scalar tree_4_3_u01_r20_network.node[18].content_store 	hits[18] 	3725
scalar tree_4_3_u01_r20_network.node[18].content_store 	misses[18] 	8825
scalar tree_4_3_u01_r20_network.node[18].content_store 	decision_yes[18] 	101
scalar tree_4_3_u01_r20_network.node[18].content_store 	decision_no[18] 	8724
scalar tree_4_3_u01_r20_network.node[18].content_store 	decision_ratio[18] 	0.011444759206799
scalar tree_4_3_u01_r20_network.node[19].core_layer 	interests[19] 	12553
scalar tree_4_3_u01_r20_network.node[19].core_layer 	data[19] 	9028
scalar tree_4_3_u01_r20_network.node[19].content_store 	p_hit[19] 	0.2808093682785
scalar tree_4_3_u01_r20_network.node[19].content_store 	hits[19] 	3525
scalar tree_4_3_u01_r20_network.node[19].content_store 	misses[19] 	9028
scalar tree_4_3_u01_r20_network.node[19].content_store 	decision_yes[19] 	111
scalar tree_4_3_u01_r20_network.node[19].content_store 	decision_no[19] 	8917
scalar tree_4_3_u01_r20_network.node[19].content_store 	decision_ratio[19] 	0.012295081967213
scalar tree_4_3_u01_r20_network.node[20].core_layer 	interests[20] 	12488
scalar tree_4_3_u01_r20_network.node[20].core_layer 	data[20] 	8876
scalar tree_4_3_u01_r20_network.node[20].content_store 	p_hit[20] 	0.28923766816143
scalar tree_4_3_u01_r20_network.node[20].content_store 	hits[20] 	3612
scalar tree_4_3_u01_r20_network.node[20].content_store 	misses[20] 	8876
scalar tree_4_3_u01_r20_network.node[20].content_store 	decision_yes[20] 	113
scalar tree_4_3_u01_r20_network.node[20].content_store 	decision_no[20] 	8763
scalar tree_4_3_u01_r20_network.node[20].content_store 	decision_ratio[20] 	0.012730959891843
scalar tree_4_3_u01_r20_network.node[21].core_layer 	interests[21] 	12475
scalar tree_4_3_u01_r20_network.node[21].core_layer 	data[21] 	8894
scalar tree_4_3_u01_r20_network.node[21].content_store 	p_hit[21] 	0.28713426853707
scalar tree_4_3_u01_r20_network.node[21].content_store 	hits[21] 	3582
scalar tree_4_3_u01_r20_network.node[21].content_store 	misses[21] 	8893
scalar tree_4_3_u01_r20_network.node[21].content_store 	decision_yes[21] 	128
scalar tree_4_3_u01_r20_network.node[21].content_store 	decision_no[21] 	8766
scalar tree_4_3_u01_r20_network.node[21].content_store 	decision_ratio[21] 	0.014391724758264
scalar tree_4_3_u01_r20_network.node[22].core_layer 	interests[22] 	12600
scalar tree_4_3_u01_r20_network.node[22].core_layer 	data[22] 	8896
scalar tree_4_3_u01_r20_network.node[22].content_store 	p_hit[22] 	0.29396825396825
scalar tree_4_3_u01_r20_network.node[22].content_store 	hits[22] 	3704
scalar tree_4_3_u01_r20_network.node[22].content_store 	misses[22] 	8896
scalar tree_4_3_u01_r20_network.node[22].content_store 	decision_yes[22] 	110
scalar tree_4_3_u01_r20_network.node[22].content_store 	decision_no[22] 	8786
scalar tree_4_3_u01_r20_network.node[22].content_store 	decision_ratio[22] 	0.012365107913669
scalar tree_4_3_u01_r20_network.node[23].core_layer 	interests[23] 	12423
scalar tree_4_3_u01_r20_network.node[23].core_layer 	data[23] 	8858
scalar tree_4_3_u01_r20_network.node[23].content_store 	p_hit[23] 	0.28696772116236
scalar tree_4_3_u01_r20_network.node[23].content_store 	hits[23] 	3565
scalar tree_4_3_u01_r20_network.node[23].content_store 	misses[23] 	8858
scalar tree_4_3_u01_r20_network.node[23].content_store 	decision_yes[23] 	103
scalar tree_4_3_u01_r20_network.node[23].content_store 	decision_no[23] 	8755
scalar tree_4_3_u01_r20_network.node[23].content_store 	decision_ratio[23] 	0.011627906976744
scalar tree_4_3_u01_r20_network.node[24].core_layer 	interests[24] 	12507
scalar tree_4_3_u01_r20_network.node[24].core_layer 	data[24] 	8933
scalar tree_4_3_u01_r20_network.node[24].content_store 	p_hit[24] 	0.28575997441433
scalar tree_4_3_u01_r20_network.node[24].content_store 	hits[24] 	3574
scalar tree_4_3_u01_r20_network.node[24].content_store 	misses[24] 	8933
scalar tree_4_3_u01_r20_network.node[24].content_store 	decision_yes[24] 	103
scalar tree_4_3_u01_r20_network.node[24].content_store 	decision_no[24] 	8830
scalar tree_4_3_u01_r20_network.node[24].content_store 	decision_ratio[24] 	0.011530280980634
scalar tree_4_3_u01_r20_network.node[25].core_layer 	interests[25] 	12326
scalar tree_4_3_u01_r20_network.node[25].core_layer 	data[25] 	8886
scalar tree_4_3_u01_r20_network.node[25].content_store 	p_hit[25] 	0.27908486126886
scalar tree_4_3_u01_r20_network.node[25].content_store 	hits[25] 	3440
scalar tree_4_3_u01_r20_network.node[25].content_store 	misses[25] 	8886
scalar tree_4_3_u01_r20_network.node[25].content_store 	decision_yes[25] 	115
scalar tree_4_3_u01_r20_network.node[25].content_store 	decision_no[25] 	8771
scalar tree_4_3_u01_r20_network.node[25].content_store 	decision_ratio[25] 	0.012941706054468
scalar tree_4_3_u01_r20_network.node[26].core_layer 	interests[26] 	12500
scalar tree_4_3_u01_r20_network.node[26].core_layer 	data[26] 	8875
scalar tree_4_3_u01_r20_network.node[26].content_store 	p_hit[26] 	0.29
scalar tree_4_3_u01_r20_network.node[26].content_store 	hits[26] 	3625
scalar tree_4_3_u01_r20_network.node[26].content_store 	misses[26] 	8875
scalar tree_4_3_u01_r20_network.node[26].content_store 	decision_yes[26] 	119
scalar tree_4_3_u01_r20_network.node[26].content_store 	decision_no[26] 	8756
scalar tree_4_3_u01_r20_network.node[26].content_store 	decision_ratio[26] 	0.013408450704225
scalar tree_4_3_u01_r20_network.node[27].core_layer 	interests[27] 	12902
scalar tree_4_3_u01_r20_network.node[27].core_layer 	data[27] 	8792
scalar tree_4_3_u01_r20_network.node[27].content_store 	p_hit[27] 	0.31855526274996
scalar tree_4_3_u01_r20_network.node[27].content_store 	hits[27] 	4110
scalar tree_4_3_u01_r20_network.node[27].content_store 	misses[27] 	8792
scalar tree_4_3_u01_r20_network.node[27].content_store 	decision_yes[27] 	119
scalar tree_4_3_u01_r20_network.node[27].content_store 	decision_no[27] 	8673
scalar tree_4_3_u01_r20_network.node[27].content_store 	decision_ratio[27] 	0.013535031847134
scalar tree_4_3_u01_r20_network.node[28].core_layer 	interests[28] 	12510
scalar tree_4_3_u01_r20_network.node[28].core_layer 	data[28] 	8926
scalar tree_4_3_u01_r20_network.node[28].content_store 	p_hit[28] 	0.28649080735412
scalar tree_4_3_u01_r20_network.node[28].content_store 	hits[28] 	3584
scalar tree_4_3_u01_r20_network.node[28].content_store 	misses[28] 	8926
scalar tree_4_3_u01_r20_network.node[28].content_store 	decision_yes[28] 	120
scalar tree_4_3_u01_r20_network.node[28].content_store 	decision_no[28] 	8806
scalar tree_4_3_u01_r20_network.node[28].content_store 	decision_ratio[28] 	0.013443871835089
scalar tree_4_3_u01_r20_network.node[29].core_layer 	interests[29] 	12765
scalar tree_4_3_u01_r20_network.node[29].core_layer 	data[29] 	9041
scalar tree_4_3_u01_r20_network.node[29].content_store 	p_hit[29] 	0.29173521347434
scalar tree_4_3_u01_r20_network.node[29].content_store 	hits[29] 	3724
scalar tree_4_3_u01_r20_network.node[29].content_store 	misses[29] 	9041
scalar tree_4_3_u01_r20_network.node[29].content_store 	decision_yes[29] 	123
scalar tree_4_3_u01_r20_network.node[29].content_store 	decision_no[29] 	8918
scalar tree_4_3_u01_r20_network.node[29].content_store 	decision_ratio[29] 	0.013604689746709
scalar tree_4_3_u01_r20_network.node[30].core_layer 	interests[30] 	12474
scalar tree_4_3_u01_r20_network.node[30].core_layer 	data[30] 	8825
scalar tree_4_3_u01_r20_network.node[30].content_store 	p_hit[30] 	0.29252845919513
scalar tree_4_3_u01_r20_network.node[30].content_store 	hits[30] 	3649
scalar tree_4_3_u01_r20_network.node[30].content_store 	misses[30] 	8825
scalar tree_4_3_u01_r20_network.node[30].content_store 	decision_yes[30] 	126
scalar tree_4_3_u01_r20_network.node[30].content_store 	decision_no[30] 	8699
scalar tree_4_3_u01_r20_network.node[30].content_store 	decision_ratio[30] 	0.014277620396601
scalar tree_4_3_u01_r20_network.node[31].core_layer 	interests[31] 	12446
scalar tree_4_3_u01_r20_network.node[31].core_layer 	data[31] 	8828
scalar tree_4_3_u01_r20_network.node[31].content_store 	p_hit[31] 	0.29069580588141
scalar tree_4_3_u01_r20_network.node[31].content_store 	hits[31] 	3618
scalar tree_4_3_u01_r20_network.node[31].content_store 	misses[31] 	8828
scalar tree_4_3_u01_r20_network.node[31].content_store 	decision_yes[31] 	121
scalar tree_4_3_u01_r20_network.node[31].content_store 	decision_no[31] 	8707
scalar tree_4_3_u01_r20_network.node[31].content_store 	decision_ratio[31] 	0.013706388763027
scalar tree_4_3_u01_r20_network.node[32].core_layer 	interests[32] 	12491
scalar tree_4_3_u01_r20_network.node[32].core_layer 	data[32] 	8942
scalar tree_4_3_u01_r20_network.node[32].content_store 	p_hit[32] 	0.28404451204868
scalar tree_4_3_u01_r20_network.node[32].content_store 	hits[32] 	3548
scalar tree_4_3_u01_r20_network.node[32].content_store 	misses[32] 	8943
scalar tree_4_3_u01_r20_network.node[32].content_store 	decision_yes[32] 	133
scalar tree_4_3_u01_r20_network.node[32].content_store 	decision_no[32] 	8809
scalar tree_4_3_u01_r20_network.node[32].content_store 	decision_ratio[32] 	0.014873630060389
scalar tree_4_3_u01_r20_network.node[33].core_layer 	interests[33] 	12419
scalar tree_4_3_u01_r20_network.node[33].core_layer 	data[33] 	8860
scalar tree_4_3_u01_r20_network.node[33].content_store 	p_hit[33] 	0.28649649730252
scalar tree_4_3_u01_r20_network.node[33].content_store 	hits[33] 	3558
scalar tree_4_3_u01_r20_network.node[33].content_store 	misses[33] 	8861
scalar tree_4_3_u01_r20_network.node[33].content_store 	decision_yes[33] 	130
scalar tree_4_3_u01_r20_network.node[33].content_store 	decision_no[33] 	8730
scalar tree_4_3_u01_r20_network.node[33].content_store 	decision_ratio[33] 	0.014672686230248
scalar tree_4_3_u01_r20_network.node[34].core_layer 	interests[34] 	12647
scalar tree_4_3_u01_r20_network.node[34].core_layer 	data[34] 	9008
scalar tree_4_3_u01_r20_network.node[34].content_store 	p_hit[34] 	0.28765715189373
scalar tree_4_3_u01_r20_network.node[34].content_store 	hits[34] 	3638
scalar tree_4_3_u01_r20_network.node[34].content_store 	misses[34] 	9009
scalar tree_4_3_u01_r20_network.node[34].content_store 	decision_yes[34] 	133
scalar tree_4_3_u01_r20_network.node[34].content_store 	decision_no[34] 	8875
scalar tree_4_3_u01_r20_network.node[34].content_store 	decision_ratio[34] 	0.014764653641208
scalar tree_4_3_u01_r20_network.node[35].core_layer 	interests[35] 	12426
scalar tree_4_3_u01_r20_network.node[35].core_layer 	data[35] 	8784
scalar tree_4_3_u01_r20_network.node[35].content_store 	p_hit[35] 	0.29309512312892
scalar tree_4_3_u01_r20_network.node[35].content_store 	hits[35] 	3642
scalar tree_4_3_u01_r20_network.node[35].content_store 	misses[35] 	8784
scalar tree_4_3_u01_r20_network.node[35].content_store 	decision_yes[35] 	107
scalar tree_4_3_u01_r20_network.node[35].content_store 	decision_no[35] 	8677
scalar tree_4_3_u01_r20_network.node[35].content_store 	decision_ratio[35] 	0.012181238615665
scalar tree_4_3_u01_r20_network.node[36].core_layer 	interests[36] 	12557
scalar tree_4_3_u01_r20_network.node[36].core_layer 	data[36] 	9034
scalar tree_4_3_u01_r20_network.node[36].content_store 	p_hit[36] 	0.2805606434658
scalar tree_4_3_u01_r20_network.node[36].content_store 	hits[36] 	3523
scalar tree_4_3_u01_r20_network.node[36].content_store 	misses[36] 	9034
scalar tree_4_3_u01_r20_network.node[36].content_store 	decision_yes[36] 	142
scalar tree_4_3_u01_r20_network.node[36].content_store 	decision_no[36] 	8892
scalar tree_4_3_u01_r20_network.node[36].content_store 	decision_ratio[36] 	0.015718397166261
scalar tree_4_3_u01_r20_network.node[37].core_layer 	interests[37] 	12459
scalar tree_4_3_u01_r20_network.node[37].core_layer 	data[37] 	8917
scalar tree_4_3_u01_r20_network.node[37].content_store 	p_hit[37] 	0.28429247933221
scalar tree_4_3_u01_r20_network.node[37].content_store 	hits[37] 	3542
scalar tree_4_3_u01_r20_network.node[37].content_store 	misses[37] 	8917
scalar tree_4_3_u01_r20_network.node[37].content_store 	decision_yes[37] 	123
scalar tree_4_3_u01_r20_network.node[37].content_store 	decision_no[37] 	8794
scalar tree_4_3_u01_r20_network.node[37].content_store 	decision_ratio[37] 	0.013793876864416
scalar tree_4_3_u01_r20_network.node[38].core_layer 	interests[38] 	12320
scalar tree_4_3_u01_r20_network.node[38].core_layer 	data[38] 	8779
scalar tree_4_3_u01_r20_network.node[38].content_store 	p_hit[38] 	0.28741883116883
scalar tree_4_3_u01_r20_network.node[38].content_store 	hits[38] 	3541
scalar tree_4_3_u01_r20_network.node[38].content_store 	misses[38] 	8779
scalar tree_4_3_u01_r20_network.node[38].content_store 	decision_yes[38] 	118
scalar tree_4_3_u01_r20_network.node[38].content_store 	decision_no[38] 	8661
scalar tree_4_3_u01_r20_network.node[38].content_store 	decision_ratio[38] 	0.013441166419866
scalar tree_4_3_u01_r20_network.node[39].core_layer 	interests[39] 	12648
scalar tree_4_3_u01_r20_network.node[39].core_layer 	data[39] 	8955
scalar tree_4_3_u01_r20_network.node[39].content_store 	p_hit[39] 	0.29190385831752
scalar tree_4_3_u01_r20_network.node[39].content_store 	hits[39] 	3692
scalar tree_4_3_u01_r20_network.node[39].content_store 	misses[39] 	8956
scalar tree_4_3_u01_r20_network.node[39].content_store 	decision_yes[39] 	114
scalar tree_4_3_u01_r20_network.node[39].content_store 	decision_no[39] 	8841
scalar tree_4_3_u01_r20_network.node[39].content_store 	decision_ratio[39] 	0.012730318257956
scalar tree_4_3_u01_r20_network.client[13] 	hdistance[13] 	2.765263588067
scalar tree_4_3_u01_r20_network.client[13] 	downloads[13] 	12235
scalar tree_4_3_u01_r20_network.client[13] 	avg_time[13] 	0.00428362978
scalar tree_4_3_u01_r20_network.client[14] 	hdistance[14] 	2.7404072702794
scalar tree_4_3_u01_r20_network.client[14] 	downloads[14] 	11884
scalar tree_4_3_u01_r20_network.client[14] 	avg_time[14] 	0.004251517119
scalar tree_4_3_u01_r20_network.client[15] 	hdistance[15] 	2.6772731019702
scalar tree_4_3_u01_r20_network.client[15] 	downloads[15] 	12131
scalar tree_4_3_u01_r20_network.client[15] 	avg_time[15] 	0.00413601213
scalar tree_4_3_u01_r20_network.client[16] 	hdistance[16] 	2.7205956587582
scalar tree_4_3_u01_r20_network.client[16] 	downloads[16] 	11886
scalar tree_4_3_u01_r20_network.client[16] 	avg_time[16] 	0.004277634574
scalar tree_4_3_u01_r20_network.client[17] 	hdistance[17] 	2.7392140468227
scalar tree_4_3_u01_r20_network.client[17] 	downloads[17] 	11960
scalar tree_4_3_u01_r20_network.client[17] 	avg_time[17] 	0.004304768154
scalar tree_4_3_u01_r20_network.client[18] 	hdistance[18] 	2.7118828451883
scalar tree_4_3_u01_r20_network.client[18] 	downloads[18] 	11950
scalar tree_4_3_u01_r20_network.client[18] 	avg_time[18] 	0.004258741794
scalar tree_4_3_u01_r20_network.client[19] 	hdistance[19] 	2.7414063144011
scalar tree_4_3_u01_r20_network.client[19] 	downloads[19] 	12131
scalar tree_4_3_u01_r20_network.client[19] 	avg_time[19] 	0.004242351264
scalar tree_4_3_u01_r20_network.client[20] 	hdistance[20] 	2.7164487837167
scalar tree_4_3_u01_r20_network.client[20] 	downloads[20] 	12086
scalar tree_4_3_u01_r20_network.client[20] 	avg_time[20] 	0.004204263403
scalar tree_4_3_u01_r20_network.client[21] 	hdistance[21] 	2.7270308472603
scalar tree_4_3_u01_r20_network.client[21] 	downloads[21] 	12027
scalar tree_4_3_u01_r20_network.client[21] 	avg_time[21] 	0.004220500856
scalar tree_4_3_u01_r20_network.client[22] 	hdistance[22] 	2.7101676715949
scalar tree_4_3_u01_r20_network.client[22] 	downloads[22] 	12107
scalar tree_4_3_u01_r20_network.client[22] 	avg_time[22] 	0.004230772571
scalar tree_4_3_u01_r20_network.client[23] 	hdistance[23] 	2.7321666666667
scalar tree_4_3_u01_r20_network.client[23] 	downloads[23] 	12000
scalar tree_4_3_u01_r20_network.client[23] 	avg_time[23] 	0.004262213074
scalar tree_4_3_u01_r20_network.client[24] 	hdistance[24] 	2.7488979456043
scalar tree_4_3_u01_r20_network.client[24] 	downloads[24] 	12023
scalar tree_4_3_u01_r20_network.client[24] 	avg_time[24] 	0.004283120993
scalar tree_4_3_u01_r20_network.client[25] 	hdistance[25] 	2.7488004040744
scalar tree_4_3_u01_r20_network.client[25] 	downloads[25] 	11879
scalar tree_4_3_u01_r20_network.client[25] 	avg_time[25] 	0.004289415304
scalar tree_4_3_u01_r20_network.client[26] 	hdistance[26] 	2.6989078272381
scalar tree_4_3_u01_r20_network.client[26] 	downloads[26] 	12086
scalar tree_4_3_u01_r20_network.client[26] 	avg_time[26] 	0.004211977775
scalar tree_4_3_u01_r20_network.client[27] 	hdistance[27] 	2.6654917757637
scalar tree_4_3_u01_r20_network.client[27] 	downloads[27] 	11916
scalar tree_4_3_u01_r20_network.client[27] 	avg_time[27] 	0.004129570674
scalar tree_4_3_u01_r20_network.client[28] 	hdistance[28] 	2.7315425043797
scalar tree_4_3_u01_r20_network.client[28] 	downloads[28] 	11987
scalar tree_4_3_u01_r20_network.client[28] 	avg_time[28] 	0.004251899902
scalar tree_4_3_u01_r20_network.client[29] 	hdistance[29] 	2.7067453487419
scalar tree_4_3_u01_r20_network.client[29] 	downloads[29] 	12201
scalar tree_4_3_u01_r20_network.client[29] 	avg_time[29] 	0.004218995415
scalar tree_4_3_u01_r20_network.client[30] 	hdistance[30] 	2.7203190596138
scalar tree_4_3_u01_r20_network.client[30] 	downloads[30] 	11910
scalar tree_4_3_u01_r20_network.client[30] 	avg_time[30] 	0.004238822211
scalar tree_4_3_u01_r20_network.client[31] 	hdistance[31] 	2.7322144288577
scalar tree_4_3_u01_r20_network.client[31] 	downloads[31] 	11976
scalar tree_4_3_u01_r20_network.client[31] 	avg_time[31] 	0.004235351424
scalar tree_4_3_u01_r20_network.client[32] 	hdistance[32] 	2.7559370052496
scalar tree_4_3_u01_r20_network.client[32] 	downloads[32] 	12001
scalar tree_4_3_u01_r20_network.client[32] 	avg_time[32] 	0.004279905379
scalar tree_4_3_u01_r20_network.client[33] 	hdistance[33] 	2.7399598393574
scalar tree_4_3_u01_r20_network.client[33] 	downloads[33] 	11952
scalar tree_4_3_u01_r20_network.client[33] 	avg_time[33] 	0.004255686458
scalar tree_4_3_u01_r20_network.client[34] 	hdistance[34] 	2.7253758317588
scalar tree_4_3_u01_r20_network.client[34] 	downloads[34] 	12173
scalar tree_4_3_u01_r20_network.client[34] 	avg_time[34] 	0.004233837215
scalar tree_4_3_u01_r20_network.client[35] 	hdistance[35] 	2.7243396857238
scalar tree_4_3_u01_r20_network.client[35] 	downloads[35] 	11964
scalar tree_4_3_u01_r20_network.client[35] 	avg_time[35] 	0.004221662004
scalar tree_4_3_u01_r20_network.client[36] 	hdistance[36] 	2.7529752066116
scalar tree_4_3_u01_r20_network.client[36] 	downloads[36] 	12100
scalar tree_4_3_u01_r20_network.client[36] 	avg_time[36] 	0.004279501088
scalar tree_4_3_u01_r20_network.client[37] 	hdistance[37] 	2.7456359102244
scalar tree_4_3_u01_r20_network.client[37] 	downloads[37] 	12030
scalar tree_4_3_u01_r20_network.client[37] 	avg_time[37] 	0.004256854817
scalar tree_4_3_u01_r20_network.client[38] 	hdistance[38] 	2.7480121806801
scalar tree_4_3_u01_r20_network.client[38] 	downloads[38] 	11822
scalar tree_4_3_u01_r20_network.client[38] 	avg_time[38] 	0.004263625203
scalar tree_4_3_u01_r20_network.client[39] 	hdistance[39] 	2.736646884273
scalar tree_4_3_u01_r20_network.client[39] 	downloads[39] 	12132
scalar tree_4_3_u01_r20_network.client[39] 	avg_time[39] 	0.004244189513
