version 2
run General-30-20160902-12:01:41-7280
attr a 0.9
attr cd wfc0.01
attr configname General
attr cr lru
attr datetime 20160902-12:01:41
attr experiment General
attr fsize 1
attr inifile hw5115/scenario_Y/omnetp.ini
attr iterationvars "$name=tree_4_3, $un=01, $rep=11, $cd=wfc0.01, $cr=lru, $fsize=1, $a=0.9, $sl=nrr, $ttl=1000, $variance=0.05"
attr iterationvars2 "$name=tree_4_3, $un=01, $rep=11, $cd=wfc0.01, $cr=lru, $fsize=1, $a=0.9, $sl=nrr, $ttl=1000, $variance=0.05, $repetition=0"
attr measurement "$name=tree_4_3, $un=01, $rep=11, $cd=wfc0.01, $cr=lru, $fsize=1, $a=0.9, $sl=nrr, $ttl=1000, $variance=0.05"
attr name tree_4_3
attr network networks.${name}_u${un}_r${rep}_network
attr processid 7280
attr rep 11
attr repetition 0
attr replication #0
attr resultdir results
attr runnumber 30
attr seedset 11
attr sl nrr
attr ttl 1000
attr un 01
attr variance 0.05

scalar . 	a 	0.9
scalar . 	fsize 	1
scalar . 	rep 	11
scalar . 	ttl 	1000
scalar . 	un 	01
scalar . 	variance 	0.05
scalar tree_4_3_u01_r11_network.content_distribution 	repo-0 	0
scalar tree_4_3_u01_r11_network.content_distribution 	client-0 	13
scalar tree_4_3_u01_r11_network.content_distribution 	client-1 	14
scalar tree_4_3_u01_r11_network.content_distribution 	client-2 	15
scalar tree_4_3_u01_r11_network.content_distribution 	client-3 	16
scalar tree_4_3_u01_r11_network.content_distribution 	client-4 	17
scalar tree_4_3_u01_r11_network.content_distribution 	client-5 	18
scalar tree_4_3_u01_r11_network.content_distribution 	client-6 	19
scalar tree_4_3_u01_r11_network.content_distribution 	client-7 	20
scalar tree_4_3_u01_r11_network.content_distribution 	client-8 	21
scalar tree_4_3_u01_r11_network.content_distribution 	client-9 	22
scalar tree_4_3_u01_r11_network.content_distribution 	client-10 	23
scalar tree_4_3_u01_r11_network.content_distribution 	client-11 	24
scalar tree_4_3_u01_r11_network.content_distribution 	client-12 	25
scalar tree_4_3_u01_r11_network.content_distribution 	client-13 	26
scalar tree_4_3_u01_r11_network.content_distribution 	client-14 	27
scalar tree_4_3_u01_r11_network.content_distribution 	client-15 	28
scalar tree_4_3_u01_r11_network.content_distribution 	client-16 	29
scalar tree_4_3_u01_r11_network.content_distribution 	client-17 	30
scalar tree_4_3_u01_r11_network.content_distribution 	client-18 	31
scalar tree_4_3_u01_r11_network.content_distribution 	client-19 	32
scalar tree_4_3_u01_r11_network.content_distribution 	client-20 	33
scalar tree_4_3_u01_r11_network.content_distribution 	client-21 	34
scalar tree_4_3_u01_r11_network.content_distribution 	client-22 	35
scalar tree_4_3_u01_r11_network.content_distribution 	client-23 	36
scalar tree_4_3_u01_r11_network.content_distribution 	client-24 	37
scalar tree_4_3_u01_r11_network.content_distribution 	client-25 	38
scalar tree_4_3_u01_r11_network.content_distribution 	client-26 	39
scalar tree_4_3_u01_r11_network.content_distribution 	repo-0_card 	100000
scalar tree_4_3_u01_r11_network.content_distribution 	repo-0_price 	0
scalar tree_4_3_u01_r11_network.statistics 	stabilization_time 	1048.8
scalar tree_4_3_u01_r11_network.statistics 	p_hit 	0.21657405135032
scalar tree_4_3_u01_r11_network.statistics 	interests 	25330.075
scalar tree_4_3_u01_r11_network.statistics 	data 	17210.675
scalar tree_4_3_u01_r11_network.statistics 	hdistance 	2.7263944340637
scalar tree_4_3_u01_r11_network.statistics 	avg_time 	0.004239426181
scalar tree_4_3_u01_r11_network.statistics 	downloads 	324775
scalar tree_4_3_u01_r11_network.statistics 	total_cost 	0
scalar tree_4_3_u01_r11_network.statistics 	total_replicas 	100000
scalar tree_4_3_u01_r11_network.statistics 	inner_hit 	0.39338619043954
scalar tree_4_3_u01_r11_network.node[0].core_layer 	interests[0] 	199879
scalar tree_4_3_u01_r11_network.node[0].core_layer 	repo_load[0] 	197013
scalar tree_4_3_u01_r11_network.node[0].core_layer 	data[0] 	0
scalar tree_4_3_u01_r11_network.node[0].core_layer 	repo_int[0] 	197013
scalar tree_4_3_u01_r11_network.node[0].content_store 	p_hit[0] 	0.014338674898313
scalar tree_4_3_u01_r11_network.node[0].content_store 	hits[0] 	2866
scalar tree_4_3_u01_r11_network.node[0].content_store 	misses[0] 	197013
scalar tree_4_3_u01_r11_network.node[0].content_store 	decision_yes[0] 	3131
scalar tree_4_3_u01_r11_network.node[0].content_store 	decision_no[0] 	193882
scalar tree_4_3_u01_r11_network.node[0].content_store 	decision_ratio[0] 	0.015892352281322
scalar tree_4_3_u01_r11_network.node[1].core_layer 	interests[1] 	96409
scalar tree_4_3_u01_r11_network.node[1].core_layer 	data[1] 	94131
scalar tree_4_3_u01_r11_network.node[1].content_store 	p_hit[1] 	0.02358700951156
scalar tree_4_3_u01_r11_network.node[1].content_store 	hits[1] 	2274
scalar tree_4_3_u01_r11_network.node[1].content_store 	misses[1] 	94135
scalar tree_4_3_u01_r11_network.node[1].content_store 	decision_yes[1] 	1080
scalar tree_4_3_u01_r11_network.node[1].content_store 	decision_no[1] 	93051
scalar tree_4_3_u01_r11_network.node[1].content_store 	decision_ratio[1] 	0.011473372215317
scalar tree_4_3_u01_r11_network.node[2].core_layer 	interests[2] 	72762
scalar tree_4_3_u01_r11_network.node[2].core_layer 	data[2] 	71143
scalar tree_4_3_u01_r11_network.node[2].content_store 	p_hit[2] 	0.022209395013881
scalar tree_4_3_u01_r11_network.node[2].content_store 	hits[2] 	1616
scalar tree_4_3_u01_r11_network.node[2].content_store 	misses[2] 	71146
scalar tree_4_3_u01_r11_network.node[2].content_store 	decision_yes[2] 	832
scalar tree_4_3_u01_r11_network.node[2].content_store 	decision_no[2] 	70311
scalar tree_4_3_u01_r11_network.node[2].content_store 	decision_ratio[2] 	0.011694755633021
scalar tree_4_3_u01_r11_network.node[3].core_layer 	interests[3] 	50693
scalar tree_4_3_u01_r11_network.node[3].core_layer 	data[3] 	48765
scalar tree_4_3_u01_r11_network.node[3].content_store 	p_hit[3] 	0.038013137908587
scalar tree_4_3_u01_r11_network.node[3].content_store 	hits[3] 	1927
scalar tree_4_3_u01_r11_network.node[3].content_store 	misses[3] 	48766
scalar tree_4_3_u01_r11_network.node[3].content_store 	decision_yes[3] 	621
scalar tree_4_3_u01_r11_network.node[3].content_store 	decision_no[3] 	48144
scalar tree_4_3_u01_r11_network.node[3].content_store 	decision_ratio[3] 	0.012734543217472
scalar tree_4_3_u01_r11_network.node[4].core_layer 	interests[4] 	27464
scalar tree_4_3_u01_r11_network.node[4].core_layer 	data[4] 	25386
scalar tree_4_3_u01_r11_network.node[4].content_store 	p_hit[4] 	0.075662685697641
scalar tree_4_3_u01_r11_network.node[4].content_store 	hits[4] 	2078
scalar tree_4_3_u01_r11_network.node[4].content_store 	misses[4] 	25386
scalar tree_4_3_u01_r11_network.node[4].content_store 	decision_yes[4] 	377
scalar tree_4_3_u01_r11_network.node[4].content_store 	decision_no[4] 	25009
scalar tree_4_3_u01_r11_network.node[4].content_store 	decision_ratio[4] 	0.014850705113054
scalar tree_4_3_u01_r11_network.node[5].core_layer 	interests[5] 	29230
scalar tree_4_3_u01_r11_network.node[5].core_layer 	data[5] 	26475
scalar tree_4_3_u01_r11_network.node[5].content_store 	p_hit[5] 	0.094218268901813
scalar tree_4_3_u01_r11_network.node[5].content_store 	hits[5] 	2754
scalar tree_4_3_u01_r11_network.node[5].content_store 	misses[5] 	26476
scalar tree_4_3_u01_r11_network.node[5].content_store 	decision_yes[5] 	430
scalar tree_4_3_u01_r11_network.node[5].content_store 	decision_no[5] 	26045
scalar tree_4_3_u01_r11_network.node[5].content_store 	decision_ratio[5] 	0.016241737488196
scalar tree_4_3_u01_r11_network.node[6].core_layer 	interests[6] 	28351
scalar tree_4_3_u01_r11_network.node[6].core_layer 	data[6] 	26154
scalar tree_4_3_u01_r11_network.node[6].content_store 	p_hit[6] 	0.077492857394801
scalar tree_4_3_u01_r11_network.node[6].content_store 	hits[6] 	2197
scalar tree_4_3_u01_r11_network.node[6].content_store 	misses[6] 	26154
scalar tree_4_3_u01_r11_network.node[6].content_store 	decision_yes[6] 	421
scalar tree_4_3_u01_r11_network.node[6].content_store 	decision_no[6] 	25733
scalar tree_4_3_u01_r11_network.node[6].content_store 	decision_ratio[6] 	0.016096964135505
scalar tree_4_3_u01_r11_network.node[7].core_layer 	interests[7] 	27446
scalar tree_4_3_u01_r11_network.node[7].core_layer 	data[7] 	25479
scalar tree_4_3_u01_r11_network.node[7].content_store 	p_hit[7] 	0.071631567441522
scalar tree_4_3_u01_r11_network.node[7].content_store 	hits[7] 	1966
scalar tree_4_3_u01_r11_network.node[7].content_store 	misses[7] 	25480
scalar tree_4_3_u01_r11_network.node[7].content_store 	decision_yes[7] 	346
scalar tree_4_3_u01_r11_network.node[7].content_store 	decision_no[7] 	25133
scalar tree_4_3_u01_r11_network.node[7].content_store 	decision_ratio[7] 	0.013579810824601
scalar tree_4_3_u01_r11_network.node[8].core_layer 	interests[8] 	28595
scalar tree_4_3_u01_r11_network.node[8].core_layer 	data[8] 	25941
scalar tree_4_3_u01_r11_network.node[8].content_store 	p_hit[8] 	0.092848400069942
scalar tree_4_3_u01_r11_network.node[8].content_store 	hits[8] 	2655
scalar tree_4_3_u01_r11_network.node[8].content_store 	misses[8] 	25940
scalar tree_4_3_u01_r11_network.node[8].content_store 	decision_yes[8] 	421
scalar tree_4_3_u01_r11_network.node[8].content_store 	decision_no[8] 	25520
scalar tree_4_3_u01_r11_network.node[8].content_store 	decision_ratio[8] 	0.016229135345592
scalar tree_4_3_u01_r11_network.node[9].core_layer 	interests[9] 	27829
scalar tree_4_3_u01_r11_network.node[9].core_layer 	data[9] 	25856
scalar tree_4_3_u01_r11_network.node[9].content_store 	p_hit[9] 	0.070897265442524
scalar tree_4_3_u01_r11_network.node[9].content_store 	hits[9] 	1973
scalar tree_4_3_u01_r11_network.node[9].content_store 	misses[9] 	25856
scalar tree_4_3_u01_r11_network.node[9].content_store 	decision_yes[9] 	403
scalar tree_4_3_u01_r11_network.node[9].content_store 	decision_no[9] 	25453
scalar tree_4_3_u01_r11_network.node[9].content_store 	decision_ratio[9] 	0.015586324257426
scalar tree_4_3_u01_r11_network.node[10].core_layer 	interests[10] 	30154
scalar tree_4_3_u01_r11_network.node[10].core_layer 	data[10] 	26804
scalar tree_4_3_u01_r11_network.node[10].content_store 	p_hit[10] 	0.11109637195729
scalar tree_4_3_u01_r11_network.node[10].content_store 	hits[10] 	3350
scalar tree_4_3_u01_r11_network.node[10].content_store 	misses[10] 	26804
scalar tree_4_3_u01_r11_network.node[10].content_store 	decision_yes[10] 	482
scalar tree_4_3_u01_r11_network.node[10].content_store 	decision_no[10] 	26322
scalar tree_4_3_u01_r11_network.node[10].content_store 	decision_ratio[10] 	0.017982390687957
scalar tree_4_3_u01_r11_network.node[11].core_layer 	interests[11] 	27977
scalar tree_4_3_u01_r11_network.node[11].core_layer 	data[11] 	26152
scalar tree_4_3_u01_r11_network.node[11].content_store 	p_hit[11] 	0.065232154984452
scalar tree_4_3_u01_r11_network.node[11].content_store 	hits[11] 	1825
scalar tree_4_3_u01_r11_network.node[11].content_store 	misses[11] 	26152
scalar tree_4_3_u01_r11_network.node[11].content_store 	decision_yes[11] 	338
scalar tree_4_3_u01_r11_network.node[11].content_store 	decision_no[11] 	25814
scalar tree_4_3_u01_r11_network.node[11].content_store 	decision_ratio[11] 	0.012924441725298
scalar tree_4_3_u01_r11_network.node[12].core_layer 	interests[12] 	27566
scalar tree_4_3_u01_r11_network.node[12].core_layer 	data[12] 	25689
scalar tree_4_3_u01_r11_network.node[12].content_store 	p_hit[12] 	0.068091126750345
scalar tree_4_3_u01_r11_network.node[12].content_store 	hits[12] 	1877
scalar tree_4_3_u01_r11_network.node[12].content_store 	misses[12] 	25689
scalar tree_4_3_u01_r11_network.node[12].content_store 	decision_yes[12] 	397
scalar tree_4_3_u01_r11_network.node[12].content_store 	decision_no[12] 	25292
scalar tree_4_3_u01_r11_network.node[12].content_store 	decision_ratio[12] 	0.015454085406205
scalar tree_4_3_u01_r11_network.node[13].core_layer 	interests[13] 	12391
scalar tree_4_3_u01_r11_network.node[13].core_layer 	data[13] 	8894
scalar tree_4_3_u01_r11_network.node[13].content_store 	p_hit[13] 	0.28222096683076
scalar tree_4_3_u01_r11_network.node[13].content_store 	hits[13] 	3497
scalar tree_4_3_u01_r11_network.node[13].content_store 	misses[13] 	8894
scalar tree_4_3_u01_r11_network.node[13].content_store 	decision_yes[13] 	118
scalar tree_4_3_u01_r11_network.node[13].content_store 	decision_no[13] 	8776
scalar tree_4_3_u01_r11_network.node[13].content_store 	decision_ratio[13] 	0.013267371261525
scalar tree_4_3_u01_r11_network.node[14].core_layer 	interests[14] 	13057
scalar tree_4_3_u01_r11_network.node[14].core_layer 	data[14] 	8871
scalar tree_4_3_u01_r11_network.node[14].content_store 	p_hit[14] 	0.32059431722448
scalar tree_4_3_u01_r11_network.node[14].content_store 	hits[14] 	4186
scalar tree_4_3_u01_r11_network.node[14].content_store 	misses[14] 	8871
scalar tree_4_3_u01_r11_network.node[14].content_store 	decision_yes[14] 	145
scalar tree_4_3_u01_r11_network.node[14].content_store 	decision_no[14] 	8726
scalar tree_4_3_u01_r11_network.node[14].content_store 	decision_ratio[14] 	0.016345395107654
scalar tree_4_3_u01_r11_network.node[15].core_layer 	interests[15] 	12438
scalar tree_4_3_u01_r11_network.node[15].core_layer 	data[15] 	8837
scalar tree_4_3_u01_r11_network.node[15].content_store 	p_hit[15] 	0.28951599935681
scalar tree_4_3_u01_r11_network.node[15].content_store 	hits[15] 	3601
scalar tree_4_3_u01_r11_network.node[15].content_store 	misses[15] 	8837
scalar tree_4_3_u01_r11_network.node[15].content_store 	decision_yes[15] 	115
scalar tree_4_3_u01_r11_network.node[15].content_store 	decision_no[15] 	8722
scalar tree_4_3_u01_r11_network.node[15].content_store 	decision_ratio[15] 	0.013013466108408
scalar tree_4_3_u01_r11_network.node[16].core_layer 	interests[16] 	12617
scalar tree_4_3_u01_r11_network.node[16].core_layer 	data[16] 	9004
scalar tree_4_3_u01_r11_network.node[16].content_store 	p_hit[16] 	0.28635967345645
scalar tree_4_3_u01_r11_network.node[16].content_store 	hits[16] 	3613
scalar tree_4_3_u01_r11_network.node[16].content_store 	misses[16] 	9004
scalar tree_4_3_u01_r11_network.node[16].content_store 	decision_yes[16] 	120
scalar tree_4_3_u01_r11_network.node[16].content_store 	decision_no[16] 	8884
scalar tree_4_3_u01_r11_network.node[16].content_store 	decision_ratio[16] 	0.013327410039982
scalar tree_4_3_u01_r11_network.node[17].core_layer 	interests[17] 	12413
scalar tree_4_3_u01_r11_network.node[17].core_layer 	data[17] 	8836
scalar tree_4_3_u01_r11_network.node[17].content_store 	p_hit[17] 	0.28808507210183
scalar tree_4_3_u01_r11_network.node[17].content_store 	hits[17] 	3576
scalar tree_4_3_u01_r11_network.node[17].content_store 	misses[17] 	8837
scalar tree_4_3_u01_r11_network.node[17].content_store 	decision_yes[17] 	123
scalar tree_4_3_u01_r11_network.node[17].content_store 	decision_no[17] 	8713
scalar tree_4_3_u01_r11_network.node[17].content_store 	decision_ratio[17] 	0.013920325939339
scalar tree_4_3_u01_r11_network.node[18].core_layer 	interests[18] 	12577
scalar tree_4_3_u01_r11_network.node[18].core_layer 	data[18] 	8935
scalar tree_4_3_u01_r11_network.node[18].content_store 	p_hit[18] 	0.28957621054305
scalar tree_4_3_u01_r11_network.node[18].content_store 	hits[18] 	3642
scalar tree_4_3_u01_r11_network.node[18].content_store 	misses[18] 	8935
scalar tree_4_3_u01_r11_network.node[18].content_store 	decision_yes[18] 	115
scalar tree_4_3_u01_r11_network.node[18].content_store 	decision_no[18] 	8820
scalar tree_4_3_u01_r11_network.node[18].content_store 	decision_ratio[18] 	0.012870733072188
scalar tree_4_3_u01_r11_network.node[19].core_layer 	interests[19] 	12653
scalar tree_4_3_u01_r11_network.node[19].core_layer 	data[19] 	8959
scalar tree_4_3_u01_r11_network.node[19].content_store 	p_hit[19] 	0.29194657393504
scalar tree_4_3_u01_r11_network.node[19].content_store 	hits[19] 	3694
scalar tree_4_3_u01_r11_network.node[19].content_store 	misses[19] 	8959
scalar tree_4_3_u01_r11_network.node[19].content_store 	decision_yes[19] 	129
scalar tree_4_3_u01_r11_network.node[19].content_store 	decision_no[19] 	8830
scalar tree_4_3_u01_r11_network.node[19].content_store 	decision_ratio[19] 	0.014398928451836
scalar tree_4_3_u01_r11_network.node[20].core_layer 	interests[20] 	12416
scalar tree_4_3_u01_r11_network.node[20].core_layer 	data[20] 	8950
scalar tree_4_3_u01_r11_network.node[20].content_store 	p_hit[20] 	0.27915592783505
scalar tree_4_3_u01_r11_network.node[20].content_store 	hits[20] 	3466
scalar tree_4_3_u01_r11_network.node[20].content_store 	misses[20] 	8950
scalar tree_4_3_u01_r11_network.node[20].content_store 	decision_yes[20] 	103
scalar tree_4_3_u01_r11_network.node[20].content_store 	decision_no[20] 	8847
scalar tree_4_3_u01_r11_network.node[20].content_store 	decision_ratio[20] 	0.011508379888268
scalar tree_4_3_u01_r11_network.node[21].core_layer 	interests[21] 	12554
scalar tree_4_3_u01_r11_network.node[21].core_layer 	data[21] 	8811
scalar tree_4_3_u01_r11_network.node[21].content_store 	p_hit[21] 	0.29815198343158
scalar tree_4_3_u01_r11_network.node[21].content_store 	hits[21] 	3743
scalar tree_4_3_u01_r11_network.node[21].content_store 	misses[21] 	8811
scalar tree_4_3_u01_r11_network.node[21].content_store 	decision_yes[21] 	109
scalar tree_4_3_u01_r11_network.node[21].content_store 	decision_no[21] 	8702
scalar tree_4_3_u01_r11_network.node[21].content_store 	decision_ratio[21] 	0.012370900011349
scalar tree_4_3_u01_r11_network.node[22].core_layer 	interests[22] 	12426
scalar tree_4_3_u01_r11_network.node[22].core_layer 	data[22] 	8900
scalar tree_4_3_u01_r11_network.node[22].content_store 	p_hit[22] 	0.28367938194109
scalar tree_4_3_u01_r11_network.node[22].content_store 	hits[22] 	3525
scalar tree_4_3_u01_r11_network.node[22].content_store 	misses[22] 	8901
scalar tree_4_3_u01_r11_network.node[22].content_store 	decision_yes[22] 	102
scalar tree_4_3_u01_r11_network.node[22].content_store 	decision_no[22] 	8798
scalar tree_4_3_u01_r11_network.node[22].content_store 	decision_ratio[22] 	0.011460674157303
scalar tree_4_3_u01_r11_network.node[23].core_layer 	interests[23] 	12895
scalar tree_4_3_u01_r11_network.node[23].core_layer 	data[23] 	8904
scalar tree_4_3_u01_r11_network.node[23].content_store 	p_hit[23] 	0.30949980612641
scalar tree_4_3_u01_r11_network.node[23].content_store 	hits[23] 	3991
scalar tree_4_3_u01_r11_network.node[23].content_store 	misses[23] 	8904
scalar tree_4_3_u01_r11_network.node[23].content_store 	decision_yes[23] 	133
scalar tree_4_3_u01_r11_network.node[23].content_store 	decision_no[23] 	8771
scalar tree_4_3_u01_r11_network.node[23].content_store 	decision_ratio[23] 	0.014937106918239
scalar tree_4_3_u01_r11_network.node[24].core_layer 	interests[24] 	12430
scalar tree_4_3_u01_r11_network.node[24].core_layer 	data[24] 	8966
scalar tree_4_3_u01_r11_network.node[24].content_store 	p_hit[24] 	0.27868061142397
scalar tree_4_3_u01_r11_network.node[24].content_store 	hits[24] 	3464
scalar tree_4_3_u01_r11_network.node[24].content_store 	misses[24] 	8966
scalar tree_4_3_u01_r11_network.node[24].content_store 	decision_yes[24] 	125
scalar tree_4_3_u01_r11_network.node[24].content_store 	decision_no[24] 	8841
scalar tree_4_3_u01_r11_network.node[24].content_store 	decision_ratio[24] 	0.013941556993085
scalar tree_4_3_u01_r11_network.node[25].core_layer 	interests[25] 	12490
scalar tree_4_3_u01_r11_network.node[25].core_layer 	data[25] 	8891
scalar tree_4_3_u01_r11_network.node[25].content_store 	p_hit[25] 	0.28815052041633
scalar tree_4_3_u01_r11_network.node[25].content_store 	hits[25] 	3599
scalar tree_4_3_u01_r11_network.node[25].content_store 	misses[25] 	8891
scalar tree_4_3_u01_r11_network.node[25].content_store 	decision_yes[25] 	113
scalar tree_4_3_u01_r11_network.node[25].content_store 	decision_no[25] 	8778
scalar tree_4_3_u01_r11_network.node[25].content_store 	decision_ratio[25] 	0.012709481498144
scalar tree_4_3_u01_r11_network.node[26].core_layer 	interests[26] 	12491
scalar tree_4_3_u01_r11_network.node[26].core_layer 	data[26] 	8864
scalar tree_4_3_u01_r11_network.node[26].content_store 	p_hit[26] 	0.29044912336883
scalar tree_4_3_u01_r11_network.node[26].content_store 	hits[26] 	3628
scalar tree_4_3_u01_r11_network.node[26].content_store 	misses[26] 	8863
scalar tree_4_3_u01_r11_network.node[26].content_store 	decision_yes[26] 	128
scalar tree_4_3_u01_r11_network.node[26].content_store 	decision_no[26] 	8736
scalar tree_4_3_u01_r11_network.node[26].content_store 	decision_ratio[26] 	0.014440433212996
scalar tree_4_3_u01_r11_network.node[27].core_layer 	interests[27] 	12384
scalar tree_4_3_u01_r11_network.node[27].core_layer 	data[27] 	8827
scalar tree_4_3_u01_r11_network.node[27].content_store 	p_hit[27] 	0.28722545219638
scalar tree_4_3_u01_r11_network.node[27].content_store 	hits[27] 	3557
scalar tree_4_3_u01_r11_network.node[27].content_store 	misses[27] 	8827
scalar tree_4_3_u01_r11_network.node[27].content_store 	decision_yes[27] 	122
scalar tree_4_3_u01_r11_network.node[27].content_store 	decision_no[27] 	8705
scalar tree_4_3_u01_r11_network.node[27].content_store 	decision_ratio[27] 	0.013821230316076
scalar tree_4_3_u01_r11_network.node[28].core_layer 	interests[28] 	12468
scalar tree_4_3_u01_r11_network.node[28].core_layer 	data[28] 	9006
scalar tree_4_3_u01_r11_network.node[28].content_store 	p_hit[28] 	0.2776708373436
scalar tree_4_3_u01_r11_network.node[28].content_store 	hits[28] 	3462
scalar tree_4_3_u01_r11_network.node[28].content_store 	misses[28] 	9006
scalar tree_4_3_u01_r11_network.node[28].content_store 	decision_yes[28] 	130
scalar tree_4_3_u01_r11_network.node[28].content_store 	decision_no[28] 	8876
scalar tree_4_3_u01_r11_network.node[28].content_store 	decision_ratio[28] 	0.014434821230291
scalar tree_4_3_u01_r11_network.node[29].core_layer 	interests[29] 	12331
scalar tree_4_3_u01_r11_network.node[29].core_layer 	data[29] 	8726
scalar tree_4_3_u01_r11_network.node[29].content_store 	p_hit[29] 	0.29235260725002
scalar tree_4_3_u01_r11_network.node[29].content_store 	hits[29] 	3605
scalar tree_4_3_u01_r11_network.node[29].content_store 	misses[29] 	8726
scalar tree_4_3_u01_r11_network.node[29].content_store 	decision_yes[29] 	117
scalar tree_4_3_u01_r11_network.node[29].content_store 	decision_no[29] 	8609
scalar tree_4_3_u01_r11_network.node[29].content_store 	decision_ratio[29] 	0.013408205363282
scalar tree_4_3_u01_r11_network.node[30].core_layer 	interests[30] 	12422
scalar tree_4_3_u01_r11_network.node[30].core_layer 	data[30] 	8795
scalar tree_4_3_u01_r11_network.node[30].content_store 	p_hit[30] 	0.29198196747706
scalar tree_4_3_u01_r11_network.node[30].content_store 	hits[30] 	3627
scalar tree_4_3_u01_r11_network.node[30].content_store 	misses[30] 	8795
scalar tree_4_3_u01_r11_network.node[30].content_store 	decision_yes[30] 	136
scalar tree_4_3_u01_r11_network.node[30].content_store 	decision_no[30] 	8659
scalar tree_4_3_u01_r11_network.node[30].content_store 	decision_ratio[30] 	0.015463331438317
scalar tree_4_3_u01_r11_network.node[31].core_layer 	interests[31] 	12859
scalar tree_4_3_u01_r11_network.node[31].core_layer 	data[31] 	8980
scalar tree_4_3_u01_r11_network.node[31].content_store 	p_hit[31] 	0.30165642740493
scalar tree_4_3_u01_r11_network.node[31].content_store 	hits[31] 	3879
scalar tree_4_3_u01_r11_network.node[31].content_store 	misses[31] 	8980
scalar tree_4_3_u01_r11_network.node[31].content_store 	decision_yes[31] 	110
scalar tree_4_3_u01_r11_network.node[31].content_store 	decision_no[31] 	8870
scalar tree_4_3_u01_r11_network.node[31].content_store 	decision_ratio[31] 	0.012249443207127
scalar tree_4_3_u01_r11_network.node[32].core_layer 	interests[32] 	12707
scalar tree_4_3_u01_r11_network.node[32].core_layer 	data[32] 	8958
scalar tree_4_3_u01_r11_network.node[32].content_store 	p_hit[32] 	0.29503423309987
scalar tree_4_3_u01_r11_network.node[32].content_store 	hits[32] 	3749
scalar tree_4_3_u01_r11_network.node[32].content_store 	misses[32] 	8958
scalar tree_4_3_u01_r11_network.node[32].content_store 	decision_yes[32] 	120
scalar tree_4_3_u01_r11_network.node[32].content_store 	decision_no[32] 	8838
scalar tree_4_3_u01_r11_network.node[32].content_store 	decision_ratio[32] 	0.013395847287341
scalar tree_4_3_u01_r11_network.node[33].core_layer 	interests[33] 	12751
scalar tree_4_3_u01_r11_network.node[33].core_layer 	data[33] 	8974
scalar tree_4_3_u01_r11_network.node[33].content_store 	p_hit[33] 	0.29621206179907
scalar tree_4_3_u01_r11_network.node[33].content_store 	hits[33] 	3777
scalar tree_4_3_u01_r11_network.node[33].content_store 	misses[33] 	8974
scalar tree_4_3_u01_r11_network.node[33].content_store 	decision_yes[33] 	122
scalar tree_4_3_u01_r11_network.node[33].content_store 	decision_no[33] 	8852
scalar tree_4_3_u01_r11_network.node[33].content_store 	decision_ratio[33] 	0.013594829507466
scalar tree_4_3_u01_r11_network.node[34].core_layer 	interests[34] 	12489
scalar tree_4_3_u01_r11_network.node[34].core_layer 	data[34] 	8873
scalar tree_4_3_u01_r11_network.node[34].content_store 	p_hit[34] 	0.28953479061574
scalar tree_4_3_u01_r11_network.node[34].content_store 	hits[34] 	3616
scalar tree_4_3_u01_r11_network.node[34].content_store 	misses[34] 	8873
scalar tree_4_3_u01_r11_network.node[34].content_store 	decision_yes[34] 	115
scalar tree_4_3_u01_r11_network.node[34].content_store 	decision_no[34] 	8758
scalar tree_4_3_u01_r11_network.node[34].content_store 	decision_ratio[34] 	0.012960667192607
scalar tree_4_3_u01_r11_network.node[35].core_layer 	interests[35] 	12675
scalar tree_4_3_u01_r11_network.node[35].core_layer 	data[35] 	9053
scalar tree_4_3_u01_r11_network.node[35].content_store 	p_hit[35] 	0.28575936883629
scalar tree_4_3_u01_r11_network.node[35].content_store 	hits[35] 	3622
scalar tree_4_3_u01_r11_network.node[35].content_store 	misses[35] 	9053
scalar tree_4_3_u01_r11_network.node[35].content_store 	decision_yes[35] 	120
scalar tree_4_3_u01_r11_network.node[35].content_store 	decision_no[35] 	8933
scalar tree_4_3_u01_r11_network.node[35].content_store 	decision_ratio[35] 	0.013255274494643
scalar tree_4_3_u01_r11_network.node[36].core_layer 	interests[36] 	12650
scalar tree_4_3_u01_r11_network.node[36].core_layer 	data[36] 	9085
scalar tree_4_3_u01_r11_network.node[36].content_store 	p_hit[36] 	0.28181818181818
scalar tree_4_3_u01_r11_network.node[36].content_store 	hits[36] 	3565
scalar tree_4_3_u01_r11_network.node[36].content_store 	misses[36] 	9085
scalar tree_4_3_u01_r11_network.node[36].content_store 	decision_yes[36] 	113
scalar tree_4_3_u01_r11_network.node[36].content_store 	decision_no[36] 	8972
scalar tree_4_3_u01_r11_network.node[36].content_store 	decision_ratio[36] 	0.012438084755091
scalar tree_4_3_u01_r11_network.node[37].core_layer 	interests[37] 	12435
scalar tree_4_3_u01_r11_network.node[37].core_layer 	data[37] 	8870
scalar tree_4_3_u01_r11_network.node[37].content_store 	p_hit[37] 	0.28669079211902
scalar tree_4_3_u01_r11_network.node[37].content_store 	hits[37] 	3565
scalar tree_4_3_u01_r11_network.node[37].content_store 	misses[37] 	8870
scalar tree_4_3_u01_r11_network.node[37].content_store 	decision_yes[37] 	134
scalar tree_4_3_u01_r11_network.node[37].content_store 	decision_no[37] 	8736
scalar tree_4_3_u01_r11_network.node[37].content_store 	decision_ratio[37] 	0.01510710259301
scalar tree_4_3_u01_r11_network.node[38].core_layer 	interests[38] 	12470
scalar tree_4_3_u01_r11_network.node[38].core_layer 	data[38] 	8913
scalar tree_4_3_u01_r11_network.node[38].content_store 	p_hit[38] 	0.28524458700882
scalar tree_4_3_u01_r11_network.node[38].content_store 	hits[38] 	3557
scalar tree_4_3_u01_r11_network.node[38].content_store 	misses[38] 	8913
scalar tree_4_3_u01_r11_network.node[38].content_store 	decision_yes[38] 	122
scalar tree_4_3_u01_r11_network.node[38].content_store 	decision_no[38] 	8791
scalar tree_4_3_u01_r11_network.node[38].content_store 	decision_ratio[38] 	0.013687871648154
scalar tree_4_3_u01_r11_network.node[39].core_layer 	interests[39] 	12359
scalar tree_4_3_u01_r11_network.node[39].core_layer 	data[39] 	8770
scalar tree_4_3_u01_r11_network.node[39].content_store 	p_hit[39] 	0.29039566307954
scalar tree_4_3_u01_r11_network.node[39].content_store 	hits[39] 	3589
scalar tree_4_3_u01_r11_network.node[39].content_store 	misses[39] 	8770
scalar tree_4_3_u01_r11_network.node[39].content_store 	decision_yes[39] 	133
scalar tree_4_3_u01_r11_network.node[39].content_store 	decision_no[39] 	8637
scalar tree_4_3_u01_r11_network.node[39].content_store 	decision_ratio[39] 	0.015165336374002
scalar tree_4_3_u01_r11_network.client[13] 	hdistance[13] 	2.7431475464467
scalar tree_4_3_u01_r11_network.client[13] 	downloads[13] 	12003
scalar tree_4_3_u01_r11_network.client[13] 	avg_time[13] 	0.004276761137
scalar tree_4_3_u01_r11_network.client[14] 	hdistance[14] 	2.658687646468
scalar tree_4_3_u01_r11_network.client[14] 	downloads[14] 	11948
scalar tree_4_3_u01_r11_network.client[14] 	avg_time[14] 	0.004130897542
scalar tree_4_3_u01_r11_network.client[15] 	hdistance[15] 	2.7269542003837
scalar tree_4_3_u01_r11_network.client[15] 	downloads[15] 	11987
scalar tree_4_3_u01_r11_network.client[15] 	avg_time[15] 	0.004251381715
scalar tree_4_3_u01_r11_network.client[16] 	hdistance[16] 	2.7318726746589
scalar tree_4_3_u01_r11_network.client[16] 	downloads[16] 	12095
scalar tree_4_3_u01_r11_network.client[16] 	avg_time[16] 	0.0042535661
scalar tree_4_3_u01_r11_network.client[17] 	hdistance[17] 	2.7502525252525
scalar tree_4_3_u01_r11_network.client[17] 	downloads[17] 	11880
scalar tree_4_3_u01_r11_network.client[17] 	avg_time[17] 	0.004277562344
scalar tree_4_3_u01_r11_network.client[18] 	hdistance[18] 	2.7106502520036
scalar tree_4_3_u01_r11_network.client[18] 	downloads[18] 	12103
scalar tree_4_3_u01_r11_network.client[18] 	avg_time[18] 	0.004226586051
scalar tree_4_3_u01_r11_network.client[19] 	hdistance[19] 	2.7088399605652
scalar tree_4_3_u01_r11_network.client[19] 	downloads[19] 	12172
scalar tree_4_3_u01_r11_network.client[19] 	avg_time[19] 	0.004226746865
scalar tree_4_3_u01_r11_network.client[20] 	hdistance[20] 	2.7625628140703
scalar tree_4_3_u01_r11_network.client[20] 	downloads[20] 	11940
scalar tree_4_3_u01_r11_network.client[20] 	avg_time[20] 	0.004316077402
scalar tree_4_3_u01_r11_network.client[21] 	hdistance[21] 	2.7286717965875
scalar tree_4_3_u01_r11_network.client[21] 	downloads[21] 	11956
scalar tree_4_3_u01_r11_network.client[21] 	avg_time[21] 	0.004255433594
scalar tree_4_3_u01_r11_network.client[22] 	hdistance[22] 	2.753387083368
scalar tree_4_3_u01_r11_network.client[22] 	downloads[22] 	12031
scalar tree_4_3_u01_r11_network.client[22] 	avg_time[22] 	0.00426861377
scalar tree_4_3_u01_r11_network.client[23] 	hdistance[23] 	2.6874583610926
scalar tree_4_3_u01_r11_network.client[23] 	downloads[23] 	12008
scalar tree_4_3_u01_r11_network.client[23] 	avg_time[23] 	0.004143734522
scalar tree_4_3_u01_r11_network.client[24] 	hdistance[24] 	2.7532133676092
scalar tree_4_3_u01_r11_network.client[24] 	downloads[24] 	12059
scalar tree_4_3_u01_r11_network.client[24] 	avg_time[24] 	0.00426685161
scalar tree_4_3_u01_r11_network.client[25] 	hdistance[25] 	2.7221113881962
scalar tree_4_3_u01_r11_network.client[25] 	downloads[25] 	12030
scalar tree_4_3_u01_r11_network.client[25] 	avg_time[25] 	0.004217287067
scalar tree_4_3_u01_r11_network.client[26] 	hdistance[26] 	2.7035188420265
scalar tree_4_3_u01_r11_network.client[26] 	downloads[26] 	12021
scalar tree_4_3_u01_r11_network.client[26] 	avg_time[26] 	0.004197773637
scalar tree_4_3_u01_r11_network.client[27] 	hdistance[27] 	2.7298113207547
scalar tree_4_3_u01_r11_network.client[27] 	downloads[27] 	11925
scalar tree_4_3_u01_r11_network.client[27] 	avg_time[27] 	0.004228437592
scalar tree_4_3_u01_r11_network.client[28] 	hdistance[28] 	2.7635439239873
scalar tree_4_3_u01_r11_network.client[28] 	downloads[28] 	11998
scalar tree_4_3_u01_r11_network.client[28] 	avg_time[28] 	0.004297046497
scalar tree_4_3_u01_r11_network.client[29] 	hdistance[29] 	2.7387996618766
scalar tree_4_3_u01_r11_network.client[29] 	downloads[29] 	11830
scalar tree_4_3_u01_r11_network.client[29] 	avg_time[29] 	0.00425122179
scalar tree_4_3_u01_r11_network.client[30] 	hdistance[30] 	2.73165002936
scalar tree_4_3_u01_r11_network.client[30] 	downloads[30] 	11921
scalar tree_4_3_u01_r11_network.client[30] 	avg_time[30] 	0.004241084174
scalar tree_4_3_u01_r11_network.client[31] 	hdistance[31] 	2.688775928507
scalar tree_4_3_u01_r11_network.client[31] 	downloads[31] 	12197
scalar tree_4_3_u01_r11_network.client[31] 	avg_time[31] 	0.004218028321
scalar tree_4_3_u01_r11_network.client[32] 	hdistance[32] 	2.7150443946561
scalar tree_4_3_u01_r11_network.client[32] 	downloads[32] 	12051
scalar tree_4_3_u01_r11_network.client[32] 	avg_time[32] 	0.004269850106
scalar tree_4_3_u01_r11_network.client[33] 	hdistance[33] 	2.6877883981543
scalar tree_4_3_u01_r11_network.client[33] 	downloads[33] 	12136
scalar tree_4_3_u01_r11_network.client[33] 	avg_time[33] 	0.004230715475
scalar tree_4_3_u01_r11_network.client[34] 	hdistance[34] 	2.738130810093
scalar tree_4_3_u01_r11_network.client[34] 	downloads[34] 	12048
scalar tree_4_3_u01_r11_network.client[34] 	avg_time[34] 	0.004234245974
scalar tree_4_3_u01_r11_network.client[35] 	hdistance[35] 	2.7371134020619
scalar tree_4_3_u01_r11_network.client[35] 	downloads[35] 	12222
scalar tree_4_3_u01_r11_network.client[35] 	avg_time[35] 	0.004240383128
scalar tree_4_3_u01_r11_network.client[36] 	hdistance[36] 	2.7463064239654
scalar tree_4_3_u01_r11_network.client[36] 	downloads[36] 	12251
scalar tree_4_3_u01_r11_network.client[36] 	avg_time[36] 	0.004255976038
scalar tree_4_3_u01_r11_network.client[37] 	hdistance[37] 	2.7267959710314
scalar tree_4_3_u01_r11_network.client[37] 	downloads[37] 	12013
scalar tree_4_3_u01_r11_network.client[37] 	avg_time[37] 	0.004226917833
scalar tree_4_3_u01_r11_network.client[38] 	hdistance[38] 	2.7412575795332
scalar tree_4_3_u01_r11_network.client[38] 	downloads[38] 	12039
scalar tree_4_3_u01_r11_network.client[38] 	avg_time[38] 	0.004242708155
scalar tree_4_3_u01_r11_network.client[39] 	hdistance[39] 	2.7263034170095
scalar tree_4_3_u01_r11_network.client[39] 	downloads[39] 	11911
scalar tree_4_3_u01_r11_network.client[39] 	avg_time[39] 	0.004218618461
