version 2
run General-21-20160902-11:47:14-7280
attr a 0.9
attr cd wfc0.01
attr configname General
attr cr lru
attr datetime 20160902-11:47:14
attr experiment General
attr fsize 1
attr inifile hw5115/scenario_Y/omnetp.ini
attr iterationvars "$name=tree_4_3, $un=01, $rep=2, $cd=wfc0.01, $cr=lru, $fsize=1, $a=0.9, $sl=nrr, $ttl=1000, $variance=0.05"
attr iterationvars2 "$name=tree_4_3, $un=01, $rep=2, $cd=wfc0.01, $cr=lru, $fsize=1, $a=0.9, $sl=nrr, $ttl=1000, $variance=0.05, $repetition=0"
attr measurement "$name=tree_4_3, $un=01, $rep=2, $cd=wfc0.01, $cr=lru, $fsize=1, $a=0.9, $sl=nrr, $ttl=1000, $variance=0.05"
attr name tree_4_3
attr network networks.${name}_u${un}_r${rep}_network
attr processid 7280
attr rep 2
attr repetition 0
attr replication #0
attr resultdir results
attr runnumber 21
attr seedset 2
attr sl nrr
attr ttl 1000
attr un 01
attr variance 0.05

scalar . 	a 	0.9
scalar . 	fsize 	1
scalar . 	rep 	2
scalar . 	ttl 	1000
scalar . 	un 	01
scalar . 	variance 	0.05
scalar tree_4_3_u01_r2_network.content_distribution 	repo-0 	0
scalar tree_4_3_u01_r2_network.content_distribution 	client-0 	13
scalar tree_4_3_u01_r2_network.content_distribution 	client-1 	14
scalar tree_4_3_u01_r2_network.content_distribution 	client-2 	15
scalar tree_4_3_u01_r2_network.content_distribution 	client-3 	16
scalar tree_4_3_u01_r2_network.content_distribution 	client-4 	17
scalar tree_4_3_u01_r2_network.content_distribution 	client-5 	18
scalar tree_4_3_u01_r2_network.content_distribution 	client-6 	19
scalar tree_4_3_u01_r2_network.content_distribution 	client-7 	20
scalar tree_4_3_u01_r2_network.content_distribution 	client-8 	21
scalar tree_4_3_u01_r2_network.content_distribution 	client-9 	22
scalar tree_4_3_u01_r2_network.content_distribution 	client-10 	23
scalar tree_4_3_u01_r2_network.content_distribution 	client-11 	24
scalar tree_4_3_u01_r2_network.content_distribution 	client-12 	25
scalar tree_4_3_u01_r2_network.content_distribution 	client-13 	26
scalar tree_4_3_u01_r2_network.content_distribution 	client-14 	27
scalar tree_4_3_u01_r2_network.content_distribution 	client-15 	28
scalar tree_4_3_u01_r2_network.content_distribution 	client-16 	29
scalar tree_4_3_u01_r2_network.content_distribution 	client-17 	30
scalar tree_4_3_u01_r2_network.content_distribution 	client-18 	31
scalar tree_4_3_u01_r2_network.content_distribution 	client-19 	32
scalar tree_4_3_u01_r2_network.content_distribution 	client-20 	33
scalar tree_4_3_u01_r2_network.content_distribution 	client-21 	34
scalar tree_4_3_u01_r2_network.content_distribution 	client-22 	35
scalar tree_4_3_u01_r2_network.content_distribution 	client-23 	36
scalar tree_4_3_u01_r2_network.content_distribution 	client-24 	37
scalar tree_4_3_u01_r2_network.content_distribution 	client-25 	38
scalar tree_4_3_u01_r2_network.content_distribution 	client-26 	39
scalar tree_4_3_u01_r2_network.content_distribution 	repo-0_card 	100000
scalar tree_4_3_u01_r2_network.content_distribution 	repo-0_price 	0
scalar tree_4_3_u01_r2_network.statistics 	stabilization_time 	1240.7
scalar tree_4_3_u01_r2_network.statistics 	p_hit 	0.21848085890632
scalar tree_4_3_u01_r2_network.statistics 	interests 	25256.5
scalar tree_4_3_u01_r2_network.statistics 	data 	17153.15
scalar tree_4_3_u01_r2_network.statistics 	hdistance 	2.7217410463882
scalar tree_4_3_u01_r2_network.statistics 	avg_time 	0.004233774991
scalar tree_4_3_u01_r2_network.statistics 	downloads 	324124
scalar tree_4_3_u01_r2_network.statistics 	total_cost 	0
scalar tree_4_3_u01_r2_network.statistics 	total_replicas 	100000
scalar tree_4_3_u01_r2_network.statistics 	inner_hit 	0.39521294319458
scalar tree_4_3_u01_r2_network.node[0].core_layer 	interests[0] 	198732
scalar tree_4_3_u01_r2_network.node[0].core_layer 	repo_load[0] 	196026
scalar tree_4_3_u01_r2_network.node[0].core_layer 	data[0] 	0
scalar tree_4_3_u01_r2_network.node[0].core_layer 	repo_int[0] 	196026
scalar tree_4_3_u01_r2_network.node[0].content_store 	p_hit[0] 	0.013616327516454
scalar tree_4_3_u01_r2_network.node[0].content_store 	hits[0] 	2706
scalar tree_4_3_u01_r2_network.node[0].content_store 	misses[0] 	196026
scalar tree_4_3_u01_r2_network.node[0].content_store 	decision_yes[0] 	3015
scalar tree_4_3_u01_r2_network.node[0].content_store 	decision_no[0] 	193011
scalar tree_4_3_u01_r2_network.node[0].content_store 	decision_ratio[0] 	0.015380612775856
scalar tree_4_3_u01_r2_network.node[1].core_layer 	interests[1] 	96139
scalar tree_4_3_u01_r2_network.node[1].core_layer 	data[1] 	93961
scalar tree_4_3_u01_r2_network.node[1].content_store 	p_hit[1] 	0.022644296279346
scalar tree_4_3_u01_r2_network.node[1].content_store 	hits[1] 	2177
scalar tree_4_3_u01_r2_network.node[1].content_store 	misses[1] 	93962
scalar tree_4_3_u01_r2_network.node[1].content_store 	decision_yes[1] 	1161
scalar tree_4_3_u01_r2_network.node[1].content_store 	decision_no[1] 	92800
scalar tree_4_3_u01_r2_network.node[1].content_store 	decision_ratio[1] 	0.012356190334288
scalar tree_4_3_u01_r2_network.node[2].core_layer 	interests[2] 	72530
scalar tree_4_3_u01_r2_network.node[2].core_layer 	data[2] 	71035
scalar tree_4_3_u01_r2_network.node[2].content_store 	p_hit[2] 	0.020612160485316
scalar tree_4_3_u01_r2_network.node[2].content_store 	hits[2] 	1495
scalar tree_4_3_u01_r2_network.node[2].content_store 	misses[2] 	71035
scalar tree_4_3_u01_r2_network.node[2].content_store 	decision_yes[2] 	834
scalar tree_4_3_u01_r2_network.node[2].content_store 	decision_no[2] 	70201
scalar tree_4_3_u01_r2_network.node[2].content_store 	decision_ratio[2] 	0.011740691208559
scalar tree_4_3_u01_r2_network.node[3].core_layer 	interests[3] 	50104
scalar tree_4_3_u01_r2_network.node[3].core_layer 	data[3] 	48197
scalar tree_4_3_u01_r2_network.node[3].content_store 	p_hit[3] 	0.038040874980042
scalar tree_4_3_u01_r2_network.node[3].content_store 	hits[3] 	1906
scalar tree_4_3_u01_r2_network.node[3].content_store 	misses[3] 	48198
scalar tree_4_3_u01_r2_network.node[3].content_store 	decision_yes[3] 	620
scalar tree_4_3_u01_r2_network.node[3].content_store 	decision_no[3] 	47577
scalar tree_4_3_u01_r2_network.node[3].content_store 	decision_ratio[3] 	0.012863871195303
scalar tree_4_3_u01_r2_network.node[4].core_layer 	interests[4] 	37087
scalar tree_4_3_u01_r2_network.node[4].core_layer 	data[4] 	34573
scalar tree_4_3_u01_r2_network.node[4].content_store 	p_hit[4] 	0.067759592309974
scalar tree_4_3_u01_r2_network.node[4].content_store 	hits[4] 	2513
scalar tree_4_3_u01_r2_network.node[4].content_store 	misses[4] 	34574
scalar tree_4_3_u01_r2_network.node[4].content_store 	decision_yes[4] 	522
scalar tree_4_3_u01_r2_network.node[4].content_store 	decision_no[4] 	34051
scalar tree_4_3_u01_r2_network.node[4].content_store 	decision_ratio[4] 	0.015098487258844
scalar tree_4_3_u01_r2_network.node[5].core_layer 	interests[5] 	20149
scalar tree_4_3_u01_r2_network.node[5].core_layer 	data[5] 	17580
scalar tree_4_3_u01_r2_network.node[5].content_store 	p_hit[5] 	0.12750012407564
scalar tree_4_3_u01_r2_network.node[5].content_store 	hits[5] 	2569
scalar tree_4_3_u01_r2_network.node[5].content_store 	misses[5] 	17580
scalar tree_4_3_u01_r2_network.node[5].content_store 	decision_yes[5] 	271
scalar tree_4_3_u01_r2_network.node[5].content_store 	decision_no[5] 	17309
scalar tree_4_3_u01_r2_network.node[5].content_store 	decision_ratio[5] 	0.015415244596132
scalar tree_4_3_u01_r2_network.node[6].core_layer 	interests[6] 	28304
scalar tree_4_3_u01_r2_network.node[6].core_layer 	data[6] 	25960
scalar tree_4_3_u01_r2_network.node[6].content_store 	p_hit[6] 	0.082815149802148
scalar tree_4_3_u01_r2_network.node[6].content_store 	hits[6] 	2344
scalar tree_4_3_u01_r2_network.node[6].content_store 	misses[6] 	25960
scalar tree_4_3_u01_r2_network.node[6].content_store 	decision_yes[6] 	373
scalar tree_4_3_u01_r2_network.node[6].content_store 	decision_no[6] 	25587
scalar tree_4_3_u01_r2_network.node[6].content_store 	decision_ratio[6] 	0.014368258859784
scalar tree_4_3_u01_r2_network.node[7].core_layer 	interests[7] 	36475
scalar tree_4_3_u01_r2_network.node[7].core_layer 	data[7] 	34121
scalar tree_4_3_u01_r2_network.node[7].content_store 	p_hit[7] 	0.064619602467443
scalar tree_4_3_u01_r2_network.node[7].content_store 	hits[7] 	2357
scalar tree_4_3_u01_r2_network.node[7].content_store 	misses[7] 	34118
scalar tree_4_3_u01_r2_network.node[7].content_store 	decision_yes[7] 	473
scalar tree_4_3_u01_r2_network.node[7].content_store 	decision_no[7] 	33648
scalar tree_4_3_u01_r2_network.node[7].content_store 	decision_ratio[7] 	0.013862430761115
scalar tree_4_3_u01_r2_network.node[8].core_layer 	interests[8] 	27655
scalar tree_4_3_u01_r2_network.node[8].core_layer 	data[8] 	25784
scalar tree_4_3_u01_r2_network.node[8].content_store 	p_hit[8] 	0.067655035255831
scalar tree_4_3_u01_r2_network.node[8].content_store 	hits[8] 	1871
scalar tree_4_3_u01_r2_network.node[8].content_store 	misses[8] 	25784
scalar tree_4_3_u01_r2_network.node[8].content_store 	decision_yes[8] 	380
scalar tree_4_3_u01_r2_network.node[8].content_store 	decision_no[8] 	25404
scalar tree_4_3_u01_r2_network.node[8].content_store 	decision_ratio[8] 	0.014737821905057
scalar tree_4_3_u01_r2_network.node[9].core_layer 	interests[9] 	19204
scalar tree_4_3_u01_r2_network.node[9].core_layer 	data[9] 	17192
scalar tree_4_3_u01_r2_network.node[9].content_store 	p_hit[9] 	0.10471776713185
scalar tree_4_3_u01_r2_network.node[9].content_store 	hits[9] 	2011
scalar tree_4_3_u01_r2_network.node[9].content_store 	misses[9] 	17193
scalar tree_4_3_u01_r2_network.node[9].content_store 	decision_yes[9] 	260
scalar tree_4_3_u01_r2_network.node[9].content_store 	decision_no[9] 	16932
scalar tree_4_3_u01_r2_network.node[9].content_store 	decision_ratio[9] 	0.015123313168916
scalar tree_4_3_u01_r2_network.node[10].core_layer 	interests[10] 	30340
scalar tree_4_3_u01_r2_network.node[10].core_layer 	data[10] 	26745
scalar tree_4_3_u01_r2_network.node[10].content_store 	p_hit[10] 	0.11845748187212
scalar tree_4_3_u01_r2_network.node[10].content_store 	hits[10] 	3594
scalar tree_4_3_u01_r2_network.node[10].content_store 	misses[10] 	26746
scalar tree_4_3_u01_r2_network.node[10].content_store 	decision_yes[10] 	516
scalar tree_4_3_u01_r2_network.node[10].content_store 	decision_no[10] 	26229
scalar tree_4_3_u01_r2_network.node[10].content_store 	decision_ratio[10] 	0.0192933258553
scalar tree_4_3_u01_r2_network.node[11].core_layer 	interests[11] 	27705
scalar tree_4_3_u01_r2_network.node[11].core_layer 	data[11] 	25697
scalar tree_4_3_u01_r2_network.node[11].content_store 	p_hit[11] 	0.072477892077242
scalar tree_4_3_u01_r2_network.node[11].content_store 	hits[11] 	2008
scalar tree_4_3_u01_r2_network.node[11].content_store 	misses[11] 	25697
scalar tree_4_3_u01_r2_network.node[11].content_store 	decision_yes[11] 	335
scalar tree_4_3_u01_r2_network.node[11].content_store 	decision_no[11] 	25362
scalar tree_4_3_u01_r2_network.node[11].content_store 	decision_ratio[11] 	0.013036541230494
scalar tree_4_3_u01_r2_network.node[12].core_layer 	interests[12] 	27312
scalar tree_4_3_u01_r2_network.node[12].core_layer 	data[12] 	25513
scalar tree_4_3_u01_r2_network.node[12].content_store 	p_hit[12] 	0.06583186877563
scalar tree_4_3_u01_r2_network.node[12].content_store 	hits[12] 	1798
scalar tree_4_3_u01_r2_network.node[12].content_store 	misses[12] 	25514
scalar tree_4_3_u01_r2_network.node[12].content_store 	decision_yes[12] 	376
scalar tree_4_3_u01_r2_network.node[12].content_store 	decision_no[12] 	25137
scalar tree_4_3_u01_r2_network.node[12].content_store 	decision_ratio[12] 	0.01473758476071
scalar tree_4_3_u01_r2_network.node[13].core_layer 	interests[13] 	12538
scalar tree_4_3_u01_r2_network.node[13].core_layer 	data[13] 	8774
scalar tree_4_3_u01_r2_network.node[13].content_store 	p_hit[13] 	0.30020736959643
scalar tree_4_3_u01_r2_network.node[13].content_store 	hits[13] 	3764
scalar tree_4_3_u01_r2_network.node[13].content_store 	misses[13] 	8774
scalar tree_4_3_u01_r2_network.node[13].content_store 	decision_yes[13] 	111
scalar tree_4_3_u01_r2_network.node[13].content_store 	decision_no[13] 	8663
scalar tree_4_3_u01_r2_network.node[13].content_store 	decision_ratio[13] 	0.012651014360611
scalar tree_4_3_u01_r2_network.node[14].core_layer 	interests[14] 	12678
scalar tree_4_3_u01_r2_network.node[14].core_layer 	data[14] 	9070
scalar tree_4_3_u01_r2_network.node[14].content_store 	p_hit[14] 	0.28458747436504
scalar tree_4_3_u01_r2_network.node[14].content_store 	hits[14] 	3608
scalar tree_4_3_u01_r2_network.node[14].content_store 	misses[14] 	9070
scalar tree_4_3_u01_r2_network.node[14].content_store 	decision_yes[14] 	137
scalar tree_4_3_u01_r2_network.node[14].content_store 	decision_no[14] 	8933
scalar tree_4_3_u01_r2_network.node[14].content_store 	decision_ratio[14] 	0.015104740904079
scalar tree_4_3_u01_r2_network.node[15].core_layer 	interests[15] 	12659
scalar tree_4_3_u01_r2_network.node[15].core_layer 	data[15] 	8808
scalar tree_4_3_u01_r2_network.node[15].content_store 	p_hit[15] 	0.30413144798167
scalar tree_4_3_u01_r2_network.node[15].content_store 	hits[15] 	3850
scalar tree_4_3_u01_r2_network.node[15].content_store 	misses[15] 	8809
scalar tree_4_3_u01_r2_network.node[15].content_store 	decision_yes[15] 	115
scalar tree_4_3_u01_r2_network.node[15].content_store 	decision_no[15] 	8693
scalar tree_4_3_u01_r2_network.node[15].content_store 	decision_ratio[15] 	0.013056312443233
scalar tree_4_3_u01_r2_network.node[16].core_layer 	interests[16] 	13226
scalar tree_4_3_u01_r2_network.node[16].core_layer 	data[16] 	9060
scalar tree_4_3_u01_r2_network.node[16].content_store 	p_hit[16] 	0.31498563435657
scalar tree_4_3_u01_r2_network.node[16].content_store 	hits[16] 	4166
scalar tree_4_3_u01_r2_network.node[16].content_store 	misses[16] 	9060
scalar tree_4_3_u01_r2_network.node[16].content_store 	decision_yes[16] 	122
scalar tree_4_3_u01_r2_network.node[16].content_store 	decision_no[16] 	8938
scalar tree_4_3_u01_r2_network.node[16].content_store 	decision_ratio[16] 	0.013465783664459
scalar tree_4_3_u01_r2_network.node[17].core_layer 	interests[17] 	12484
scalar tree_4_3_u01_r2_network.node[17].core_layer 	data[17] 	9010
scalar tree_4_3_u01_r2_network.node[17].content_store 	p_hit[17] 	0.27827619352772
scalar tree_4_3_u01_r2_network.node[17].content_store 	hits[17] 	3474
scalar tree_4_3_u01_r2_network.node[17].content_store 	misses[17] 	9010
scalar tree_4_3_u01_r2_network.node[17].content_store 	decision_yes[17] 	113
scalar tree_4_3_u01_r2_network.node[17].content_store 	decision_no[17] 	8897
scalar tree_4_3_u01_r2_network.node[17].content_store 	decision_ratio[17] 	0.012541620421754
scalar tree_4_3_u01_r2_network.node[18].core_layer 	interests[18] 	12368
scalar tree_4_3_u01_r2_network.node[18].core_layer 	data[18] 	8936
scalar tree_4_3_u01_r2_network.node[18].content_store 	p_hit[18] 	0.27749029754204
scalar tree_4_3_u01_r2_network.node[18].content_store 	hits[18] 	3432
scalar tree_4_3_u01_r2_network.node[18].content_store 	misses[18] 	8936
scalar tree_4_3_u01_r2_network.node[18].content_store 	decision_yes[18] 	116
scalar tree_4_3_u01_r2_network.node[18].content_store 	decision_no[18] 	8820
scalar tree_4_3_u01_r2_network.node[18].content_store 	decision_ratio[18] 	0.012981199641898
scalar tree_4_3_u01_r2_network.node[19].core_layer 	interests[19] 	12395
scalar tree_4_3_u01_r2_network.node[19].core_layer 	data[19] 	8747
scalar tree_4_3_u01_r2_network.node[19].content_store 	p_hit[19] 	0.29431222267043
scalar tree_4_3_u01_r2_network.node[19].content_store 	hits[19] 	3648
scalar tree_4_3_u01_r2_network.node[19].content_store 	misses[19] 	8747
scalar tree_4_3_u01_r2_network.node[19].content_store 	decision_yes[19] 	96
scalar tree_4_3_u01_r2_network.node[19].content_store 	decision_no[19] 	8651
scalar tree_4_3_u01_r2_network.node[19].content_store 	decision_ratio[19] 	0.010975191494227
scalar tree_4_3_u01_r2_network.node[20].core_layer 	interests[20] 	12279
scalar tree_4_3_u01_r2_network.node[20].core_layer 	data[20] 	8792
scalar tree_4_3_u01_r2_network.node[20].content_store 	p_hit[20] 	0.28398078019383
scalar tree_4_3_u01_r2_network.node[20].content_store 	hits[20] 	3487
scalar tree_4_3_u01_r2_network.node[20].content_store 	misses[20] 	8792
scalar tree_4_3_u01_r2_network.node[20].content_store 	decision_yes[20] 	116
scalar tree_4_3_u01_r2_network.node[20].content_store 	decision_no[20] 	8676
scalar tree_4_3_u01_r2_network.node[20].content_store 	decision_ratio[20] 	0.01319381255687
scalar tree_4_3_u01_r2_network.node[21].core_layer 	interests[21] 	12789
scalar tree_4_3_u01_r2_network.node[21].core_layer 	data[21] 	8998
scalar tree_4_3_u01_r2_network.node[21].content_store 	p_hit[21] 	0.29634842442724
scalar tree_4_3_u01_r2_network.node[21].content_store 	hits[21] 	3790
scalar tree_4_3_u01_r2_network.node[21].content_store 	misses[21] 	8999
scalar tree_4_3_u01_r2_network.node[21].content_store 	decision_yes[21] 	88
scalar tree_4_3_u01_r2_network.node[21].content_store 	decision_no[21] 	8910
scalar tree_4_3_u01_r2_network.node[21].content_store 	decision_ratio[21] 	0.0097799511002445
scalar tree_4_3_u01_r2_network.node[22].core_layer 	interests[22] 	12529
scalar tree_4_3_u01_r2_network.node[22].core_layer 	data[22] 	8907
scalar tree_4_3_u01_r2_network.node[22].content_store 	p_hit[22] 	0.28908931279432
scalar tree_4_3_u01_r2_network.node[22].content_store 	hits[22] 	3622
scalar tree_4_3_u01_r2_network.node[22].content_store 	misses[22] 	8907
scalar tree_4_3_u01_r2_network.node[22].content_store 	decision_yes[22] 	113
scalar tree_4_3_u01_r2_network.node[22].content_store 	decision_no[22] 	8794
scalar tree_4_3_u01_r2_network.node[22].content_store 	decision_ratio[22] 	0.012686650948692
scalar tree_4_3_u01_r2_network.node[23].core_layer 	interests[23] 	12520
scalar tree_4_3_u01_r2_network.node[23].core_layer 	data[23] 	8743
scalar tree_4_3_u01_r2_network.node[23].content_store 	p_hit[23] 	0.3017571884984
scalar tree_4_3_u01_r2_network.node[23].content_store 	hits[23] 	3778
scalar tree_4_3_u01_r2_network.node[23].content_store 	misses[23] 	8742
scalar tree_4_3_u01_r2_network.node[23].content_store 	decision_yes[23] 	106
scalar tree_4_3_u01_r2_network.node[23].content_store 	decision_no[23] 	8637
scalar tree_4_3_u01_r2_network.node[23].content_store 	decision_ratio[23] 	0.012123984902207
scalar tree_4_3_u01_r2_network.node[24].core_layer 	interests[24] 	12698
scalar tree_4_3_u01_r2_network.node[24].core_layer 	data[24] 	8981
scalar tree_4_3_u01_r2_network.node[24].content_store 	p_hit[24] 	0.29272326350606
scalar tree_4_3_u01_r2_network.node[24].content_store 	hits[24] 	3717
scalar tree_4_3_u01_r2_network.node[24].content_store 	misses[24] 	8981
scalar tree_4_3_u01_r2_network.node[24].content_store 	decision_yes[24] 	102
scalar tree_4_3_u01_r2_network.node[24].content_store 	decision_no[24] 	8879
scalar tree_4_3_u01_r2_network.node[24].content_store 	decision_ratio[24] 	0.011357309876406
scalar tree_4_3_u01_r2_network.node[25].core_layer 	interests[25] 	12507
scalar tree_4_3_u01_r2_network.node[25].core_layer 	data[25] 	8771
scalar tree_4_3_u01_r2_network.node[25].content_store 	p_hit[25] 	0.29871272087631
scalar tree_4_3_u01_r2_network.node[25].content_store 	hits[25] 	3736
scalar tree_4_3_u01_r2_network.node[25].content_store 	misses[25] 	8771
scalar tree_4_3_u01_r2_network.node[25].content_store 	decision_yes[25] 	89
scalar tree_4_3_u01_r2_network.node[25].content_store 	decision_no[25] 	8682
scalar tree_4_3_u01_r2_network.node[25].content_store 	decision_ratio[25] 	0.010147075590013
scalar tree_4_3_u01_r2_network.node[26].core_layer 	interests[26] 	12476
scalar tree_4_3_u01_r2_network.node[26].core_layer 	data[26] 	8807
scalar tree_4_3_u01_r2_network.node[26].content_store 	p_hit[26] 	0.29408464251363
scalar tree_4_3_u01_r2_network.node[26].content_store 	hits[26] 	3669
scalar tree_4_3_u01_r2_network.node[26].content_store 	misses[26] 	8807
scalar tree_4_3_u01_r2_network.node[26].content_store 	decision_yes[26] 	112
scalar tree_4_3_u01_r2_network.node[26].content_store 	decision_no[26] 	8695
scalar tree_4_3_u01_r2_network.node[26].content_store 	decision_ratio[26] 	0.012717156807085
scalar tree_4_3_u01_r2_network.node[27].core_layer 	interests[27] 	12311
scalar tree_4_3_u01_r2_network.node[27].core_layer 	data[27] 	8942
scalar tree_4_3_u01_r2_network.node[27].content_store 	p_hit[27] 	0.27365770449192
scalar tree_4_3_u01_r2_network.node[27].content_store 	hits[27] 	3369
scalar tree_4_3_u01_r2_network.node[27].content_store 	misses[27] 	8942
scalar tree_4_3_u01_r2_network.node[27].content_store 	decision_yes[27] 	121
scalar tree_4_3_u01_r2_network.node[27].content_store 	decision_no[27] 	8821
scalar tree_4_3_u01_r2_network.node[27].content_store 	decision_ratio[27] 	0.013531648400805
scalar tree_4_3_u01_r2_network.node[28].core_layer 	interests[28] 	13105
scalar tree_4_3_u01_r2_network.node[28].core_layer 	data[28] 	9074
scalar tree_4_3_u01_r2_network.node[28].content_store 	p_hit[28] 	0.30759252193819
scalar tree_4_3_u01_r2_network.node[28].content_store 	hits[28] 	4031
scalar tree_4_3_u01_r2_network.node[28].content_store 	misses[28] 	9074
scalar tree_4_3_u01_r2_network.node[28].content_store 	decision_yes[28] 	135
scalar tree_4_3_u01_r2_network.node[28].content_store 	decision_no[28] 	8939
scalar tree_4_3_u01_r2_network.node[28].content_store 	decision_ratio[28] 	0.014877672470796
scalar tree_4_3_u01_r2_network.node[29].core_layer 	interests[29] 	12326
scalar tree_4_3_u01_r2_network.node[29].core_layer 	data[29] 	8756
scalar tree_4_3_u01_r2_network.node[29].content_store 	p_hit[29] 	0.28946941424631
scalar tree_4_3_u01_r2_network.node[29].content_store 	hits[29] 	3568
scalar tree_4_3_u01_r2_network.node[29].content_store 	misses[29] 	8758
scalar tree_4_3_u01_r2_network.node[29].content_store 	decision_yes[29] 	95
scalar tree_4_3_u01_r2_network.node[29].content_store 	decision_no[29] 	8661
scalar tree_4_3_u01_r2_network.node[29].content_store 	decision_ratio[29] 	0.010849703060758
scalar tree_4_3_u01_r2_network.node[30].core_layer 	interests[30] 	12238
scalar tree_4_3_u01_r2_network.node[30].core_layer 	data[30] 	8822
scalar tree_4_3_u01_r2_network.node[30].content_store 	p_hit[30] 	0.27913057689165
scalar tree_4_3_u01_r2_network.node[30].content_store 	hits[30] 	3416
scalar tree_4_3_u01_r2_network.node[30].content_store 	misses[30] 	8822
scalar tree_4_3_u01_r2_network.node[30].content_store 	decision_yes[30] 	121
scalar tree_4_3_u01_r2_network.node[30].content_store 	decision_no[30] 	8701
scalar tree_4_3_u01_r2_network.node[30].content_store 	decision_ratio[30] 	0.013715710723192
scalar tree_4_3_u01_r2_network.node[31].core_layer 	interests[31] 	12723
scalar tree_4_3_u01_r2_network.node[31].core_layer 	data[31] 	8962
scalar tree_4_3_u01_r2_network.node[31].content_store 	p_hit[31] 	0.29560638214258
scalar tree_4_3_u01_r2_network.node[31].content_store 	hits[31] 	3761
scalar tree_4_3_u01_r2_network.node[31].content_store 	misses[31] 	8962
scalar tree_4_3_u01_r2_network.node[31].content_store 	decision_yes[31] 	112
scalar tree_4_3_u01_r2_network.node[31].content_store 	decision_no[31] 	8850
scalar tree_4_3_u01_r2_network.node[31].content_store 	decision_ratio[31] 	0.012497210444097
scalar tree_4_3_u01_r2_network.node[32].core_layer 	interests[32] 	12603
scalar tree_4_3_u01_r2_network.node[32].core_layer 	data[32] 	8811
scalar tree_4_3_u01_r2_network.node[32].content_store 	p_hit[32] 	0.30088074268031
scalar tree_4_3_u01_r2_network.node[32].content_store 	hits[32] 	3792
scalar tree_4_3_u01_r2_network.node[32].content_store 	misses[32] 	8811
scalar tree_4_3_u01_r2_network.node[32].content_store 	decision_yes[32] 	135
scalar tree_4_3_u01_r2_network.node[32].content_store 	decision_no[32] 	8676
scalar tree_4_3_u01_r2_network.node[32].content_store 	decision_ratio[32] 	0.015321756894791
scalar tree_4_3_u01_r2_network.node[33].core_layer 	interests[33] 	12847
scalar tree_4_3_u01_r2_network.node[33].core_layer 	data[33] 	9132
scalar tree_4_3_u01_r2_network.node[33].content_store 	p_hit[33] 	0.28909473028723
scalar tree_4_3_u01_r2_network.node[33].content_store 	hits[33] 	3714
scalar tree_4_3_u01_r2_network.node[33].content_store 	misses[33] 	9133
scalar tree_4_3_u01_r2_network.node[33].content_store 	decision_yes[33] 	125
scalar tree_4_3_u01_r2_network.node[33].content_store 	decision_no[33] 	9007
scalar tree_4_3_u01_r2_network.node[33].content_store 	decision_ratio[33] 	0.013688129653964
scalar tree_4_3_u01_r2_network.node[34].core_layer 	interests[34] 	12275
scalar tree_4_3_u01_r2_network.node[34].core_layer 	data[34] 	8713
scalar tree_4_3_u01_r2_network.node[34].content_store 	p_hit[34] 	0.290183299389
scalar tree_4_3_u01_r2_network.node[34].content_store 	hits[34] 	3562
scalar tree_4_3_u01_r2_network.node[34].content_store 	misses[34] 	8713
scalar tree_4_3_u01_r2_network.node[34].content_store 	decision_yes[34] 	108
scalar tree_4_3_u01_r2_network.node[34].content_store 	decision_no[34] 	8605
scalar tree_4_3_u01_r2_network.node[34].content_store 	decision_ratio[34] 	0.01239527143349
scalar tree_4_3_u01_r2_network.node[35].core_layer 	interests[35] 	12515
scalar tree_4_3_u01_r2_network.node[35].core_layer 	data[35] 	8971
scalar tree_4_3_u01_r2_network.node[35].content_store 	p_hit[35] 	0.2831002796644
scalar tree_4_3_u01_r2_network.node[35].content_store 	hits[35] 	3543
scalar tree_4_3_u01_r2_network.node[35].content_store 	misses[35] 	8972
scalar tree_4_3_u01_r2_network.node[35].content_store 	decision_yes[35] 	120
scalar tree_4_3_u01_r2_network.node[35].content_store 	decision_no[35] 	8851
scalar tree_4_3_u01_r2_network.node[35].content_store 	decision_ratio[35] 	0.013376435180025
scalar tree_4_3_u01_r2_network.node[36].core_layer 	interests[36] 	12389
scalar tree_4_3_u01_r2_network.node[36].core_layer 	data[36] 	8912
scalar tree_4_3_u01_r2_network.node[36].content_store 	p_hit[36] 	0.28065219146017
scalar tree_4_3_u01_r2_network.node[36].content_store 	hits[36] 	3477
scalar tree_4_3_u01_r2_network.node[36].content_store 	misses[36] 	8912
scalar tree_4_3_u01_r2_network.node[36].content_store 	decision_yes[36] 	106
scalar tree_4_3_u01_r2_network.node[36].content_store 	decision_no[36] 	8806
scalar tree_4_3_u01_r2_network.node[36].content_store 	decision_ratio[36] 	0.01189407540395
scalar tree_4_3_u01_r2_network.node[37].core_layer 	interests[37] 	12372
scalar tree_4_3_u01_r2_network.node[37].core_layer 	data[37] 	8716
scalar tree_4_3_u01_r2_network.node[37].content_store 	p_hit[37] 	0.29542515357258
scalar tree_4_3_u01_r2_network.node[37].content_store 	hits[37] 	3655
scalar tree_4_3_u01_r2_network.node[37].content_store 	misses[37] 	8717
scalar tree_4_3_u01_r2_network.node[37].content_store 	decision_yes[37] 	99
scalar tree_4_3_u01_r2_network.node[37].content_store 	decision_no[37] 	8617
scalar tree_4_3_u01_r2_network.node[37].content_store 	decision_ratio[37] 	0.011358421294172
scalar tree_4_3_u01_r2_network.node[38].core_layer 	interests[38] 	12534
scalar tree_4_3_u01_r2_network.node[38].core_layer 	data[38] 	8871
scalar tree_4_3_u01_r2_network.node[38].content_store 	p_hit[38] 	0.2922450933461
scalar tree_4_3_u01_r2_network.node[38].content_store 	hits[38] 	3663
scalar tree_4_3_u01_r2_network.node[38].content_store 	misses[38] 	8871
scalar tree_4_3_u01_r2_network.node[38].content_store 	decision_yes[38] 	115
scalar tree_4_3_u01_r2_network.node[38].content_store 	decision_no[38] 	8756
scalar tree_4_3_u01_r2_network.node[38].content_store 	decision_ratio[38] 	0.012963589223312
scalar tree_4_3_u01_r2_network.node[39].core_layer 	interests[39] 	12140
scalar tree_4_3_u01_r2_network.node[39].core_layer 	data[39] 	8682
scalar tree_4_3_u01_r2_network.node[39].content_store 	p_hit[39] 	0.28476112026359
scalar tree_4_3_u01_r2_network.node[39].content_store 	hits[39] 	3457
scalar tree_4_3_u01_r2_network.node[39].content_store 	misses[39] 	8683
scalar tree_4_3_u01_r2_network.node[39].content_store 	decision_yes[39] 	117
scalar tree_4_3_u01_r2_network.node[39].content_store 	decision_no[39] 	8565
scalar tree_4_3_u01_r2_network.node[39].content_store 	decision_ratio[39] 	0.013476157567381
scalar tree_4_3_u01_r2_network.client[13] 	hdistance[13] 	2.7159483849203
scalar tree_4_3_u01_r2_network.client[13] 	downloads[13] 	11857
scalar tree_4_3_u01_r2_network.client[13] 	avg_time[13] 	0.004235766922
scalar tree_4_3_u01_r2_network.client[14] 	hdistance[14] 	2.7286079709547
scalar tree_4_3_u01_r2_network.client[14] 	downloads[14] 	12119
scalar tree_4_3_u01_r2_network.client[14] 	avg_time[14] 	0.004267840829
scalar tree_4_3_u01_r2_network.client[15] 	hdistance[15] 	2.68899958489
scalar tree_4_3_u01_r2_network.client[15] 	downloads[15] 	12045
scalar tree_4_3_u01_r2_network.client[15] 	avg_time[15] 	0.004195104159
scalar tree_4_3_u01_r2_network.client[16] 	hdistance[16] 	2.6820894302297
scalar tree_4_3_u01_r2_network.client[16] 	downloads[16] 	12233
scalar tree_4_3_u01_r2_network.client[16] 	avg_time[16] 	0.00416087328
scalar tree_4_3_u01_r2_network.client[17] 	hdistance[17] 	2.732485128883
scalar tree_4_3_u01_r2_network.client[17] 	downloads[17] 	12104
scalar tree_4_3_u01_r2_network.client[17] 	avg_time[17] 	0.004267842339
scalar tree_4_3_u01_r2_network.client[18] 	hdistance[18] 	2.7491897282473
scalar tree_4_3_u01_r2_network.client[18] 	downloads[18] 	12033
scalar tree_4_3_u01_r2_network.client[18] 	avg_time[18] 	0.004289700266
scalar tree_4_3_u01_r2_network.client[19] 	hdistance[19] 	2.7110438729198
scalar tree_4_3_u01_r2_network.client[19] 	downloads[19] 	11898
scalar tree_4_3_u01_r2_network.client[19] 	avg_time[19] 	0.004237684011
scalar tree_4_3_u01_r2_network.client[20] 	hdistance[20] 	2.7348927875244
scalar tree_4_3_u01_r2_network.client[20] 	downloads[20] 	11799
scalar tree_4_3_u01_r2_network.client[20] 	avg_time[20] 	0.004281376836
scalar tree_4_3_u01_r2_network.client[21] 	hdistance[21] 	2.7114044437157
scalar tree_4_3_u01_r2_network.client[21] 	downloads[21] 	12197
scalar tree_4_3_u01_r2_network.client[21] 	avg_time[21] 	0.004239247689
scalar tree_4_3_u01_r2_network.client[22] 	hdistance[22] 	2.7217275526338
scalar tree_4_3_u01_r2_network.client[22] 	downloads[22] 	12017
scalar tree_4_3_u01_r2_network.client[22] 	avg_time[22] 	0.004218804236
scalar tree_4_3_u01_r2_network.client[23] 	hdistance[23] 	2.680679933665
scalar tree_4_3_u01_r2_network.client[23] 	downloads[23] 	12060
scalar tree_4_3_u01_r2_network.client[23] 	avg_time[23] 	0.004141953889
scalar tree_4_3_u01_r2_network.client[24] 	hdistance[24] 	2.7115227011965
scalar tree_4_3_u01_r2_network.client[24] 	downloads[24] 	12202
scalar tree_4_3_u01_r2_network.client[24] 	avg_time[24] 	0.004200271104
scalar tree_4_3_u01_r2_network.client[25] 	hdistance[25] 	2.7189607794154
scalar tree_4_3_u01_r2_network.client[25] 	downloads[25] 	12009
scalar tree_4_3_u01_r2_network.client[25] 	avg_time[25] 	0.004210006194
scalar tree_4_3_u01_r2_network.client[26] 	hdistance[26] 	2.7435382685069
scalar tree_4_3_u01_r2_network.client[26] 	downloads[26] 	11955
scalar tree_4_3_u01_r2_network.client[26] 	avg_time[26] 	0.004244954738
scalar tree_4_3_u01_r2_network.client[27] 	hdistance[27] 	2.7704587464292
scalar tree_4_3_u01_r2_network.client[27] 	downloads[27] 	11902
scalar tree_4_3_u01_r2_network.client[27] 	avg_time[27] 	0.004298770314
scalar tree_4_3_u01_r2_network.client[28] 	hdistance[28] 	2.7029326724494
scalar tree_4_3_u01_r2_network.client[28] 	downloads[28] 	12105
scalar tree_4_3_u01_r2_network.client[28] 	avg_time[28] 	0.00417000938
scalar tree_4_3_u01_r2_network.client[29] 	hdistance[29] 	2.7199431865653
scalar tree_4_3_u01_r2_network.client[29] 	downloads[29] 	11969
scalar tree_4_3_u01_r2_network.client[29] 	avg_time[29] 	0.004208886956
scalar tree_4_3_u01_r2_network.client[30] 	hdistance[30] 	2.7427037906743
scalar tree_4_3_u01_r2_network.client[30] 	downloads[30] 	11924
scalar tree_4_3_u01_r2_network.client[30] 	avg_time[30] 	0.004246726289
scalar tree_4_3_u01_r2_network.client[31] 	hdistance[31] 	2.7210623016536
scalar tree_4_3_u01_r2_network.client[31] 	downloads[31] 	11974
scalar tree_4_3_u01_r2_network.client[31] 	avg_time[31] 	0.004278767665
scalar tree_4_3_u01_r2_network.client[32] 	hdistance[32] 	2.6932103939648
scalar tree_4_3_u01_r2_network.client[32] 	downloads[32] 	11930
scalar tree_4_3_u01_r2_network.client[32] 	avg_time[32] 	0.004229502453
scalar tree_4_3_u01_r2_network.client[33] 	hdistance[33] 	2.7205060795268
scalar tree_4_3_u01_r2_network.client[33] 	downloads[33] 	12172
scalar tree_4_3_u01_r2_network.client[33] 	avg_time[33] 	0.004288199341
scalar tree_4_3_u01_r2_network.client[34] 	hdistance[34] 	2.7204491725768
scalar tree_4_3_u01_r2_network.client[34] 	downloads[34] 	11844
scalar tree_4_3_u01_r2_network.client[34] 	avg_time[34] 	0.004217660007
scalar tree_4_3_u01_r2_network.client[35] 	hdistance[35] 	2.73914481846
scalar tree_4_3_u01_r2_network.client[35] 	downloads[35] 	12091
scalar tree_4_3_u01_r2_network.client[35] 	avg_time[35] 	0.004248369034
scalar tree_4_3_u01_r2_network.client[36] 	hdistance[36] 	2.7544255177021
scalar tree_4_3_u01_r2_network.client[36] 	downloads[36] 	11976
scalar tree_4_3_u01_r2_network.client[36] 	avg_time[36] 	0.004269035106
scalar tree_4_3_u01_r2_network.client[37] 	hdistance[37] 	2.7088788183954
scalar tree_4_3_u01_r2_network.client[37] 	downloads[37] 	11916
scalar tree_4_3_u01_r2_network.client[37] 	avg_time[37] 	0.004199390148
scalar tree_4_3_u01_r2_network.client[38] 	hdistance[38] 	2.7217708506052
scalar tree_4_3_u01_r2_network.client[38] 	downloads[38] 	12062
scalar tree_4_3_u01_r2_network.client[38] 	avg_time[38] 	0.004220192643
scalar tree_4_3_u01_r2_network.client[39] 	hdistance[39] 	2.740431335777
scalar tree_4_3_u01_r2_network.client[39] 	downloads[39] 	11731
scalar tree_4_3_u01_r2_network.client[39] 	avg_time[39] 	0.004244988945
