version 2
run General-84-20160820-08:11:26-856
attr a 0.9
attr cd lcd
attr configname General
attr cr lru
attr datetime 20160820-08:11:26
attr experiment General
attr fsize 1
attr inifile hw5115/scenario_A/SPR-LCD.ini
attr iterationvars "$name=tree_4_3, $un=04, $rep=5, $cd=lcd, $cr=lru, $fsize=1, $a=0.9, $sl=spr, $ttl=1000, $variance=0.05"
attr iterationvars2 "$name=tree_4_3, $un=04, $rep=5, $cd=lcd, $cr=lru, $fsize=1, $a=0.9, $sl=spr, $ttl=1000, $variance=0.05, $repetition=0"
attr measurement "$name=tree_4_3, $un=04, $rep=5, $cd=lcd, $cr=lru, $fsize=1, $a=0.9, $sl=spr, $ttl=1000, $variance=0.05"
attr name tree_4_3
attr network networks.${name}_u${un}_r${rep}_network
attr processid 856
attr rep 5
attr repetition 0
attr replication #0
attr resultdir results
attr runnumber 84
attr seedset 5
attr sl spr
attr ttl 1000
attr un 04
attr variance 0.05

scalar . 	a 	0.9
scalar . 	fsize 	1
scalar . 	rep 	5
scalar . 	ttl 	1000
scalar . 	un 	04
scalar . 	variance 	0.05
scalar tree_4_3_u04_r5_network.content_distribution 	repo-0 	0
scalar tree_4_3_u04_r5_network.content_distribution 	client-0 	13
scalar tree_4_3_u04_r5_network.content_distribution 	client-1 	14
scalar tree_4_3_u04_r5_network.content_distribution 	client-2 	15
scalar tree_4_3_u04_r5_network.content_distribution 	client-3 	16
scalar tree_4_3_u04_r5_network.content_distribution 	client-4 	17
scalar tree_4_3_u04_r5_network.content_distribution 	client-5 	18
scalar tree_4_3_u04_r5_network.content_distribution 	client-6 	19
scalar tree_4_3_u04_r5_network.content_distribution 	client-7 	20
scalar tree_4_3_u04_r5_network.content_distribution 	client-8 	21
scalar tree_4_3_u04_r5_network.content_distribution 	client-9 	22
scalar tree_4_3_u04_r5_network.content_distribution 	client-10 	23
scalar tree_4_3_u04_r5_network.content_distribution 	client-11 	24
scalar tree_4_3_u04_r5_network.content_distribution 	client-12 	25
scalar tree_4_3_u04_r5_network.content_distribution 	client-13 	26
scalar tree_4_3_u04_r5_network.content_distribution 	client-14 	27
scalar tree_4_3_u04_r5_network.content_distribution 	client-15 	28
scalar tree_4_3_u04_r5_network.content_distribution 	client-16 	29
scalar tree_4_3_u04_r5_network.content_distribution 	client-17 	30
scalar tree_4_3_u04_r5_network.content_distribution 	client-18 	31
scalar tree_4_3_u04_r5_network.content_distribution 	client-19 	32
scalar tree_4_3_u04_r5_network.content_distribution 	client-20 	33
scalar tree_4_3_u04_r5_network.content_distribution 	client-21 	34
scalar tree_4_3_u04_r5_network.content_distribution 	client-22 	35
scalar tree_4_3_u04_r5_network.content_distribution 	client-23 	36
scalar tree_4_3_u04_r5_network.content_distribution 	client-24 	37
scalar tree_4_3_u04_r5_network.content_distribution 	client-25 	38
scalar tree_4_3_u04_r5_network.content_distribution 	client-26 	39
scalar tree_4_3_u04_r5_network.content_distribution 	repo-0_card 	100000
scalar tree_4_3_u04_r5_network.content_distribution 	repo-0_price 	0
scalar tree_4_3_u04_r5_network.statistics 	stabilization_time 	1121.8
scalar tree_4_3_u04_r5_network.statistics 	p_hit 	0.18774703495325
scalar tree_4_3_u04_r5_network.statistics 	interests 	25474.25
scalar tree_4_3_u04_r5_network.statistics 	data 	17374.625
scalar tree_4_3_u04_r5_network.statistics 	hdistance 	2.8379956937287
scalar tree_4_3_u04_r5_network.statistics 	avg_time 	0.004290363497
scalar tree_4_3_u04_r5_network.statistics 	downloads 	323979
scalar tree_4_3_u04_r5_network.statistics 	total_cost 	0
scalar tree_4_3_u04_r5_network.statistics 	total_replicas 	100000
scalar tree_4_3_u04_r5_network.statistics 	inner_hit 	0.30723904944456
scalar tree_4_3_u04_r5_network.node[0].core_layer 	interests[0] 	226626
scalar tree_4_3_u04_r5_network.node[0].core_layer 	repo_load[0] 	224440
scalar tree_4_3_u04_r5_network.node[0].core_layer 	data[0] 	0
scalar tree_4_3_u04_r5_network.node[0].core_layer 	repo_int[0] 	224440
scalar tree_4_3_u04_r5_network.node[0].content_store 	p_hit[0] 	0.0096458482257111
scalar tree_4_3_u04_r5_network.node[0].content_store 	hits[0] 	2186
scalar tree_4_3_u04_r5_network.node[0].content_store 	misses[0] 	224440
scalar tree_4_3_u04_r5_network.node[0].content_store 	decision_yes[0] 	224440
scalar tree_4_3_u04_r5_network.node[0].content_store 	decision_no[0] 	0
scalar tree_4_3_u04_r5_network.node[0].content_store 	decision_ratio[0] 	1
scalar tree_4_3_u04_r5_network.node[1].core_layer 	interests[1] 	110767
scalar tree_4_3_u04_r5_network.node[1].core_layer 	data[1] 	108731
scalar tree_4_3_u04_r5_network.node[1].content_store 	p_hit[1] 	0.018362869807795
scalar tree_4_3_u04_r5_network.node[1].content_store 	hits[1] 	2034
scalar tree_4_3_u04_r5_network.node[1].content_store 	misses[1] 	108733
scalar tree_4_3_u04_r5_network.node[1].content_store 	decision_yes[1] 	1024
scalar tree_4_3_u04_r5_network.node[1].content_store 	decision_no[1] 	107707
scalar tree_4_3_u04_r5_network.node[1].content_store 	decision_ratio[1] 	0.0094177373518132
scalar tree_4_3_u04_r5_network.node[2].core_layer 	interests[2] 	77049
scalar tree_4_3_u04_r5_network.node[2].core_layer 	data[2] 	75776
scalar tree_4_3_u04_r5_network.node[2].content_store 	p_hit[2] 	0.016508974808239
scalar tree_4_3_u04_r5_network.node[2].content_store 	hits[2] 	1272
scalar tree_4_3_u04_r5_network.node[2].content_store 	misses[2] 	75777
scalar tree_4_3_u04_r5_network.node[2].content_store 	decision_yes[2] 	762
scalar tree_4_3_u04_r5_network.node[2].content_store 	decision_no[2] 	75014
scalar tree_4_3_u04_r5_network.node[2].content_store 	decision_ratio[2] 	0.010055954391892
scalar tree_4_3_u04_r5_network.node[3].core_layer 	interests[3] 	42691
scalar tree_4_3_u04_r5_network.node[3].core_layer 	data[3] 	42120
scalar tree_4_3_u04_r5_network.node[3].content_store 	p_hit[3] 	0.01337518446511
scalar tree_4_3_u04_r5_network.node[3].content_store 	hits[3] 	571
scalar tree_4_3_u04_r5_network.node[3].content_store 	misses[3] 	42120
scalar tree_4_3_u04_r5_network.node[3].content_store 	decision_yes[3] 	400
scalar tree_4_3_u04_r5_network.node[3].content_store 	decision_no[3] 	41720
scalar tree_4_3_u04_r5_network.node[3].content_store 	decision_ratio[3] 	0.0094966761633428
scalar tree_4_3_u04_r5_network.node[4].core_layer 	interests[4] 	35100
scalar tree_4_3_u04_r5_network.node[4].core_layer 	data[4] 	33941
scalar tree_4_3_u04_r5_network.node[4].content_store 	p_hit[4] 	0.033048433048433
scalar tree_4_3_u04_r5_network.node[4].content_store 	hits[4] 	1160
scalar tree_4_3_u04_r5_network.node[4].content_store 	misses[4] 	33940
scalar tree_4_3_u04_r5_network.node[4].content_store 	decision_yes[4] 	572
scalar tree_4_3_u04_r5_network.node[4].content_store 	decision_no[4] 	33369
scalar tree_4_3_u04_r5_network.node[4].content_store 	decision_ratio[4] 	0.016852773931234
scalar tree_4_3_u04_r5_network.node[5].core_layer 	interests[5] 	17826
scalar tree_4_3_u04_r5_network.node[5].core_layer 	data[5] 	17256
scalar tree_4_3_u04_r5_network.node[5].content_store 	p_hit[5] 	0.031919667900819
scalar tree_4_3_u04_r5_network.node[5].content_store 	hits[5] 	569
scalar tree_4_3_u04_r5_network.node[5].content_store 	misses[5] 	17257
scalar tree_4_3_u04_r5_network.node[5].content_store 	decision_yes[5] 	392
scalar tree_4_3_u04_r5_network.node[5].content_store 	decision_no[5] 	16864
scalar tree_4_3_u04_r5_network.node[5].content_store 	decision_ratio[5] 	0.022716736207696
scalar tree_4_3_u04_r5_network.node[6].core_layer 	interests[6] 	26390
scalar tree_4_3_u04_r5_network.node[6].core_layer 	data[6] 	25543
scalar tree_4_3_u04_r5_network.node[6].content_store 	p_hit[6] 	0.03209549071618
scalar tree_4_3_u04_r5_network.node[6].content_store 	hits[6] 	847
scalar tree_4_3_u04_r5_network.node[6].content_store 	misses[6] 	25543
scalar tree_4_3_u04_r5_network.node[6].content_store 	decision_yes[6] 	517
scalar tree_4_3_u04_r5_network.node[6].content_store 	decision_no[6] 	25026
scalar tree_4_3_u04_r5_network.node[6].content_store 	decision_ratio[6] 	0.020240378968798
scalar tree_4_3_u04_r5_network.node[7].core_layer 	interests[7] 	35178
scalar tree_4_3_u04_r5_network.node[7].core_layer 	data[7] 	34027
scalar tree_4_3_u04_r5_network.node[7].content_store 	p_hit[7] 	0.032662459491728
scalar tree_4_3_u04_r5_network.node[7].content_store 	hits[7] 	1149
scalar tree_4_3_u04_r5_network.node[7].content_store 	misses[7] 	34029
scalar tree_4_3_u04_r5_network.node[7].content_store 	decision_yes[7] 	553
scalar tree_4_3_u04_r5_network.node[7].content_store 	decision_no[7] 	33474
scalar tree_4_3_u04_r5_network.node[7].content_store 	decision_ratio[7] 	0.016251800041144
scalar tree_4_3_u04_r5_network.node[8].core_layer 	interests[8] 	17835
scalar tree_4_3_u04_r5_network.node[8].core_layer 	data[8] 	17332
scalar tree_4_3_u04_r5_network.node[8].content_store 	p_hit[8] 	0.028202971684889
scalar tree_4_3_u04_r5_network.node[8].content_store 	hits[8] 	503
scalar tree_4_3_u04_r5_network.node[8].content_store 	misses[8] 	17332
scalar tree_4_3_u04_r5_network.node[8].content_store 	decision_yes[8] 	350
scalar tree_4_3_u04_r5_network.node[8].content_store 	decision_no[8] 	16982
scalar tree_4_3_u04_r5_network.node[8].content_store 	decision_ratio[8] 	0.020193861066236
scalar tree_4_3_u04_r5_network.node[9].core_layer 	interests[9] 	26288
scalar tree_4_3_u04_r5_network.node[9].core_layer 	data[9] 	25515
scalar tree_4_3_u04_r5_network.node[9].content_store 	p_hit[9] 	0.029328971393792
scalar tree_4_3_u04_r5_network.node[9].content_store 	hits[9] 	771
scalar tree_4_3_u04_r5_network.node[9].content_store 	misses[9] 	25517
scalar tree_4_3_u04_r5_network.node[9].content_store 	decision_yes[9] 	423
scalar tree_4_3_u04_r5_network.node[9].content_store 	decision_no[9] 	25092
scalar tree_4_3_u04_r5_network.node[9].content_store 	decision_ratio[9] 	0.01657848324515
scalar tree_4_3_u04_r5_network.node[10].core_layer 	interests[10] 	17584
scalar tree_4_3_u04_r5_network.node[10].core_layer 	data[10] 	17092
scalar tree_4_3_u04_r5_network.node[10].content_store 	p_hit[10] 	0.027979981801638
scalar tree_4_3_u04_r5_network.node[10].content_store 	hits[10] 	492
scalar tree_4_3_u04_r5_network.node[10].content_store 	misses[10] 	17092
scalar tree_4_3_u04_r5_network.node[10].content_store 	decision_yes[10] 	261
scalar tree_4_3_u04_r5_network.node[10].content_store 	decision_no[10] 	16831
scalar tree_4_3_u04_r5_network.node[10].content_store 	decision_ratio[10] 	0.015270301895624
scalar tree_4_3_u04_r5_network.node[11].core_layer 	interests[11] 	35355
scalar tree_4_3_u04_r5_network.node[11].core_layer 	data[11] 	34202
scalar tree_4_3_u04_r5_network.node[11].content_store 	p_hit[11] 	0.032612077499646
scalar tree_4_3_u04_r5_network.node[11].content_store 	hits[11] 	1153
scalar tree_4_3_u04_r5_network.node[11].content_store 	misses[11] 	34202
scalar tree_4_3_u04_r5_network.node[11].content_store 	decision_yes[11] 	499
scalar tree_4_3_u04_r5_network.node[11].content_store 	decision_no[11] 	33703
scalar tree_4_3_u04_r5_network.node[11].content_store 	decision_ratio[11] 	0.014589790070756
scalar tree_4_3_u04_r5_network.node[12].core_layer 	interests[12] 	26297
scalar tree_4_3_u04_r5_network.node[12].core_layer 	data[12] 	25599
scalar tree_4_3_u04_r5_network.node[12].content_store 	p_hit[12] 	0.026466897364718
scalar tree_4_3_u04_r5_network.node[12].content_store 	hits[12] 	696
scalar tree_4_3_u04_r5_network.node[12].content_store 	misses[12] 	25601
scalar tree_4_3_u04_r5_network.node[12].content_store 	decision_yes[12] 	310
scalar tree_4_3_u04_r5_network.node[12].content_store 	decision_no[12] 	25289
scalar tree_4_3_u04_r5_network.node[12].content_store 	decision_ratio[12] 	0.012109848040939
scalar tree_4_3_u04_r5_network.node[13].core_layer 	interests[13] 	11951
scalar tree_4_3_u04_r5_network.node[13].core_layer 	data[13] 	8709
scalar tree_4_3_u04_r5_network.node[13].content_store 	p_hit[13] 	0.27110702033303
scalar tree_4_3_u04_r5_network.node[13].content_store 	hits[13] 	3240
scalar tree_4_3_u04_r5_network.node[13].content_store 	misses[13] 	8711
scalar tree_4_3_u04_r5_network.node[13].content_store 	decision_yes[13] 	268
scalar tree_4_3_u04_r5_network.node[13].content_store 	decision_no[13] 	8441
scalar tree_4_3_u04_r5_network.node[13].content_store 	decision_ratio[13] 	0.030772763807555
scalar tree_4_3_u04_r5_network.node[14].core_layer 	interests[14] 	12086
scalar tree_4_3_u04_r5_network.node[14].core_layer 	data[14] 	8915
scalar tree_4_3_u04_r5_network.node[14].content_store 	p_hit[14] 	0.26236968393182
scalar tree_4_3_u04_r5_network.node[14].content_store 	hits[14] 	3171
scalar tree_4_3_u04_r5_network.node[14].content_store 	misses[14] 	8915
scalar tree_4_3_u04_r5_network.node[14].content_store 	decision_yes[14] 	310
scalar tree_4_3_u04_r5_network.node[14].content_store 	decision_no[14] 	8605
scalar tree_4_3_u04_r5_network.node[14].content_store 	decision_ratio[14] 	0.034772854739204
scalar tree_4_3_u04_r5_network.node[15].core_layer 	interests[15] 	11926
scalar tree_4_3_u04_r5_network.node[15].core_layer 	data[15] 	8776
scalar tree_4_3_u04_r5_network.node[15].content_store 	p_hit[15] 	0.26412879423109
scalar tree_4_3_u04_r5_network.node[15].content_store 	hits[15] 	3150
scalar tree_4_3_u04_r5_network.node[15].content_store 	misses[15] 	8776
scalar tree_4_3_u04_r5_network.node[15].content_store 	decision_yes[15] 	305
scalar tree_4_3_u04_r5_network.node[15].content_store 	decision_no[15] 	8471
scalar tree_4_3_u04_r5_network.node[15].content_store 	decision_ratio[15] 	0.03475387420237
scalar tree_4_3_u04_r5_network.node[16].core_layer 	interests[16] 	11922
scalar tree_4_3_u04_r5_network.node[16].core_layer 	data[16] 	8700
scalar tree_4_3_u04_r5_network.node[16].content_store 	p_hit[16] 	0.27025666834424
scalar tree_4_3_u04_r5_network.node[16].content_store 	hits[16] 	3222
scalar tree_4_3_u04_r5_network.node[16].content_store 	misses[16] 	8700
scalar tree_4_3_u04_r5_network.node[16].content_store 	decision_yes[16] 	277
scalar tree_4_3_u04_r5_network.node[16].content_store 	decision_no[16] 	8423
scalar tree_4_3_u04_r5_network.node[16].content_store 	decision_ratio[16] 	0.03183908045977
scalar tree_4_3_u04_r5_network.node[17].core_layer 	interests[17] 	12051
scalar tree_4_3_u04_r5_network.node[17].core_layer 	data[17] 	8867
scalar tree_4_3_u04_r5_network.node[17].content_store 	p_hit[17] 	0.26421043896772
scalar tree_4_3_u04_r5_network.node[17].content_store 	hits[17] 	3184
scalar tree_4_3_u04_r5_network.node[17].content_store 	misses[17] 	8867
scalar tree_4_3_u04_r5_network.node[17].content_store 	decision_yes[17] 	283
scalar tree_4_3_u04_r5_network.node[17].content_store 	decision_no[17] 	8584
scalar tree_4_3_u04_r5_network.node[17].content_store 	decision_ratio[17] 	0.031916093379948
scalar tree_4_3_u04_r5_network.node[18].core_layer 	interests[18] 	12166
scalar tree_4_3_u04_r5_network.node[18].core_layer 	data[18] 	8959
scalar tree_4_3_u04_r5_network.node[18].content_store 	p_hit[18] 	0.26360348512247
scalar tree_4_3_u04_r5_network.node[18].content_store 	hits[18] 	3207
scalar tree_4_3_u04_r5_network.node[18].content_store 	misses[18] 	8959
scalar tree_4_3_u04_r5_network.node[18].content_store 	decision_yes[18] 	286
scalar tree_4_3_u04_r5_network.node[18].content_store 	decision_no[18] 	8673
scalar tree_4_3_u04_r5_network.node[18].content_store 	decision_ratio[18] 	0.031923205714924
scalar tree_4_3_u04_r5_network.node[19].core_layer 	interests[19] 	12068
scalar tree_4_3_u04_r5_network.node[19].core_layer 	data[19] 	8834
scalar tree_4_3_u04_r5_network.node[19].content_store 	p_hit[19] 	0.26798143851508
scalar tree_4_3_u04_r5_network.node[19].content_store 	hits[19] 	3234
scalar tree_4_3_u04_r5_network.node[19].content_store 	misses[19] 	8834
scalar tree_4_3_u04_r5_network.node[19].content_store 	decision_yes[19] 	297
scalar tree_4_3_u04_r5_network.node[19].content_store 	decision_no[19] 	8537
scalar tree_4_3_u04_r5_network.node[19].content_store 	decision_ratio[19] 	0.033620104143084
scalar tree_4_3_u04_r5_network.node[20].core_layer 	interests[20] 	12082
scalar tree_4_3_u04_r5_network.node[20].core_layer 	data[20] 	8880
scalar tree_4_3_u04_r5_network.node[20].content_store 	p_hit[20] 	0.26502234729349
scalar tree_4_3_u04_r5_network.node[20].content_store 	hits[20] 	3202
scalar tree_4_3_u04_r5_network.node[20].content_store 	misses[20] 	8880
scalar tree_4_3_u04_r5_network.node[20].content_store 	decision_yes[20] 	283
scalar tree_4_3_u04_r5_network.node[20].content_store 	decision_no[20] 	8597
scalar tree_4_3_u04_r5_network.node[20].content_store 	decision_ratio[20] 	0.031869369369369
scalar tree_4_3_u04_r5_network.node[21].core_layer 	interests[21] 	11891
scalar tree_4_3_u04_r5_network.node[21].core_layer 	data[21] 	8676
scalar tree_4_3_u04_r5_network.node[21].content_store 	p_hit[21] 	0.27037255066857
scalar tree_4_3_u04_r5_network.node[21].content_store 	hits[21] 	3215
scalar tree_4_3_u04_r5_network.node[21].content_store 	misses[21] 	8676
scalar tree_4_3_u04_r5_network.node[21].content_store 	decision_yes[21] 	267
scalar tree_4_3_u04_r5_network.node[21].content_store 	decision_no[21] 	8409
scalar tree_4_3_u04_r5_network.node[21].content_store 	decision_ratio[21] 	0.030774550484094
scalar tree_4_3_u04_r5_network.node[22].core_layer 	interests[22] 	11965
scalar tree_4_3_u04_r5_network.node[22].core_layer 	data[22] 	8750
scalar tree_4_3_u04_r5_network.node[22].content_store 	p_hit[22] 	0.26870037609695
scalar tree_4_3_u04_r5_network.node[22].content_store 	hits[22] 	3215
scalar tree_4_3_u04_r5_network.node[22].content_store 	misses[22] 	8750
scalar tree_4_3_u04_r5_network.node[22].content_store 	decision_yes[22] 	309
scalar tree_4_3_u04_r5_network.node[22].content_store 	decision_no[22] 	8441
scalar tree_4_3_u04_r5_network.node[22].content_store 	decision_ratio[22] 	0.035314285714286
scalar tree_4_3_u04_r5_network.node[23].core_layer 	interests[23] 	11979
scalar tree_4_3_u04_r5_network.node[23].core_layer 	data[23] 	8788
scalar tree_4_3_u04_r5_network.node[23].content_store 	p_hit[23] 	0.26629935720845
scalar tree_4_3_u04_r5_network.node[23].content_store 	hits[23] 	3190
scalar tree_4_3_u04_r5_network.node[23].content_store 	misses[23] 	8789
scalar tree_4_3_u04_r5_network.node[23].content_store 	decision_yes[23] 	287
scalar tree_4_3_u04_r5_network.node[23].content_store 	decision_no[23] 	8501
scalar tree_4_3_u04_r5_network.node[23].content_store 	decision_ratio[23] 	0.032658170232135
scalar tree_4_3_u04_r5_network.node[24].core_layer 	interests[24] 	12083
scalar tree_4_3_u04_r5_network.node[24].core_layer 	data[24] 	8817
scalar tree_4_3_u04_r5_network.node[24].content_store 	p_hit[24] 	0.27029711164446
scalar tree_4_3_u04_r5_network.node[24].content_store 	hits[24] 	3266
scalar tree_4_3_u04_r5_network.node[24].content_store 	misses[24] 	8817
scalar tree_4_3_u04_r5_network.node[24].content_store 	decision_yes[24] 	276
scalar tree_4_3_u04_r5_network.node[24].content_store 	decision_no[24] 	8541
scalar tree_4_3_u04_r5_network.node[24].content_store 	decision_ratio[24] 	0.031303164341613
scalar tree_4_3_u04_r5_network.node[25].core_layer 	interests[25] 	12043
scalar tree_4_3_u04_r5_network.node[25].core_layer 	data[25] 	8822
scalar tree_4_3_u04_r5_network.node[25].content_store 	p_hit[25] 	0.26745827451632
scalar tree_4_3_u04_r5_network.node[25].content_store 	hits[25] 	3221
scalar tree_4_3_u04_r5_network.node[25].content_store 	misses[25] 	8822
scalar tree_4_3_u04_r5_network.node[25].content_store 	decision_yes[25] 	277
scalar tree_4_3_u04_r5_network.node[25].content_store 	decision_no[25] 	8545
scalar tree_4_3_u04_r5_network.node[25].content_store 	decision_ratio[25] 	0.031398775787803
scalar tree_4_3_u04_r5_network.node[26].core_layer 	interests[26] 	12088
scalar tree_4_3_u04_r5_network.node[26].core_layer 	data[26] 	8807
scalar tree_4_3_u04_r5_network.node[26].content_store 	p_hit[26] 	0.2714262078094
scalar tree_4_3_u04_r5_network.node[26].content_store 	hits[26] 	3281
scalar tree_4_3_u04_r5_network.node[26].content_store 	misses[26] 	8807
scalar tree_4_3_u04_r5_network.node[26].content_store 	decision_yes[26] 	249
scalar tree_4_3_u04_r5_network.node[26].content_store 	decision_no[26] 	8558
scalar tree_4_3_u04_r5_network.node[26].content_store 	decision_ratio[26] 	0.028272964687181
scalar tree_4_3_u04_r5_network.node[27].core_layer 	interests[27] 	12287
scalar tree_4_3_u04_r5_network.node[27].core_layer 	data[27] 	9028
scalar tree_4_3_u04_r5_network.node[27].content_store 	p_hit[27] 	0.26515829738748
scalar tree_4_3_u04_r5_network.node[27].content_store 	hits[27] 	3258
scalar tree_4_3_u04_r5_network.node[27].content_store 	misses[27] 	9029
scalar tree_4_3_u04_r5_network.node[27].content_store 	decision_yes[27] 	254
scalar tree_4_3_u04_r5_network.node[27].content_store 	decision_no[27] 	8774
scalar tree_4_3_u04_r5_network.node[27].content_store 	decision_ratio[27] 	0.028134692069118
scalar tree_4_3_u04_r5_network.node[28].core_layer 	interests[28] 	11887
scalar tree_4_3_u04_r5_network.node[28].core_layer 	data[28] 	8710
scalar tree_4_3_u04_r5_network.node[28].content_store 	p_hit[28] 	0.26726676200892
scalar tree_4_3_u04_r5_network.node[28].content_store 	hits[28] 	3177
scalar tree_4_3_u04_r5_network.node[28].content_store 	misses[28] 	8710
scalar tree_4_3_u04_r5_network.node[28].content_store 	decision_yes[28] 	270
scalar tree_4_3_u04_r5_network.node[28].content_store 	decision_no[28] 	8440
scalar tree_4_3_u04_r5_network.node[28].content_store 	decision_ratio[28] 	0.030998851894374
scalar tree_4_3_u04_r5_network.node[29].core_layer 	interests[29] 	12045
scalar tree_4_3_u04_r5_network.node[29].core_layer 	data[29] 	8841
scalar tree_4_3_u04_r5_network.node[29].content_store 	p_hit[29] 	0.26591946865919
scalar tree_4_3_u04_r5_network.node[29].content_store 	hits[29] 	3203
scalar tree_4_3_u04_r5_network.node[29].content_store 	misses[29] 	8842
scalar tree_4_3_u04_r5_network.node[29].content_store 	decision_yes[29] 	254
scalar tree_4_3_u04_r5_network.node[29].content_store 	decision_no[29] 	8587
scalar tree_4_3_u04_r5_network.node[29].content_store 	decision_ratio[29] 	0.028729781698903
scalar tree_4_3_u04_r5_network.node[30].core_layer 	interests[30] 	11965
scalar tree_4_3_u04_r5_network.node[30].core_layer 	data[30] 	8736
scalar tree_4_3_u04_r5_network.node[30].content_store 	p_hit[30] 	0.26987045549519
scalar tree_4_3_u04_r5_network.node[30].content_store 	hits[30] 	3229
scalar tree_4_3_u04_r5_network.node[30].content_store 	misses[30] 	8736
scalar tree_4_3_u04_r5_network.node[30].content_store 	decision_yes[30] 	247
scalar tree_4_3_u04_r5_network.node[30].content_store 	decision_no[30] 	8489
scalar tree_4_3_u04_r5_network.node[30].content_store 	decision_ratio[30] 	0.02827380952381
scalar tree_4_3_u04_r5_network.node[31].core_layer 	interests[31] 	11966
scalar tree_4_3_u04_r5_network.node[31].core_layer 	data[31] 	8728
scalar tree_4_3_u04_r5_network.node[31].content_store 	p_hit[31] 	0.27060003342805
scalar tree_4_3_u04_r5_network.node[31].content_store 	hits[31] 	3238
scalar tree_4_3_u04_r5_network.node[31].content_store 	misses[31] 	8728
scalar tree_4_3_u04_r5_network.node[31].content_store 	decision_yes[31] 	235
scalar tree_4_3_u04_r5_network.node[31].content_store 	decision_no[31] 	8493
scalar tree_4_3_u04_r5_network.node[31].content_store 	decision_ratio[31] 	0.0269248395967
scalar tree_4_3_u04_r5_network.node[32].core_layer 	interests[32] 	11974
scalar tree_4_3_u04_r5_network.node[32].core_layer 	data[32] 	8800
scalar tree_4_3_u04_r5_network.node[32].content_store 	p_hit[32] 	0.26507432771004
scalar tree_4_3_u04_r5_network.node[32].content_store 	hits[32] 	3174
scalar tree_4_3_u04_r5_network.node[32].content_store 	misses[32] 	8800
scalar tree_4_3_u04_r5_network.node[32].content_store 	decision_yes[32] 	291
scalar tree_4_3_u04_r5_network.node[32].content_store 	decision_no[32] 	8509
scalar tree_4_3_u04_r5_network.node[32].content_store 	decision_ratio[32] 	0.033068181818182
scalar tree_4_3_u04_r5_network.node[33].core_layer 	interests[33] 	12045
scalar tree_4_3_u04_r5_network.node[33].core_layer 	data[33] 	8856
scalar tree_4_3_u04_r5_network.node[33].content_store 	p_hit[33] 	0.26475716064757
scalar tree_4_3_u04_r5_network.node[33].content_store 	hits[33] 	3189
scalar tree_4_3_u04_r5_network.node[33].content_store 	misses[33] 	8856
scalar tree_4_3_u04_r5_network.node[33].content_store 	decision_yes[33] 	257
scalar tree_4_3_u04_r5_network.node[33].content_store 	decision_no[33] 	8599
scalar tree_4_3_u04_r5_network.node[33].content_store 	decision_ratio[33] 	0.029019873532069
scalar tree_4_3_u04_r5_network.node[34].core_layer 	interests[34] 	11841
scalar tree_4_3_u04_r5_network.node[34].core_layer 	data[34] 	8734
scalar tree_4_3_u04_r5_network.node[34].content_store 	p_hit[34] 	0.26239337893759
scalar tree_4_3_u04_r5_network.node[34].content_store 	hits[34] 	3107
scalar tree_4_3_u04_r5_network.node[34].content_store 	misses[34] 	8734
scalar tree_4_3_u04_r5_network.node[34].content_store 	decision_yes[34] 	281
scalar tree_4_3_u04_r5_network.node[34].content_store 	decision_no[34] 	8453
scalar tree_4_3_u04_r5_network.node[34].content_store 	decision_ratio[34] 	0.032173116555988
scalar tree_4_3_u04_r5_network.node[35].core_layer 	interests[35] 	11956
scalar tree_4_3_u04_r5_network.node[35].core_layer 	data[35] 	8864
scalar tree_4_3_u04_r5_network.node[35].content_store 	p_hit[35] 	0.25861492137839
scalar tree_4_3_u04_r5_network.node[35].content_store 	hits[35] 	3092
scalar tree_4_3_u04_r5_network.node[35].content_store 	misses[35] 	8864
scalar tree_4_3_u04_r5_network.node[35].content_store 	decision_yes[35] 	294
scalar tree_4_3_u04_r5_network.node[35].content_store 	decision_no[35] 	8570
scalar tree_4_3_u04_r5_network.node[35].content_store 	decision_ratio[35] 	0.033167870036101
scalar tree_4_3_u04_r5_network.node[36].core_layer 	interests[36] 	12097
scalar tree_4_3_u04_r5_network.node[36].core_layer 	data[36] 	8957
scalar tree_4_3_u04_r5_network.node[36].content_store 	p_hit[36] 	0.25956848805489
scalar tree_4_3_u04_r5_network.node[36].content_store 	hits[36] 	3140
scalar tree_4_3_u04_r5_network.node[36].content_store 	misses[36] 	8957
scalar tree_4_3_u04_r5_network.node[36].content_store 	decision_yes[36] 	287
scalar tree_4_3_u04_r5_network.node[36].content_store 	decision_no[36] 	8670
scalar tree_4_3_u04_r5_network.node[36].content_store 	decision_ratio[36] 	0.032041978340962
scalar tree_4_3_u04_r5_network.node[37].core_layer 	interests[37] 	11810
scalar tree_4_3_u04_r5_network.node[37].core_layer 	data[37] 	8705
scalar tree_4_3_u04_r5_network.node[37].content_store 	p_hit[37] 	0.26291278577477
scalar tree_4_3_u04_r5_network.node[37].content_store 	hits[37] 	3105
scalar tree_4_3_u04_r5_network.node[37].content_store 	misses[37] 	8705
scalar tree_4_3_u04_r5_network.node[37].content_store 	decision_yes[37] 	258
scalar tree_4_3_u04_r5_network.node[37].content_store 	decision_no[37] 	8447
scalar tree_4_3_u04_r5_network.node[37].content_store 	decision_ratio[37] 	0.029638139000574
scalar tree_4_3_u04_r5_network.node[38].core_layer 	interests[38] 	11858
scalar tree_4_3_u04_r5_network.node[38].core_layer 	data[38] 	8761
scalar tree_4_3_u04_r5_network.node[38].content_store 	p_hit[38] 	0.26117389104402
scalar tree_4_3_u04_r5_network.node[38].content_store 	hits[38] 	3097
scalar tree_4_3_u04_r5_network.node[38].content_store 	misses[38] 	8761
scalar tree_4_3_u04_r5_network.node[38].content_store 	decision_yes[38] 	215
scalar tree_4_3_u04_r5_network.node[38].content_store 	decision_no[38] 	8546
scalar tree_4_3_u04_r5_network.node[38].content_store 	decision_ratio[38] 	0.024540577559639
scalar tree_4_3_u04_r5_network.node[39].core_layer 	interests[39] 	11952
scalar tree_4_3_u04_r5_network.node[39].core_layer 	data[39] 	8831
scalar tree_4_3_u04_r5_network.node[39].content_store 	p_hit[39] 	0.26112784471218
scalar tree_4_3_u04_r5_network.node[39].content_store 	hits[39] 	3121
scalar tree_4_3_u04_r5_network.node[39].content_store 	misses[39] 	8831
scalar tree_4_3_u04_r5_network.node[39].content_store 	decision_yes[39] 	223
scalar tree_4_3_u04_r5_network.node[39].content_store 	decision_no[39] 	8608
scalar tree_4_3_u04_r5_network.node[39].content_store 	decision_ratio[39] 	0.025251953346167
scalar tree_4_3_u04_r5_network.client[13] 	hdistance[13] 	2.8188969788267
scalar tree_4_3_u04_r5_network.client[13] 	downloads[13] 	11949
scalar tree_4_3_u04_r5_network.client[13] 	avg_time[13] 	0.004260437262
scalar tree_4_3_u04_r5_network.client[14] 	hdistance[14] 	2.8400628826742
scalar tree_4_3_u04_r5_network.client[14] 	downloads[14] 	12086
scalar tree_4_3_u04_r5_network.client[14] 	avg_time[14] 	0.004297531333
scalar tree_4_3_u04_r5_network.client[15] 	hdistance[15] 	2.8342277377159
scalar tree_4_3_u04_r5_network.client[15] 	downloads[15] 	11926
scalar tree_4_3_u04_r5_network.client[15] 	avg_time[15] 	0.004287603916
scalar tree_4_3_u04_r5_network.client[16] 	hdistance[16] 	2.8212548230163
scalar tree_4_3_u04_r5_network.client[16] 	downloads[16] 	11922
scalar tree_4_3_u04_r5_network.client[16] 	avg_time[16] 	0.004263605473
scalar tree_4_3_u04_r5_network.client[17] 	hdistance[17] 	2.8346195336487
scalar tree_4_3_u04_r5_network.client[17] 	downloads[17] 	12051
scalar tree_4_3_u04_r5_network.client[17] 	avg_time[17] 	0.004289537079
scalar tree_4_3_u04_r5_network.client[18] 	hdistance[18] 	2.8358540193983
scalar tree_4_3_u04_r5_network.client[18] 	downloads[18] 	12166
scalar tree_4_3_u04_r5_network.client[18] 	avg_time[18] 	0.004290767411
scalar tree_4_3_u04_r5_network.client[19] 	hdistance[19] 	2.8177825654624
scalar tree_4_3_u04_r5_network.client[19] 	downloads[19] 	12068
scalar tree_4_3_u04_r5_network.client[19] 	avg_time[19] 	0.004263835211
scalar tree_4_3_u04_r5_network.client[20] 	hdistance[20] 	2.8366992219831
scalar tree_4_3_u04_r5_network.client[20] 	downloads[20] 	12082
scalar tree_4_3_u04_r5_network.client[20] 	avg_time[20] 	0.004289187525
scalar tree_4_3_u04_r5_network.client[21] 	hdistance[21] 	2.8158270961231
scalar tree_4_3_u04_r5_network.client[21] 	downloads[21] 	11891
scalar tree_4_3_u04_r5_network.client[21] 	avg_time[21] 	0.004258615769
scalar tree_4_3_u04_r5_network.client[22] 	hdistance[22] 	2.8188048474718
scalar tree_4_3_u04_r5_network.client[22] 	downloads[22] 	11965
scalar tree_4_3_u04_r5_network.client[22] 	avg_time[22] 	0.004263221515
scalar tree_4_3_u04_r5_network.client[23] 	hdistance[23] 	2.8336951076975
scalar tree_4_3_u04_r5_network.client[23] 	downloads[23] 	11978
scalar tree_4_3_u04_r5_network.client[23] 	avg_time[23] 	0.004282785427
scalar tree_4_3_u04_r5_network.client[24] 	hdistance[24] 	2.817263924522
scalar tree_4_3_u04_r5_network.client[24] 	downloads[24] 	12083
scalar tree_4_3_u04_r5_network.client[24] 	avg_time[24] 	0.0042598662
scalar tree_4_3_u04_r5_network.client[25] 	hdistance[25] 	2.8339284231504
scalar tree_4_3_u04_r5_network.client[25] 	downloads[25] 	12043
scalar tree_4_3_u04_r5_network.client[25] 	avg_time[25] 	0.004282816892
scalar tree_4_3_u04_r5_network.client[26] 	hdistance[26] 	2.8163467902052
scalar tree_4_3_u04_r5_network.client[26] 	downloads[26] 	12088
scalar tree_4_3_u04_r5_network.client[26] 	avg_time[26] 	0.004259189496
scalar tree_4_3_u04_r5_network.client[27] 	hdistance[27] 	2.8431548103533
scalar tree_4_3_u04_r5_network.client[27] 	downloads[27] 	12286
scalar tree_4_3_u04_r5_network.client[27] 	avg_time[27] 	0.004298650642
scalar tree_4_3_u04_r5_network.client[28] 	hdistance[28] 	2.8330108521915
scalar tree_4_3_u04_r5_network.client[28] 	downloads[28] 	11887
scalar tree_4_3_u04_r5_network.client[28] 	avg_time[28] 	0.004283411792
scalar tree_4_3_u04_r5_network.client[29] 	hdistance[29] 	2.8399202922617
scalar tree_4_3_u04_r5_network.client[29] 	downloads[29] 	12044
scalar tree_4_3_u04_r5_network.client[29] 	avg_time[29] 	0.004293919279
scalar tree_4_3_u04_r5_network.client[30] 	hdistance[30] 	2.8280819055579
scalar tree_4_3_u04_r5_network.client[30] 	downloads[30] 	11965
scalar tree_4_3_u04_r5_network.client[30] 	avg_time[30] 	0.004275467162
scalar tree_4_3_u04_r5_network.client[31] 	hdistance[31] 	2.8306033762327
scalar tree_4_3_u04_r5_network.client[31] 	downloads[31] 	11966
scalar tree_4_3_u04_r5_network.client[31] 	avg_time[31] 	0.004277282675
scalar tree_4_3_u04_r5_network.client[32] 	hdistance[32] 	2.8405712376816
scalar tree_4_3_u04_r5_network.client[32] 	downloads[32] 	11974
scalar tree_4_3_u04_r5_network.client[32] 	avg_time[32] 	0.004292798074
scalar tree_4_3_u04_r5_network.client[33] 	hdistance[33] 	2.8470734744707
scalar tree_4_3_u04_r5_network.client[33] 	downloads[33] 	12045
scalar tree_4_3_u04_r5_network.client[33] 	avg_time[33] 	0.004303193315
scalar tree_4_3_u04_r5_network.client[34] 	hdistance[34] 	2.8511105480956
scalar tree_4_3_u04_r5_network.client[34] 	downloads[34] 	11841
scalar tree_4_3_u04_r5_network.client[34] 	avg_time[34] 	0.00430993707
scalar tree_4_3_u04_r5_network.client[35] 	hdistance[35] 	2.8631649381064
scalar tree_4_3_u04_r5_network.client[35] 	downloads[35] 	11956
scalar tree_4_3_u04_r5_network.client[35] 	avg_time[35] 	0.004328033134
scalar tree_4_3_u04_r5_network.client[36] 	hdistance[36] 	2.8621145738613
scalar tree_4_3_u04_r5_network.client[36] 	downloads[36] 	12097
scalar tree_4_3_u04_r5_network.client[36] 	avg_time[36] 	0.004326524226
scalar tree_4_3_u04_r5_network.client[37] 	hdistance[37] 	2.8585097375106
scalar tree_4_3_u04_r5_network.client[37] 	downloads[37] 	11810
scalar tree_4_3_u04_r5_network.client[37] 	avg_time[37] 	0.00431718587
scalar tree_4_3_u04_r5_network.client[38] 	hdistance[38] 	2.8775510204082
scalar tree_4_3_u04_r5_network.client[38] 	downloads[38] 	11858
scalar tree_4_3_u04_r5_network.client[38] 	avg_time[38] 	0.004342779594
scalar tree_4_3_u04_r5_network.client[39] 	hdistance[39] 	2.8757530120482
scalar tree_4_3_u04_r5_network.client[39] 	downloads[39] 	11952
scalar tree_4_3_u04_r5_network.client[39] 	avg_time[39] 	0.004341631095
