version 2
run General-90-20160820-08:19:29-856
attr a 0.9
attr cd lcd
attr configname General
attr cr lru
attr datetime 20160820-08:19:29
attr experiment General
attr fsize 1
attr inifile hw5115/scenario_A/SPR-LCD.ini
attr iterationvars "$name=tree_4_3, $un=04, $rep=11, $cd=lcd, $cr=lru, $fsize=1, $a=0.9, $sl=spr, $ttl=1000, $variance=0.05"
attr iterationvars2 "$name=tree_4_3, $un=04, $rep=11, $cd=lcd, $cr=lru, $fsize=1, $a=0.9, $sl=spr, $ttl=1000, $variance=0.05, $repetition=0"
attr measurement "$name=tree_4_3, $un=04, $rep=11, $cd=lcd, $cr=lru, $fsize=1, $a=0.9, $sl=spr, $ttl=1000, $variance=0.05"
attr name tree_4_3
attr network networks.${name}_u${un}_r${rep}_network
attr processid 856
attr rep 11
attr repetition 0
attr replication #0
attr resultdir results
attr runnumber 90
attr seedset 11
attr sl spr
attr ttl 1000
attr un 04
attr variance 0.05

scalar . 	a 	0.9
scalar . 	fsize 	1
scalar . 	rep 	11
scalar . 	ttl 	1000
scalar . 	un 	04
scalar . 	variance 	0.05
scalar tree_4_3_u04_r11_network.content_distribution 	repo-0 	0
scalar tree_4_3_u04_r11_network.content_distribution 	client-0 	13
scalar tree_4_3_u04_r11_network.content_distribution 	client-1 	14
scalar tree_4_3_u04_r11_network.content_distribution 	client-2 	15
scalar tree_4_3_u04_r11_network.content_distribution 	client-3 	16
scalar tree_4_3_u04_r11_network.content_distribution 	client-4 	17
scalar tree_4_3_u04_r11_network.content_distribution 	client-5 	18
scalar tree_4_3_u04_r11_network.content_distribution 	client-6 	19
scalar tree_4_3_u04_r11_network.content_distribution 	client-7 	20
scalar tree_4_3_u04_r11_network.content_distribution 	client-8 	21
scalar tree_4_3_u04_r11_network.content_distribution 	client-9 	22
scalar tree_4_3_u04_r11_network.content_distribution 	client-10 	23
scalar tree_4_3_u04_r11_network.content_distribution 	client-11 	24
scalar tree_4_3_u04_r11_network.content_distribution 	client-12 	25
scalar tree_4_3_u04_r11_network.content_distribution 	client-13 	26
scalar tree_4_3_u04_r11_network.content_distribution 	client-14 	27
scalar tree_4_3_u04_r11_network.content_distribution 	client-15 	28
scalar tree_4_3_u04_r11_network.content_distribution 	client-16 	29
scalar tree_4_3_u04_r11_network.content_distribution 	client-17 	30
scalar tree_4_3_u04_r11_network.content_distribution 	client-18 	31
scalar tree_4_3_u04_r11_network.content_distribution 	client-19 	32
scalar tree_4_3_u04_r11_network.content_distribution 	client-20 	33
scalar tree_4_3_u04_r11_network.content_distribution 	client-21 	34
scalar tree_4_3_u04_r11_network.content_distribution 	client-22 	35
scalar tree_4_3_u04_r11_network.content_distribution 	client-23 	36
scalar tree_4_3_u04_r11_network.content_distribution 	client-24 	37
scalar tree_4_3_u04_r11_network.content_distribution 	client-25 	38
scalar tree_4_3_u04_r11_network.content_distribution 	client-26 	39
scalar tree_4_3_u04_r11_network.content_distribution 	repo-0_card 	100000
scalar tree_4_3_u04_r11_network.content_distribution 	repo-0_price 	0
scalar tree_4_3_u04_r11_network.statistics 	stabilization_time 	1767.2
scalar tree_4_3_u04_r11_network.statistics 	p_hit 	0.18824316838813
scalar tree_4_3_u04_r11_network.statistics 	interests 	25407.9
scalar tree_4_3_u04_r11_network.statistics 	data 	17324.575
scalar tree_4_3_u04_r11_network.statistics 	hdistance 	2.83544731512
scalar tree_4_3_u04_r11_network.statistics 	avg_time 	0.004286657682
scalar tree_4_3_u04_r11_network.statistics 	downloads 	323322
scalar tree_4_3_u04_r11_network.statistics 	total_cost 	0
scalar tree_4_3_u04_r11_network.statistics 	total_replicas 	100000
scalar tree_4_3_u04_r11_network.statistics 	inner_hit 	0.30792831913696
scalar tree_4_3_u04_r11_network.node[0].core_layer 	interests[0] 	225986
scalar tree_4_3_u04_r11_network.node[0].core_layer 	repo_load[0] 	223762
scalar tree_4_3_u04_r11_network.node[0].core_layer 	data[0] 	0
scalar tree_4_3_u04_r11_network.node[0].core_layer 	repo_int[0] 	223762
scalar tree_4_3_u04_r11_network.node[0].content_store 	p_hit[0] 	0.0098413176037454
scalar tree_4_3_u04_r11_network.node[0].content_store 	hits[0] 	2224
scalar tree_4_3_u04_r11_network.node[0].content_store 	misses[0] 	223762
scalar tree_4_3_u04_r11_network.node[0].content_store 	decision_yes[0] 	223762
scalar tree_4_3_u04_r11_network.node[0].content_store 	decision_no[0] 	0
scalar tree_4_3_u04_r11_network.node[0].content_store 	decision_ratio[0] 	1
scalar tree_4_3_u04_r11_network.node[1].core_layer 	interests[1] 	76949
scalar tree_4_3_u04_r11_network.node[1].core_layer 	data[1] 	75634
scalar tree_4_3_u04_r11_network.node[1].content_store 	p_hit[1] 	0.017063249684856
scalar tree_4_3_u04_r11_network.node[1].content_store 	hits[1] 	1313
scalar tree_4_3_u04_r11_network.node[1].content_store 	misses[1] 	75636
scalar tree_4_3_u04_r11_network.node[1].content_store 	decision_yes[1] 	739
scalar tree_4_3_u04_r11_network.node[1].content_store 	decision_no[1] 	74895
scalar tree_4_3_u04_r11_network.node[1].content_store 	decision_ratio[1] 	0.0097707380278711
scalar tree_4_3_u04_r11_network.node[2].core_layer 	interests[2] 	76418
scalar tree_4_3_u04_r11_network.node[2].core_layer 	data[2] 	75199
scalar tree_4_3_u04_r11_network.node[2].content_store 	p_hit[2] 	0.015938653196891
scalar tree_4_3_u04_r11_network.node[2].content_store 	hits[2] 	1218
scalar tree_4_3_u04_r11_network.node[2].content_store 	misses[2] 	75200
scalar tree_4_3_u04_r11_network.node[2].content_store 	decision_yes[2] 	709
scalar tree_4_3_u04_r11_network.node[2].content_store 	decision_no[2] 	74490
scalar tree_4_3_u04_r11_network.node[2].content_store 	decision_ratio[2] 	0.0094283168659158
scalar tree_4_3_u04_r11_network.node[3].core_layer 	interests[3] 	76394
scalar tree_4_3_u04_r11_network.node[3].core_layer 	data[3] 	75152
scalar tree_4_3_u04_r11_network.node[3].content_store 	p_hit[3] 	0.016244731261617
scalar tree_4_3_u04_r11_network.node[3].content_store 	hits[3] 	1241
scalar tree_4_3_u04_r11_network.node[3].content_store 	misses[3] 	75153
scalar tree_4_3_u04_r11_network.node[3].content_store 	decision_yes[3] 	776
scalar tree_4_3_u04_r11_network.node[3].content_store 	decision_no[3] 	74376
scalar tree_4_3_u04_r11_network.node[3].content_store 	decision_ratio[3] 	0.010325739833937
scalar tree_4_3_u04_r11_network.node[4].core_layer 	interests[4] 	35526
scalar tree_4_3_u04_r11_network.node[4].core_layer 	data[4] 	34391
scalar tree_4_3_u04_r11_network.node[4].content_store 	p_hit[4] 	0.031920283735855
scalar tree_4_3_u04_r11_network.node[4].content_store 	hits[4] 	1134
scalar tree_4_3_u04_r11_network.node[4].content_store 	misses[4] 	34392
scalar tree_4_3_u04_r11_network.node[4].content_store 	decision_yes[4] 	520
scalar tree_4_3_u04_r11_network.node[4].content_store 	decision_no[4] 	33871
scalar tree_4_3_u04_r11_network.node[4].content_store 	decision_ratio[4] 	0.015120234945189
scalar tree_4_3_u04_r11_network.node[5].core_layer 	interests[5] 	17505
scalar tree_4_3_u04_r11_network.node[5].core_layer 	data[5] 	16923
scalar tree_4_3_u04_r11_network.node[5].content_store 	p_hit[5] 	0.03324764353042
scalar tree_4_3_u04_r11_network.node[5].content_store 	hits[5] 	582
scalar tree_4_3_u04_r11_network.node[5].content_store 	misses[5] 	16923
scalar tree_4_3_u04_r11_network.node[5].content_store 	decision_yes[5] 	358
scalar tree_4_3_u04_r11_network.node[5].content_store 	decision_no[5] 	16565
scalar tree_4_3_u04_r11_network.node[5].content_store 	decision_ratio[5] 	0.021154641612007
scalar tree_4_3_u04_r11_network.node[6].core_layer 	interests[6] 	26465
scalar tree_4_3_u04_r11_network.node[6].core_layer 	data[6] 	25635
scalar tree_4_3_u04_r11_network.node[6].content_store 	p_hit[6] 	0.031362176459475
scalar tree_4_3_u04_r11_network.node[6].content_store 	hits[6] 	830
scalar tree_4_3_u04_r11_network.node[6].content_store 	misses[6] 	25635
scalar tree_4_3_u04_r11_network.node[6].content_store 	decision_yes[6] 	435
scalar tree_4_3_u04_r11_network.node[6].content_store 	decision_no[6] 	25200
scalar tree_4_3_u04_r11_network.node[6].content_store 	decision_ratio[6] 	0.016968987712112
scalar tree_4_3_u04_r11_network.node[7].core_layer 	interests[7] 	43642
scalar tree_4_3_u04_r11_network.node[7].core_layer 	data[7] 	42270
scalar tree_4_3_u04_r11_network.node[7].content_store 	p_hit[7] 	0.031391778561936
scalar tree_4_3_u04_r11_network.node[7].content_store 	hits[7] 	1370
scalar tree_4_3_u04_r11_network.node[7].content_store 	misses[7] 	42272
scalar tree_4_3_u04_r11_network.node[7].content_store 	decision_yes[7] 	531
scalar tree_4_3_u04_r11_network.node[7].content_store 	decision_no[7] 	41739
scalar tree_4_3_u04_r11_network.node[7].content_store 	decision_ratio[7] 	0.012562100780696
scalar tree_4_3_u04_r11_network.node[8].core_layer 	interests[8] 	17645
scalar tree_4_3_u04_r11_network.node[8].core_layer 	data[8] 	17120
scalar tree_4_3_u04_r11_network.node[8].content_store 	p_hit[8] 	0.029753471238311
scalar tree_4_3_u04_r11_network.node[8].content_store 	hits[8] 	525
scalar tree_4_3_u04_r11_network.node[8].content_store 	misses[8] 	17120
scalar tree_4_3_u04_r11_network.node[8].content_store 	decision_yes[8] 	333
scalar tree_4_3_u04_r11_network.node[8].content_store 	decision_no[8] 	16787
scalar tree_4_3_u04_r11_network.node[8].content_store 	decision_ratio[8] 	0.019450934579439
scalar tree_4_3_u04_r11_network.node[9].core_layer 	interests[9] 	17575
scalar tree_4_3_u04_r11_network.node[9].core_layer 	data[9] 	17027
scalar tree_4_3_u04_r11_network.node[9].content_store 	p_hit[9] 	0.031180654338549
scalar tree_4_3_u04_r11_network.node[9].content_store 	hits[9] 	548
scalar tree_4_3_u04_r11_network.node[9].content_store 	misses[9] 	17027
scalar tree_4_3_u04_r11_network.node[9].content_store 	decision_yes[9] 	354
scalar tree_4_3_u04_r11_network.node[9].content_store 	decision_no[9] 	16673
scalar tree_4_3_u04_r11_network.node[9].content_store 	decision_ratio[9] 	0.020790509191284
scalar tree_4_3_u04_r11_network.node[10].core_layer 	interests[10] 	35091
scalar tree_4_3_u04_r11_network.node[10].core_layer 	data[10] 	33935
scalar tree_4_3_u04_r11_network.node[10].content_store 	p_hit[10] 	0.032942919836995
scalar tree_4_3_u04_r11_network.node[10].content_store 	hits[10] 	1156
scalar tree_4_3_u04_r11_network.node[10].content_store 	misses[10] 	33935
scalar tree_4_3_u04_r11_network.node[10].content_store 	decision_yes[10] 	525
scalar tree_4_3_u04_r11_network.node[10].content_store 	decision_no[10] 	33410
scalar tree_4_3_u04_r11_network.node[10].content_store 	decision_ratio[10] 	0.015470752909975
scalar tree_4_3_u04_r11_network.node[11].core_layer 	interests[11] 	34971
scalar tree_4_3_u04_r11_network.node[11].core_layer 	data[11] 	33903
scalar tree_4_3_u04_r11_network.node[11].content_store 	p_hit[11] 	0.030510994824283
scalar tree_4_3_u04_r11_network.node[11].content_store 	hits[11] 	1067
scalar tree_4_3_u04_r11_network.node[11].content_store 	misses[11] 	33904
scalar tree_4_3_u04_r11_network.node[11].content_store 	decision_yes[11] 	500
scalar tree_4_3_u04_r11_network.node[11].content_store 	decision_no[11] 	33403
scalar tree_4_3_u04_r11_network.node[11].content_store 	decision_ratio[11] 	0.014747957407899
scalar tree_4_3_u04_r11_network.node[12].core_layer 	interests[12] 	8819
scalar tree_4_3_u04_r11_network.node[12].core_layer 	data[12] 	8556
scalar tree_4_3_u04_r11_network.node[12].content_store 	p_hit[12] 	0.029821975280644
scalar tree_4_3_u04_r11_network.node[12].content_store 	hits[12] 	263
scalar tree_4_3_u04_r11_network.node[12].content_store 	misses[12] 	8556
scalar tree_4_3_u04_r11_network.node[12].content_store 	decision_yes[12] 	216
scalar tree_4_3_u04_r11_network.node[12].content_store 	decision_no[12] 	8340
scalar tree_4_3_u04_r11_network.node[12].content_store 	decision_ratio[12] 	0.025245441795231
scalar tree_4_3_u04_r11_network.node[13].core_layer 	interests[13] 	11946
scalar tree_4_3_u04_r11_network.node[13].core_layer 	data[13] 	8721
scalar tree_4_3_u04_r11_network.node[13].content_store 	p_hit[13] 	0.26996484178805
scalar tree_4_3_u04_r11_network.node[13].content_store 	hits[13] 	3225
scalar tree_4_3_u04_r11_network.node[13].content_store 	misses[13] 	8721
scalar tree_4_3_u04_r11_network.node[13].content_store 	decision_yes[13] 	292
scalar tree_4_3_u04_r11_network.node[13].content_store 	decision_no[13] 	8429
scalar tree_4_3_u04_r11_network.node[13].content_store 	decision_ratio[13] 	0.033482398807476
scalar tree_4_3_u04_r11_network.node[14].core_layer 	interests[14] 	12091
scalar tree_4_3_u04_r11_network.node[14].core_layer 	data[14] 	8969
scalar tree_4_3_u04_r11_network.node[14].content_store 	p_hit[14] 	0.25820858489786
scalar tree_4_3_u04_r11_network.node[14].content_store 	hits[14] 	3122
scalar tree_4_3_u04_r11_network.node[14].content_store 	misses[14] 	8969
scalar tree_4_3_u04_r11_network.node[14].content_store 	decision_yes[14] 	308
scalar tree_4_3_u04_r11_network.node[14].content_store 	decision_no[14] 	8661
scalar tree_4_3_u04_r11_network.node[14].content_store 	decision_ratio[14] 	0.034340506187981
scalar tree_4_3_u04_r11_network.node[15].core_layer 	interests[15] 	12046
scalar tree_4_3_u04_r11_network.node[15].core_layer 	data[15] 	8915
scalar tree_4_3_u04_r11_network.node[15].content_store 	p_hit[15] 	0.25983729038685
scalar tree_4_3_u04_r11_network.node[15].content_store 	hits[15] 	3130
scalar tree_4_3_u04_r11_network.node[15].content_store 	misses[15] 	8916
scalar tree_4_3_u04_r11_network.node[15].content_store 	decision_yes[15] 	263
scalar tree_4_3_u04_r11_network.node[15].content_store 	decision_no[15] 	8652
scalar tree_4_3_u04_r11_network.node[15].content_store 	decision_ratio[15] 	0.029500841278744
scalar tree_4_3_u04_r11_network.node[16].core_layer 	interests[16] 	12073
scalar tree_4_3_u04_r11_network.node[16].core_layer 	data[16] 	8921
scalar tree_4_3_u04_r11_network.node[16].content_store 	p_hit[16] 	0.26099561003893
scalar tree_4_3_u04_r11_network.node[16].content_store 	hits[16] 	3151
scalar tree_4_3_u04_r11_network.node[16].content_store 	misses[16] 	8922
scalar tree_4_3_u04_r11_network.node[16].content_store 	decision_yes[16] 	271
scalar tree_4_3_u04_r11_network.node[16].content_store 	decision_no[16] 	8650
scalar tree_4_3_u04_r11_network.node[16].content_store 	decision_ratio[16] 	0.030377760340769
scalar tree_4_3_u04_r11_network.node[17].core_layer 	interests[17] 	11782
scalar tree_4_3_u04_r11_network.node[17].core_layer 	data[17] 	8701
scalar tree_4_3_u04_r11_network.node[17].content_store 	p_hit[17] 	0.26141571889323
scalar tree_4_3_u04_r11_network.node[17].content_store 	hits[17] 	3080
scalar tree_4_3_u04_r11_network.node[17].content_store 	misses[17] 	8702
scalar tree_4_3_u04_r11_network.node[17].content_store 	decision_yes[17] 	288
scalar tree_4_3_u04_r11_network.node[17].content_store 	decision_no[17] 	8413
scalar tree_4_3_u04_r11_network.node[17].content_store 	decision_ratio[17] 	0.033099643719113
scalar tree_4_3_u04_r11_network.node[18].core_layer 	interests[18] 	12037
scalar tree_4_3_u04_r11_network.node[18].core_layer 	data[18] 	8804
scalar tree_4_3_u04_r11_network.node[18].content_store 	p_hit[18] 	0.2685885187339
scalar tree_4_3_u04_r11_network.node[18].content_store 	hits[18] 	3233
scalar tree_4_3_u04_r11_network.node[18].content_store 	misses[18] 	8804
scalar tree_4_3_u04_r11_network.node[18].content_store 	decision_yes[18] 	294
scalar tree_4_3_u04_r11_network.node[18].content_store 	decision_no[18] 	8510
scalar tree_4_3_u04_r11_network.node[18].content_store 	decision_ratio[18] 	0.033393911858246
scalar tree_4_3_u04_r11_network.node[19].core_layer 	interests[19] 	12005
scalar tree_4_3_u04_r11_network.node[19].core_layer 	data[19] 	8762
scalar tree_4_3_u04_r11_network.node[19].content_store 	p_hit[19] 	0.27013744273219
scalar tree_4_3_u04_r11_network.node[19].content_store 	hits[19] 	3243
scalar tree_4_3_u04_r11_network.node[19].content_store 	misses[19] 	8762
scalar tree_4_3_u04_r11_network.node[19].content_store 	decision_yes[19] 	271
scalar tree_4_3_u04_r11_network.node[19].content_store 	decision_no[19] 	8491
scalar tree_4_3_u04_r11_network.node[19].content_store 	decision_ratio[19] 	0.030929011641178
scalar tree_4_3_u04_r11_network.node[20].core_layer 	interests[20] 	12110
scalar tree_4_3_u04_r11_network.node[20].core_layer 	data[20] 	8894
scalar tree_4_3_u04_r11_network.node[20].content_store 	p_hit[20] 	0.2654004954583
scalar tree_4_3_u04_r11_network.node[20].content_store 	hits[20] 	3214
scalar tree_4_3_u04_r11_network.node[20].content_store 	misses[20] 	8896
scalar tree_4_3_u04_r11_network.node[20].content_store 	decision_yes[20] 	285
scalar tree_4_3_u04_r11_network.node[20].content_store 	decision_no[20] 	8609
scalar tree_4_3_u04_r11_network.node[20].content_store 	decision_ratio[20] 	0.032044074657072
scalar tree_4_3_u04_r11_network.node[21].core_layer 	interests[21] 	12001
scalar tree_4_3_u04_r11_network.node[21].core_layer 	data[21] 	8809
scalar tree_4_3_u04_r11_network.node[21].content_store 	p_hit[21] 	0.2659778351804
scalar tree_4_3_u04_r11_network.node[21].content_store 	hits[21] 	3192
scalar tree_4_3_u04_r11_network.node[21].content_store 	misses[21] 	8809
scalar tree_4_3_u04_r11_network.node[21].content_store 	decision_yes[21] 	274
scalar tree_4_3_u04_r11_network.node[21].content_store 	decision_no[21] 	8535
scalar tree_4_3_u04_r11_network.node[21].content_store 	decision_ratio[21] 	0.031104552162561
scalar tree_4_3_u04_r11_network.node[22].core_layer 	interests[22] 	11982
scalar tree_4_3_u04_r11_network.node[22].core_layer 	data[22] 	8748
scalar tree_4_3_u04_r11_network.node[22].content_store 	p_hit[22] 	0.26982139876481
scalar tree_4_3_u04_r11_network.node[22].content_store 	hits[22] 	3233
scalar tree_4_3_u04_r11_network.node[22].content_store 	misses[22] 	8749
scalar tree_4_3_u04_r11_network.node[22].content_store 	decision_yes[22] 	271
scalar tree_4_3_u04_r11_network.node[22].content_store 	decision_no[22] 	8477
scalar tree_4_3_u04_r11_network.node[22].content_store 	decision_ratio[22] 	0.030978509373571
scalar tree_4_3_u04_r11_network.node[23].core_layer 	interests[23] 	11986
scalar tree_4_3_u04_r11_network.node[23].core_layer 	data[23] 	8739
scalar tree_4_3_u04_r11_network.node[23].content_store 	p_hit[23] 	0.27089938261305
scalar tree_4_3_u04_r11_network.node[23].content_store 	hits[23] 	3247
scalar tree_4_3_u04_r11_network.node[23].content_store 	misses[23] 	8739
scalar tree_4_3_u04_r11_network.node[23].content_store 	decision_yes[23] 	281
scalar tree_4_3_u04_r11_network.node[23].content_store 	decision_no[23] 	8458
scalar tree_4_3_u04_r11_network.node[23].content_store 	decision_ratio[23] 	0.032154708776748
scalar tree_4_3_u04_r11_network.node[24].core_layer 	interests[24] 	11942
scalar tree_4_3_u04_r11_network.node[24].core_layer 	data[24] 	8683
scalar tree_4_3_u04_r11_network.node[24].content_store 	p_hit[24] 	0.2729023614135
scalar tree_4_3_u04_r11_network.node[24].content_store 	hits[24] 	3259
scalar tree_4_3_u04_r11_network.node[24].content_store 	misses[24] 	8683
scalar tree_4_3_u04_r11_network.node[24].content_store 	decision_yes[24] 	277
scalar tree_4_3_u04_r11_network.node[24].content_store 	decision_no[24] 	8406
scalar tree_4_3_u04_r11_network.node[24].content_store 	decision_ratio[24] 	0.031901416561096
scalar tree_4_3_u04_r11_network.node[25].core_layer 	interests[25] 	11918
scalar tree_4_3_u04_r11_network.node[25].core_layer 	data[25] 	8752
scalar tree_4_3_u04_r11_network.node[25].content_store 	p_hit[25] 	0.26564859875818
scalar tree_4_3_u04_r11_network.node[25].content_store 	hits[25] 	3166
scalar tree_4_3_u04_r11_network.node[25].content_store 	misses[25] 	8752
scalar tree_4_3_u04_r11_network.node[25].content_store 	decision_yes[25] 	272
scalar tree_4_3_u04_r11_network.node[25].content_store 	decision_no[25] 	8480
scalar tree_4_3_u04_r11_network.node[25].content_store 	decision_ratio[25] 	0.031078610603291
scalar tree_4_3_u04_r11_network.node[26].core_layer 	interests[26] 	12035
scalar tree_4_3_u04_r11_network.node[26].core_layer 	data[26] 	8842
scalar tree_4_3_u04_r11_network.node[26].content_store 	p_hit[26] 	0.26530951391774
scalar tree_4_3_u04_r11_network.node[26].content_store 	hits[26] 	3193
scalar tree_4_3_u04_r11_network.node[26].content_store 	misses[26] 	8842
scalar tree_4_3_u04_r11_network.node[26].content_store 	decision_yes[26] 	254
scalar tree_4_3_u04_r11_network.node[26].content_store 	decision_no[26] 	8588
scalar tree_4_3_u04_r11_network.node[26].content_store 	decision_ratio[26] 	0.02872653245872
scalar tree_4_3_u04_r11_network.node[27].core_layer 	interests[27] 	11934
scalar tree_4_3_u04_r11_network.node[27].core_layer 	data[27] 	8803
scalar tree_4_3_u04_r11_network.node[27].content_store 	p_hit[27] 	0.26235964471259
scalar tree_4_3_u04_r11_network.node[27].content_store 	hits[27] 	3131
scalar tree_4_3_u04_r11_network.node[27].content_store 	misses[27] 	8803
scalar tree_4_3_u04_r11_network.node[27].content_store 	decision_yes[27] 	271
scalar tree_4_3_u04_r11_network.node[27].content_store 	decision_no[27] 	8532
scalar tree_4_3_u04_r11_network.node[27].content_store 	decision_ratio[27] 	0.030784959672839
scalar tree_4_3_u04_r11_network.node[28].core_layer 	interests[28] 	11849
scalar tree_4_3_u04_r11_network.node[28].core_layer 	data[28] 	8719
scalar tree_4_3_u04_r11_network.node[28].content_store 	p_hit[28] 	0.26415731285341
scalar tree_4_3_u04_r11_network.node[28].content_store 	hits[28] 	3130
scalar tree_4_3_u04_r11_network.node[28].content_store 	misses[28] 	8719
scalar tree_4_3_u04_r11_network.node[28].content_store 	decision_yes[28] 	269
scalar tree_4_3_u04_r11_network.node[28].content_store 	decision_no[28] 	8450
scalar tree_4_3_u04_r11_network.node[28].content_store 	decision_ratio[28] 	0.030852161945177
scalar tree_4_3_u04_r11_network.node[29].core_layer 	interests[29] 	12040
scalar tree_4_3_u04_r11_network.node[29].core_layer 	data[29] 	8830
scalar tree_4_3_u04_r11_network.node[29].content_store 	p_hit[29] 	0.26652823920266
scalar tree_4_3_u04_r11_network.node[29].content_store 	hits[29] 	3209
scalar tree_4_3_u04_r11_network.node[29].content_store 	misses[29] 	8831
scalar tree_4_3_u04_r11_network.node[29].content_store 	decision_yes[29] 	281
scalar tree_4_3_u04_r11_network.node[29].content_store 	decision_no[29] 	8549
scalar tree_4_3_u04_r11_network.node[29].content_store 	decision_ratio[29] 	0.031823329558324
scalar tree_4_3_u04_r11_network.node[30].core_layer 	interests[30] 	12063
scalar tree_4_3_u04_r11_network.node[30].core_layer 	data[30] 	8745
scalar tree_4_3_u04_r11_network.node[30].content_store 	p_hit[30] 	0.27505595622979
scalar tree_4_3_u04_r11_network.node[30].content_store 	hits[30] 	3318
scalar tree_4_3_u04_r11_network.node[30].content_store 	misses[30] 	8745
scalar tree_4_3_u04_r11_network.node[30].content_store 	decision_yes[30] 	267
scalar tree_4_3_u04_r11_network.node[30].content_store 	decision_no[30] 	8478
scalar tree_4_3_u04_r11_network.node[30].content_store 	decision_ratio[30] 	0.030531732418525
scalar tree_4_3_u04_r11_network.node[31].core_layer 	interests[31] 	11966
scalar tree_4_3_u04_r11_network.node[31].core_layer 	data[31] 	8783
scalar tree_4_3_u04_r11_network.node[31].content_store 	p_hit[31] 	0.26600367708507
scalar tree_4_3_u04_r11_network.node[31].content_store 	hits[31] 	3183
scalar tree_4_3_u04_r11_network.node[31].content_store 	misses[31] 	8783
scalar tree_4_3_u04_r11_network.node[31].content_store 	decision_yes[31] 	291
scalar tree_4_3_u04_r11_network.node[31].content_store 	decision_no[31] 	8492
scalar tree_4_3_u04_r11_network.node[31].content_store 	decision_ratio[31] 	0.033132187179779
scalar tree_4_3_u04_r11_network.node[32].core_layer 	interests[32] 	11879
scalar tree_4_3_u04_r11_network.node[32].core_layer 	data[32] 	8723
scalar tree_4_3_u04_r11_network.node[32].content_store 	p_hit[32] 	0.26567892920279
scalar tree_4_3_u04_r11_network.node[32].content_store 	hits[32] 	3156
scalar tree_4_3_u04_r11_network.node[32].content_store 	misses[32] 	8723
scalar tree_4_3_u04_r11_network.node[32].content_store 	decision_yes[32] 	296
scalar tree_4_3_u04_r11_network.node[32].content_store 	decision_no[32] 	8427
scalar tree_4_3_u04_r11_network.node[32].content_store 	decision_ratio[32] 	0.033933279834919
scalar tree_4_3_u04_r11_network.node[33].core_layer 	interests[33] 	12116
scalar tree_4_3_u04_r11_network.node[33].core_layer 	data[33] 	8891
scalar tree_4_3_u04_r11_network.node[33].content_store 	p_hit[33] 	0.26617695609112
scalar tree_4_3_u04_r11_network.node[33].content_store 	hits[33] 	3225
scalar tree_4_3_u04_r11_network.node[33].content_store 	misses[33] 	8891
scalar tree_4_3_u04_r11_network.node[33].content_store 	decision_yes[33] 	297
scalar tree_4_3_u04_r11_network.node[33].content_store 	decision_no[33] 	8594
scalar tree_4_3_u04_r11_network.node[33].content_store 	decision_ratio[33] 	0.033404566415476
scalar tree_4_3_u04_r11_network.node[34].core_layer 	interests[34] 	11870
scalar tree_4_3_u04_r11_network.node[34].core_layer 	data[34] 	8712
scalar tree_4_3_u04_r11_network.node[34].content_store 	p_hit[34] 	0.26604886267902
scalar tree_4_3_u04_r11_network.node[34].content_store 	hits[34] 	3158
scalar tree_4_3_u04_r11_network.node[34].content_store 	misses[34] 	8712
scalar tree_4_3_u04_r11_network.node[34].content_store 	decision_yes[34] 	296
scalar tree_4_3_u04_r11_network.node[34].content_store 	decision_no[34] 	8416
scalar tree_4_3_u04_r11_network.node[34].content_store 	decision_ratio[34] 	0.033976124885216
scalar tree_4_3_u04_r11_network.node[35].core_layer 	interests[35] 	11980
scalar tree_4_3_u04_r11_network.node[35].core_layer 	data[35] 	8790
scalar tree_4_3_u04_r11_network.node[35].content_store 	p_hit[35] 	0.26627712854758
scalar tree_4_3_u04_r11_network.node[35].content_store 	hits[35] 	3190
scalar tree_4_3_u04_r11_network.node[35].content_store 	misses[35] 	8790
scalar tree_4_3_u04_r11_network.node[35].content_store 	decision_yes[35] 	256
scalar tree_4_3_u04_r11_network.node[35].content_store 	decision_no[35] 	8534
scalar tree_4_3_u04_r11_network.node[35].content_store 	decision_ratio[35] 	0.029124004550626
scalar tree_4_3_u04_r11_network.node[36].core_layer 	interests[36] 	11888
scalar tree_4_3_u04_r11_network.node[36].core_layer 	data[36] 	8711
scalar tree_4_3_u04_r11_network.node[36].content_store 	p_hit[36] 	0.26724427994616
scalar tree_4_3_u04_r11_network.node[36].content_store 	hits[36] 	3177
scalar tree_4_3_u04_r11_network.node[36].content_store 	misses[36] 	8711
scalar tree_4_3_u04_r11_network.node[36].content_store 	decision_yes[36] 	265
scalar tree_4_3_u04_r11_network.node[36].content_store 	decision_no[36] 	8446
scalar tree_4_3_u04_r11_network.node[36].content_store 	decision_ratio[36] 	0.030421306394214
scalar tree_4_3_u04_r11_network.node[37].core_layer 	interests[37] 	11826
scalar tree_4_3_u04_r11_network.node[37].core_layer 	data[37] 	8694
scalar tree_4_3_u04_r11_network.node[37].content_store 	p_hit[37] 	0.26475562320311
scalar tree_4_3_u04_r11_network.node[37].content_store 	hits[37] 	3131
scalar tree_4_3_u04_r11_network.node[37].content_store 	misses[37] 	8695
scalar tree_4_3_u04_r11_network.node[37].content_store 	decision_yes[37] 	272
scalar tree_4_3_u04_r11_network.node[37].content_store 	decision_no[37] 	8422
scalar tree_4_3_u04_r11_network.node[37].content_store 	decision_ratio[37] 	0.031285944329423
scalar tree_4_3_u04_r11_network.node[38].core_layer 	interests[38] 	11946
scalar tree_4_3_u04_r11_network.node[38].core_layer 	data[38] 	8758
scalar tree_4_3_u04_r11_network.node[38].content_store 	p_hit[38] 	0.26686757073497
scalar tree_4_3_u04_r11_network.node[38].content_store 	hits[38] 	3188
scalar tree_4_3_u04_r11_network.node[38].content_store 	misses[38] 	8758
scalar tree_4_3_u04_r11_network.node[38].content_store 	decision_yes[38] 	250
scalar tree_4_3_u04_r11_network.node[38].content_store 	decision_no[38] 	8508
scalar tree_4_3_u04_r11_network.node[38].content_store 	decision_ratio[38] 	0.028545329984015
scalar tree_4_3_u04_r11_network.node[39].core_layer 	interests[39] 	12019
scalar tree_4_3_u04_r11_network.node[39].core_layer 	data[39] 	8819
scalar tree_4_3_u04_r11_network.node[39].content_store 	p_hit[39] 	0.26624511190615
scalar tree_4_3_u04_r11_network.node[39].content_store 	hits[39] 	3200
scalar tree_4_3_u04_r11_network.node[39].content_store 	misses[39] 	8819
scalar tree_4_3_u04_r11_network.node[39].content_store 	decision_yes[39] 	263
scalar tree_4_3_u04_r11_network.node[39].content_store 	decision_no[39] 	8556
scalar tree_4_3_u04_r11_network.node[39].content_store 	decision_ratio[39] 	0.029821975280644
scalar tree_4_3_u04_r11_network.client[13] 	hdistance[13] 	2.8177632680395
scalar tree_4_3_u04_r11_network.client[13] 	downloads[13] 	11946
scalar tree_4_3_u04_r11_network.client[13] 	avg_time[13] 	0.004260167811
scalar tree_4_3_u04_r11_network.client[14] 	hdistance[14] 	2.8607228517079
scalar tree_4_3_u04_r11_network.client[14] 	downloads[14] 	12091
scalar tree_4_3_u04_r11_network.client[14] 	avg_time[14] 	0.004325032102
scalar tree_4_3_u04_r11_network.client[15] 	hdistance[15] 	2.8672478206725
scalar tree_4_3_u04_r11_network.client[15] 	downloads[15] 	12045
scalar tree_4_3_u04_r11_network.client[15] 	avg_time[15] 	0.004332972779
scalar tree_4_3_u04_r11_network.client[16] 	hdistance[16] 	2.8612491716368
scalar tree_4_3_u04_r11_network.client[16] 	downloads[16] 	12072
scalar tree_4_3_u04_r11_network.client[16] 	avg_time[16] 	0.004323906733
scalar tree_4_3_u04_r11_network.client[17] 	hdistance[17] 	2.8428826075885
scalar tree_4_3_u04_r11_network.client[17] 	downloads[17] 	11781
scalar tree_4_3_u04_r11_network.client[17] 	avg_time[17] 	0.004303142563
scalar tree_4_3_u04_r11_network.client[18] 	hdistance[18] 	2.815900972003
scalar tree_4_3_u04_r11_network.client[18] 	downloads[18] 	12037
scalar tree_4_3_u04_r11_network.client[18] 	avg_time[18] 	0.004260859337
scalar tree_4_3_u04_r11_network.client[19] 	hdistance[19] 	2.820074968763
scalar tree_4_3_u04_r11_network.client[19] 	downloads[19] 	12005
scalar tree_4_3_u04_r11_network.client[19] 	avg_time[19] 	0.004263054054
scalar tree_4_3_u04_r11_network.client[20] 	hdistance[20] 	2.8364717542121
scalar tree_4_3_u04_r11_network.client[20] 	downloads[20] 	12108
scalar tree_4_3_u04_r11_network.client[20] 	avg_time[20] 	0.004287928517
scalar tree_4_3_u04_r11_network.client[21] 	hdistance[21] 	2.8387634363803
scalar tree_4_3_u04_r11_network.client[21] 	downloads[21] 	12001
scalar tree_4_3_u04_r11_network.client[21] 	avg_time[21] 	0.004291460794
scalar tree_4_3_u04_r11_network.client[22] 	hdistance[22] 	2.830064268425
scalar tree_4_3_u04_r11_network.client[22] 	downloads[22] 	11981
scalar tree_4_3_u04_r11_network.client[22] 	avg_time[22] 	0.004274264594
scalar tree_4_3_u04_r11_network.client[23] 	hdistance[23] 	2.822125813449
scalar tree_4_3_u04_r11_network.client[23] 	downloads[23] 	11986
scalar tree_4_3_u04_r11_network.client[23] 	avg_time[23] 	0.004263971664
scalar tree_4_3_u04_r11_network.client[24] 	hdistance[24] 	2.8140177524703
scalar tree_4_3_u04_r11_network.client[24] 	downloads[24] 	11942
scalar tree_4_3_u04_r11_network.client[24] 	avg_time[24] 	0.004251211242
scalar tree_4_3_u04_r11_network.client[25] 	hdistance[25] 	2.8432622923309
scalar tree_4_3_u04_r11_network.client[25] 	downloads[25] 	11918
scalar tree_4_3_u04_r11_network.client[25] 	avg_time[25] 	0.004295735363
scalar tree_4_3_u04_r11_network.client[26] 	hdistance[26] 	2.8404653095139
scalar tree_4_3_u04_r11_network.client[26] 	downloads[26] 	12035
scalar tree_4_3_u04_r11_network.client[26] 	avg_time[26] 	0.004296133291
scalar tree_4_3_u04_r11_network.client[27] 	hdistance[27] 	2.8492542316072
scalar tree_4_3_u04_r11_network.client[27] 	downloads[27] 	11934
scalar tree_4_3_u04_r11_network.client[27] 	avg_time[27] 	0.004307018967
scalar tree_4_3_u04_r11_network.client[28] 	hdistance[28] 	2.8496919571272
scalar tree_4_3_u04_r11_network.client[28] 	downloads[28] 	11849
scalar tree_4_3_u04_r11_network.client[28] 	avg_time[28] 	0.00430567684
scalar tree_4_3_u04_r11_network.client[29] 	hdistance[29] 	2.8251515906637
scalar tree_4_3_u04_r11_network.client[29] 	downloads[29] 	12039
scalar tree_4_3_u04_r11_network.client[29] 	avg_time[29] 	0.004275269009
scalar tree_4_3_u04_r11_network.client[30] 	hdistance[30] 	2.8002984332256
scalar tree_4_3_u04_r11_network.client[30] 	downloads[30] 	12063
scalar tree_4_3_u04_r11_network.client[30] 	avg_time[30] 	0.004234432885
scalar tree_4_3_u04_r11_network.client[31] 	hdistance[31] 	2.8326090590005
scalar tree_4_3_u04_r11_network.client[31] 	downloads[31] 	11966
scalar tree_4_3_u04_r11_network.client[31] 	avg_time[31] 	0.004283466854
scalar tree_4_3_u04_r11_network.client[32] 	hdistance[32] 	2.8363498610994
scalar tree_4_3_u04_r11_network.client[32] 	downloads[32] 	11879
scalar tree_4_3_u04_r11_network.client[32] 	avg_time[32] 	0.004286048026
scalar tree_4_3_u04_r11_network.client[33] 	hdistance[33] 	2.8277484318257
scalar tree_4_3_u04_r11_network.client[33] 	downloads[33] 	12116
scalar tree_4_3_u04_r11_network.client[33] 	avg_time[33] 	0.004278966917
scalar tree_4_3_u04_r11_network.client[34] 	hdistance[34] 	2.8326032013479
scalar tree_4_3_u04_r11_network.client[34] 	downloads[34] 	11870
scalar tree_4_3_u04_r11_network.client[34] 	avg_time[34] 	0.004282856264
scalar tree_4_3_u04_r11_network.client[35] 	hdistance[35] 	2.8423205342237
scalar tree_4_3_u04_r11_network.client[35] 	downloads[35] 	11980
scalar tree_4_3_u04_r11_network.client[35] 	avg_time[35] 	0.004295489512
scalar tree_4_3_u04_r11_network.client[36] 	hdistance[36] 	2.835800807537
scalar tree_4_3_u04_r11_network.client[36] 	downloads[36] 	11888
scalar tree_4_3_u04_r11_network.client[36] 	avg_time[36] 	0.00428616794
scalar tree_4_3_u04_r11_network.client[37] 	hdistance[37] 	2.8458350951374
scalar tree_4_3_u04_r11_network.client[37] 	downloads[37] 	11825
scalar tree_4_3_u04_r11_network.client[37] 	avg_time[37] 	0.004300811895
scalar tree_4_3_u04_r11_network.client[38] 	hdistance[38] 	2.8427925665495
scalar tree_4_3_u04_r11_network.client[38] 	downloads[38] 	11946
scalar tree_4_3_u04_r11_network.client[38] 	avg_time[38] 	0.004294656313
scalar tree_4_3_u04_r11_network.client[39] 	hdistance[39] 	2.8256094517015
scalar tree_4_3_u04_r11_network.client[39] 	downloads[39] 	12019
scalar tree_4_3_u04_r11_network.client[39] 	avg_time[39] 	0.004279055165
