version 2
run General-88-20160820-08:16:44-856
attr a 0.9
attr cd lcd
attr configname General
attr cr lru
attr datetime 20160820-08:16:44
attr experiment General
attr fsize 1
attr inifile hw5115/scenario_A/SPR-LCD.ini
attr iterationvars "$name=tree_4_3, $un=04, $rep=9, $cd=lcd, $cr=lru, $fsize=1, $a=0.9, $sl=spr, $ttl=1000, $variance=0.05"
attr iterationvars2 "$name=tree_4_3, $un=04, $rep=9, $cd=lcd, $cr=lru, $fsize=1, $a=0.9, $sl=spr, $ttl=1000, $variance=0.05, $repetition=0"
attr measurement "$name=tree_4_3, $un=04, $rep=9, $cd=lcd, $cr=lru, $fsize=1, $a=0.9, $sl=spr, $ttl=1000, $variance=0.05"
attr name tree_4_3
attr network networks.${name}_u${un}_r${rep}_network
attr processid 856
attr rep 9
attr repetition 0
attr replication #0
attr resultdir results
attr runnumber 88
attr seedset 9
attr sl spr
attr ttl 1000
attr un 04
attr variance 0.05

scalar . 	a 	0.9
scalar . 	fsize 	1
scalar . 	rep 	9
scalar . 	ttl 	1000
scalar . 	un 	04
scalar . 	variance 	0.05
scalar tree_4_3_u04_r9_network.content_distribution 	repo-0 	0
scalar tree_4_3_u04_r9_network.content_distribution 	client-0 	13
scalar tree_4_3_u04_r9_network.content_distribution 	client-1 	14
scalar tree_4_3_u04_r9_network.content_distribution 	client-2 	15
scalar tree_4_3_u04_r9_network.content_distribution 	client-3 	16
scalar tree_4_3_u04_r9_network.content_distribution 	client-4 	17
scalar tree_4_3_u04_r9_network.content_distribution 	client-5 	18
scalar tree_4_3_u04_r9_network.content_distribution 	client-6 	19
scalar tree_4_3_u04_r9_network.content_distribution 	client-7 	20
scalar tree_4_3_u04_r9_network.content_distribution 	client-8 	21
scalar tree_4_3_u04_r9_network.content_distribution 	client-9 	22
scalar tree_4_3_u04_r9_network.content_distribution 	client-10 	23
scalar tree_4_3_u04_r9_network.content_distribution 	client-11 	24
scalar tree_4_3_u04_r9_network.content_distribution 	client-12 	25
scalar tree_4_3_u04_r9_network.content_distribution 	client-13 	26
scalar tree_4_3_u04_r9_network.content_distribution 	client-14 	27
scalar tree_4_3_u04_r9_network.content_distribution 	client-15 	28
scalar tree_4_3_u04_r9_network.content_distribution 	client-16 	29
scalar tree_4_3_u04_r9_network.content_distribution 	client-17 	30
scalar tree_4_3_u04_r9_network.content_distribution 	client-18 	31
scalar tree_4_3_u04_r9_network.content_distribution 	client-19 	32
scalar tree_4_3_u04_r9_network.content_distribution 	client-20 	33
scalar tree_4_3_u04_r9_network.content_distribution 	client-21 	34
scalar tree_4_3_u04_r9_network.content_distribution 	client-22 	35
scalar tree_4_3_u04_r9_network.content_distribution 	client-23 	36
scalar tree_4_3_u04_r9_network.content_distribution 	client-24 	37
scalar tree_4_3_u04_r9_network.content_distribution 	client-25 	38
scalar tree_4_3_u04_r9_network.content_distribution 	client-26 	39
scalar tree_4_3_u04_r9_network.content_distribution 	repo-0_card 	100000
scalar tree_4_3_u04_r9_network.content_distribution 	repo-0_price 	0
scalar tree_4_3_u04_r9_network.statistics 	stabilization_time 	989.7
scalar tree_4_3_u04_r9_network.statistics 	p_hit 	0.18859348926166
scalar tree_4_3_u04_r9_network.statistics 	interests 	25420.55
scalar tree_4_3_u04_r9_network.statistics 	data 	17325.875
scalar tree_4_3_u04_r9_network.statistics 	hdistance 	2.8310430586305
scalar tree_4_3_u04_r9_network.statistics 	avg_time 	0.004281031437
scalar tree_4_3_u04_r9_network.statistics 	downloads 	323780
scalar tree_4_3_u04_r9_network.statistics 	total_cost 	0
scalar tree_4_3_u04_r9_network.statistics 	total_replicas 	100000
scalar tree_4_3_u04_r9_network.statistics 	inner_hit 	0.30958984495645
scalar tree_4_3_u04_r9_network.node[0].core_layer 	interests[0] 	225768
scalar tree_4_3_u04_r9_network.node[0].core_layer 	repo_load[0] 	223541
scalar tree_4_3_u04_r9_network.node[0].core_layer 	data[0] 	0
scalar tree_4_3_u04_r9_network.node[0].core_layer 	repo_int[0] 	223541
scalar tree_4_3_u04_r9_network.node[0].content_store 	p_hit[0] 	0.0098641082881542
scalar tree_4_3_u04_r9_network.node[0].content_store 	hits[0] 	2227
scalar tree_4_3_u04_r9_network.node[0].content_store 	misses[0] 	223541
scalar tree_4_3_u04_r9_network.node[0].content_store 	decision_yes[0] 	223541
scalar tree_4_3_u04_r9_network.node[0].content_store 	decision_no[0] 	0
scalar tree_4_3_u04_r9_network.node[0].content_store 	decision_ratio[0] 	1
scalar tree_4_3_u04_r9_network.node[1].core_layer 	interests[1] 	135605
scalar tree_4_3_u04_r9_network.node[1].core_layer 	data[1] 	132755
scalar tree_4_3_u04_r9_network.node[1].content_store 	p_hit[1] 	0.020913683123779
scalar tree_4_3_u04_r9_network.node[1].content_store 	hits[1] 	2836
scalar tree_4_3_u04_r9_network.node[1].content_store 	misses[1] 	132769
scalar tree_4_3_u04_r9_network.node[1].content_store 	decision_yes[1] 	1299
scalar tree_4_3_u04_r9_network.node[1].content_store 	decision_no[1] 	131456
scalar tree_4_3_u04_r9_network.node[1].content_store 	decision_ratio[1] 	0.009784942186735
scalar tree_4_3_u04_r9_network.node[2].core_layer 	interests[2] 	51282
scalar tree_4_3_u04_r9_network.node[2].core_layer 	data[2] 	50624
scalar tree_4_3_u04_r9_network.node[2].content_store 	p_hit[2] 	0.012811512811513
scalar tree_4_3_u04_r9_network.node[2].content_store 	hits[2] 	657
scalar tree_4_3_u04_r9_network.node[2].content_store 	misses[2] 	50625
scalar tree_4_3_u04_r9_network.node[2].content_store 	decision_yes[2] 	469
scalar tree_4_3_u04_r9_network.node[2].content_store 	decision_no[2] 	50155
scalar tree_4_3_u04_r9_network.node[2].content_store 	decision_ratio[2] 	0.0092643805309735
scalar tree_4_3_u04_r9_network.node[3].core_layer 	interests[3] 	43020
scalar tree_4_3_u04_r9_network.node[3].core_layer 	data[3] 	42389
scalar tree_4_3_u04_r9_network.node[3].content_store 	p_hit[3] 	0.014644351464435
scalar tree_4_3_u04_r9_network.node[3].content_store 	hits[3] 	630
scalar tree_4_3_u04_r9_network.node[3].content_store 	misses[3] 	42390
scalar tree_4_3_u04_r9_network.node[3].content_store 	decision_yes[3] 	459
scalar tree_4_3_u04_r9_network.node[3].content_store 	decision_no[3] 	41930
scalar tree_4_3_u04_r9_network.node[3].content_store 	decision_ratio[3] 	0.010828280921937
scalar tree_4_3_u04_r9_network.node[4].core_layer 	interests[4] 	34778
scalar tree_4_3_u04_r9_network.node[4].core_layer 	data[4] 	33569
scalar tree_4_3_u04_r9_network.node[4].content_store 	p_hit[4] 	0.034763356144689
scalar tree_4_3_u04_r9_network.node[4].content_store 	hits[4] 	1209
scalar tree_4_3_u04_r9_network.node[4].content_store 	misses[4] 	33569
scalar tree_4_3_u04_r9_network.node[4].content_store 	decision_yes[4] 	656
scalar tree_4_3_u04_r9_network.node[4].content_store 	decision_no[4] 	32913
scalar tree_4_3_u04_r9_network.node[4].content_store 	decision_ratio[4] 	0.019541839196878
scalar tree_4_3_u04_r9_network.node[5].core_layer 	interests[5] 	26467
scalar tree_4_3_u04_r9_network.node[5].core_layer 	data[5] 	25535
scalar tree_4_3_u04_r9_network.node[5].content_store 	p_hit[5] 	0.035138096497525
scalar tree_4_3_u04_r9_network.node[5].content_store 	hits[5] 	930
scalar tree_4_3_u04_r9_network.node[5].content_store 	misses[5] 	25537
scalar tree_4_3_u04_r9_network.node[5].content_store 	decision_yes[5] 	567
scalar tree_4_3_u04_r9_network.node[5].content_store 	decision_no[5] 	24968
scalar tree_4_3_u04_r9_network.node[5].content_store 	decision_ratio[5] 	0.022204816917956
scalar tree_4_3_u04_r9_network.node[6].core_layer 	interests[6] 	17492
scalar tree_4_3_u04_r9_network.node[6].core_layer 	data[6] 	16913
scalar tree_4_3_u04_r9_network.node[6].content_store 	p_hit[6] 	0.033100846101075
scalar tree_4_3_u04_r9_network.node[6].content_store 	hits[6] 	579
scalar tree_4_3_u04_r9_network.node[6].content_store 	misses[6] 	16913
scalar tree_4_3_u04_r9_network.node[6].content_store 	decision_yes[6] 	404
scalar tree_4_3_u04_r9_network.node[6].content_store 	decision_no[6] 	16509
scalar tree_4_3_u04_r9_network.node[6].content_store 	decision_ratio[6] 	0.023886950866198
scalar tree_4_3_u04_r9_network.node[7].core_layer 	interests[7] 	26521
scalar tree_4_3_u04_r9_network.node[7].core_layer 	data[7] 	25617
scalar tree_4_3_u04_r9_network.node[7].content_store 	p_hit[7] 	0.034086195844802
scalar tree_4_3_u04_r9_network.node[7].content_store 	hits[7] 	904
scalar tree_4_3_u04_r9_network.node[7].content_store 	misses[7] 	25617
scalar tree_4_3_u04_r9_network.node[7].content_store 	decision_yes[7] 	561
scalar tree_4_3_u04_r9_network.node[7].content_store 	decision_no[7] 	25056
scalar tree_4_3_u04_r9_network.node[7].content_store 	decision_ratio[7] 	0.0218995198501
scalar tree_4_3_u04_r9_network.node[8].core_layer 	interests[8] 	26297
scalar tree_4_3_u04_r9_network.node[8].core_layer 	data[8] 	25623
scalar tree_4_3_u04_r9_network.node[8].content_store 	p_hit[8] 	0.025630300034224
scalar tree_4_3_u04_r9_network.node[8].content_store 	hits[8] 	674
scalar tree_4_3_u04_r9_network.node[8].content_store 	misses[8] 	25623
scalar tree_4_3_u04_r9_network.node[8].content_store 	decision_yes[8] 	335
scalar tree_4_3_u04_r9_network.node[8].content_store 	decision_no[8] 	25288
scalar tree_4_3_u04_r9_network.node[8].content_store 	decision_ratio[8] 	0.013074191156383
scalar tree_4_3_u04_r9_network.node[9].core_layer 	interests[9] 	26328
scalar tree_4_3_u04_r9_network.node[9].core_layer 	data[9] 	25659
scalar tree_4_3_u04_r9_network.node[9].content_store 	p_hit[9] 	0.025410209662716
scalar tree_4_3_u04_r9_network.node[9].content_store 	hits[9] 	669
scalar tree_4_3_u04_r9_network.node[9].content_store 	misses[9] 	25659
scalar tree_4_3_u04_r9_network.node[9].content_store 	decision_yes[9] 	322
scalar tree_4_3_u04_r9_network.node[9].content_store 	decision_no[9] 	25337
scalar tree_4_3_u04_r9_network.node[9].content_store 	decision_ratio[9] 	0.012549203008691
scalar tree_4_3_u04_r9_network.node[10].core_layer 	interests[10] 	35224
scalar tree_4_3_u04_r9_network.node[10].core_layer 	data[10] 	33970
scalar tree_4_3_u04_r9_network.node[10].content_store 	p_hit[10] 	0.035572337042925
scalar tree_4_3_u04_r9_network.node[10].content_store 	hits[10] 	1253
scalar tree_4_3_u04_r9_network.node[10].content_store 	misses[10] 	33971
scalar tree_4_3_u04_r9_network.node[10].content_store 	decision_yes[10] 	648
scalar tree_4_3_u04_r9_network.node[10].content_store 	decision_no[10] 	33322
scalar tree_4_3_u04_r9_network.node[10].content_store 	decision_ratio[10] 	0.019075654989697
scalar tree_4_3_u04_r9_network.node[11].core_layer 	interests[11] 	17620
scalar tree_4_3_u04_r9_network.node[11].core_layer 	data[11] 	17130
scalar tree_4_3_u04_r9_network.node[11].content_store 	p_hit[11] 	0.027809307604994
scalar tree_4_3_u04_r9_network.node[11].content_store 	hits[11] 	490
scalar tree_4_3_u04_r9_network.node[11].content_store 	misses[11] 	17130
scalar tree_4_3_u04_r9_network.node[11].content_store 	decision_yes[11] 	289
scalar tree_4_3_u04_r9_network.node[11].content_store 	decision_no[11] 	16841
scalar tree_4_3_u04_r9_network.node[11].content_store 	decision_ratio[11] 	0.016870986573263
scalar tree_4_3_u04_r9_network.node[12].core_layer 	interests[12] 	26636
scalar tree_4_3_u04_r9_network.node[12].core_layer 	data[12] 	25890
scalar tree_4_3_u04_r9_network.node[12].content_store 	p_hit[12] 	0.027969665114882
scalar tree_4_3_u04_r9_network.node[12].content_store 	hits[12] 	745
scalar tree_4_3_u04_r9_network.node[12].content_store 	misses[12] 	25891
scalar tree_4_3_u04_r9_network.node[12].content_store 	decision_yes[12] 	341
scalar tree_4_3_u04_r9_network.node[12].content_store 	decision_no[12] 	25549
scalar tree_4_3_u04_r9_network.node[12].content_store 	decision_ratio[12] 	0.013171108536114
scalar tree_4_3_u04_r9_network.node[13].core_layer 	interests[13] 	11975
scalar tree_4_3_u04_r9_network.node[13].core_layer 	data[13] 	8690
scalar tree_4_3_u04_r9_network.node[13].content_store 	p_hit[13] 	0.27432150313152
scalar tree_4_3_u04_r9_network.node[13].content_store 	hits[13] 	3285
scalar tree_4_3_u04_r9_network.node[13].content_store 	misses[13] 	8690
scalar tree_4_3_u04_r9_network.node[13].content_store 	decision_yes[13] 	278
scalar tree_4_3_u04_r9_network.node[13].content_store 	decision_no[13] 	8412
scalar tree_4_3_u04_r9_network.node[13].content_store 	decision_ratio[13] 	0.03199079401611
scalar tree_4_3_u04_r9_network.node[14].core_layer 	interests[14] 	11839
scalar tree_4_3_u04_r9_network.node[14].core_layer 	data[14] 	8617
scalar tree_4_3_u04_r9_network.node[14].content_store 	p_hit[14] 	0.27215136413548
scalar tree_4_3_u04_r9_network.node[14].content_store 	hits[14] 	3222
scalar tree_4_3_u04_r9_network.node[14].content_store 	misses[14] 	8617
scalar tree_4_3_u04_r9_network.node[14].content_store 	decision_yes[14] 	307
scalar tree_4_3_u04_r9_network.node[14].content_store 	decision_no[14] 	8310
scalar tree_4_3_u04_r9_network.node[14].content_store 	decision_ratio[14] 	0.035627248462342
scalar tree_4_3_u04_r9_network.node[15].core_layer 	interests[15] 	11914
scalar tree_4_3_u04_r9_network.node[15].core_layer 	data[15] 	8761
scalar tree_4_3_u04_r9_network.node[15].content_store 	p_hit[15] 	0.26464663421185
scalar tree_4_3_u04_r9_network.node[15].content_store 	hits[15] 	3153
scalar tree_4_3_u04_r9_network.node[15].content_store 	misses[15] 	8761
scalar tree_4_3_u04_r9_network.node[15].content_store 	decision_yes[15] 	317
scalar tree_4_3_u04_r9_network.node[15].content_store 	decision_no[15] 	8444
scalar tree_4_3_u04_r9_network.node[15].content_store 	decision_ratio[15] 	0.036183084122817
scalar tree_4_3_u04_r9_network.node[16].core_layer 	interests[16] 	11928
scalar tree_4_3_u04_r9_network.node[16].core_layer 	data[16] 	8710
scalar tree_4_3_u04_r9_network.node[16].content_store 	p_hit[16] 	0.26978537894031
scalar tree_4_3_u04_r9_network.node[16].content_store 	hits[16] 	3218
scalar tree_4_3_u04_r9_network.node[16].content_store 	misses[16] 	8710
scalar tree_4_3_u04_r9_network.node[16].content_store 	decision_yes[16] 	307
scalar tree_4_3_u04_r9_network.node[16].content_store 	decision_no[16] 	8403
scalar tree_4_3_u04_r9_network.node[16].content_store 	decision_ratio[16] 	0.035246842709529
scalar tree_4_3_u04_r9_network.node[17].core_layer 	interests[17] 	11866
scalar tree_4_3_u04_r9_network.node[17].core_layer 	data[17] 	8765
scalar tree_4_3_u04_r9_network.node[17].content_store 	p_hit[17] 	0.26133490645542
scalar tree_4_3_u04_r9_network.node[17].content_store 	hits[17] 	3101
scalar tree_4_3_u04_r9_network.node[17].content_store 	misses[17] 	8765
scalar tree_4_3_u04_r9_network.node[17].content_store 	decision_yes[17] 	322
scalar tree_4_3_u04_r9_network.node[17].content_store 	decision_no[17] 	8443
scalar tree_4_3_u04_r9_network.node[17].content_store 	decision_ratio[17] 	0.036737022247576
scalar tree_4_3_u04_r9_network.node[18].core_layer 	interests[18] 	12151
scalar tree_4_3_u04_r9_network.node[18].core_layer 	data[18] 	8908
scalar tree_4_3_u04_r9_network.node[18].content_store 	p_hit[18] 	0.26680931610567
scalar tree_4_3_u04_r9_network.node[18].content_store 	hits[18] 	3242
scalar tree_4_3_u04_r9_network.node[18].content_store 	misses[18] 	8909
scalar tree_4_3_u04_r9_network.node[18].content_store 	decision_yes[18] 	327
scalar tree_4_3_u04_r9_network.node[18].content_store 	decision_no[18] 	8581
scalar tree_4_3_u04_r9_network.node[18].content_store 	decision_ratio[18] 	0.036708576560395
scalar tree_4_3_u04_r9_network.node[19].core_layer 	interests[19] 	12017
scalar tree_4_3_u04_r9_network.node[19].core_layer 	data[19] 	8789
scalar tree_4_3_u04_r9_network.node[19].content_store 	p_hit[19] 	0.26861945577099
scalar tree_4_3_u04_r9_network.node[19].content_store 	hits[19] 	3228
scalar tree_4_3_u04_r9_network.node[19].content_store 	misses[19] 	8789
scalar tree_4_3_u04_r9_network.node[19].content_store 	decision_yes[19] 	307
scalar tree_4_3_u04_r9_network.node[19].content_store 	decision_no[19] 	8482
scalar tree_4_3_u04_r9_network.node[19].content_store 	decision_ratio[19] 	0.034930026169075
scalar tree_4_3_u04_r9_network.node[20].core_layer 	interests[20] 	12025
scalar tree_4_3_u04_r9_network.node[20].core_layer 	data[20] 	8793
scalar tree_4_3_u04_r9_network.node[20].content_store 	p_hit[20] 	0.26869022869023
scalar tree_4_3_u04_r9_network.node[20].content_store 	hits[20] 	3231
scalar tree_4_3_u04_r9_network.node[20].content_store 	misses[20] 	8794
scalar tree_4_3_u04_r9_network.node[20].content_store 	decision_yes[20] 	281
scalar tree_4_3_u04_r9_network.node[20].content_store 	decision_no[20] 	8512
scalar tree_4_3_u04_r9_network.node[20].content_store 	decision_ratio[20] 	0.031957238712612
scalar tree_4_3_u04_r9_network.node[21].core_layer 	interests[21] 	11944
scalar tree_4_3_u04_r9_network.node[21].core_layer 	data[21] 	8703
scalar tree_4_3_u04_r9_network.node[21].content_store 	p_hit[21] 	0.2713496316142
scalar tree_4_3_u04_r9_network.node[21].content_store 	hits[21] 	3241
scalar tree_4_3_u04_r9_network.node[21].content_store 	misses[21] 	8703
scalar tree_4_3_u04_r9_network.node[21].content_store 	decision_yes[21] 	272
scalar tree_4_3_u04_r9_network.node[21].content_store 	decision_no[21] 	8431
scalar tree_4_3_u04_r9_network.node[21].content_store 	decision_ratio[21] 	0.031253590715845
scalar tree_4_3_u04_r9_network.node[22].core_layer 	interests[22] 	12022
scalar tree_4_3_u04_r9_network.node[22].core_layer 	data[22] 	8873
scalar tree_4_3_u04_r9_network.node[22].content_store 	p_hit[22] 	0.26193644984196
scalar tree_4_3_u04_r9_network.node[22].content_store 	hits[22] 	3149
scalar tree_4_3_u04_r9_network.node[22].content_store 	misses[22] 	8873
scalar tree_4_3_u04_r9_network.node[22].content_store 	decision_yes[22] 	283
scalar tree_4_3_u04_r9_network.node[22].content_store 	decision_no[22] 	8590
scalar tree_4_3_u04_r9_network.node[22].content_store 	decision_ratio[22] 	0.031894511439198
scalar tree_4_3_u04_r9_network.node[23].core_layer 	interests[23] 	12071
scalar tree_4_3_u04_r9_network.node[23].core_layer 	data[23] 	8832
scalar tree_4_3_u04_r9_network.node[23].content_store 	p_hit[23] 	0.26832905310248
scalar tree_4_3_u04_r9_network.node[23].content_store 	hits[23] 	3239
scalar tree_4_3_u04_r9_network.node[23].content_store 	misses[23] 	8832
scalar tree_4_3_u04_r9_network.node[23].content_store 	decision_yes[23] 	313
scalar tree_4_3_u04_r9_network.node[23].content_store 	decision_no[23] 	8519
scalar tree_4_3_u04_r9_network.node[23].content_store 	decision_ratio[23] 	0.035439311594203
scalar tree_4_3_u04_r9_network.node[24].core_layer 	interests[24] 	11959
scalar tree_4_3_u04_r9_network.node[24].core_layer 	data[24] 	8815
scalar tree_4_3_u04_r9_network.node[24].content_store 	p_hit[24] 	0.26281461660674
scalar tree_4_3_u04_r9_network.node[24].content_store 	hits[24] 	3143
scalar tree_4_3_u04_r9_network.node[24].content_store 	misses[24] 	8816
scalar tree_4_3_u04_r9_network.node[24].content_store 	decision_yes[24] 	308
scalar tree_4_3_u04_r9_network.node[24].content_store 	decision_no[24] 	8507
scalar tree_4_3_u04_r9_network.node[24].content_store 	decision_ratio[24] 	0.03494044242768
scalar tree_4_3_u04_r9_network.node[25].core_layer 	interests[25] 	11868
scalar tree_4_3_u04_r9_network.node[25].core_layer 	data[25] 	8692
scalar tree_4_3_u04_r9_network.node[25].content_store 	p_hit[25] 	0.26761038085608
scalar tree_4_3_u04_r9_network.node[25].content_store 	hits[25] 	3176
scalar tree_4_3_u04_r9_network.node[25].content_store 	misses[25] 	8692
scalar tree_4_3_u04_r9_network.node[25].content_store 	decision_yes[25] 	222
scalar tree_4_3_u04_r9_network.node[25].content_store 	decision_no[25] 	8470
scalar tree_4_3_u04_r9_network.node[25].content_store 	decision_ratio[25] 	0.025540727105384
scalar tree_4_3_u04_r9_network.node[26].core_layer 	interests[26] 	11938
scalar tree_4_3_u04_r9_network.node[26].core_layer 	data[26] 	8782
scalar tree_4_3_u04_r9_network.node[26].content_store 	p_hit[26] 	0.26436589043391
scalar tree_4_3_u04_r9_network.node[26].content_store 	hits[26] 	3156
scalar tree_4_3_u04_r9_network.node[26].content_store 	misses[26] 	8782
scalar tree_4_3_u04_r9_network.node[26].content_store 	decision_yes[26] 	228
scalar tree_4_3_u04_r9_network.node[26].content_store 	decision_no[26] 	8554
scalar tree_4_3_u04_r9_network.node[26].content_store 	decision_ratio[26] 	0.025962195399681
scalar tree_4_3_u04_r9_network.node[27].core_layer 	interests[27] 	11866
scalar tree_4_3_u04_r9_network.node[27].core_layer 	data[27] 	8823
scalar tree_4_3_u04_r9_network.node[27].content_store 	p_hit[27] 	0.25644699140401
scalar tree_4_3_u04_r9_network.node[27].content_store 	hits[27] 	3043
scalar tree_4_3_u04_r9_network.node[27].content_store 	misses[27] 	8823
scalar tree_4_3_u04_r9_network.node[27].content_store 	decision_yes[27] 	224
scalar tree_4_3_u04_r9_network.node[27].content_store 	decision_no[27] 	8599
scalar tree_4_3_u04_r9_network.node[27].content_store 	decision_ratio[27] 	0.025388189958064
scalar tree_4_3_u04_r9_network.node[28].core_layer 	interests[28] 	12179
scalar tree_4_3_u04_r9_network.node[28].core_layer 	data[28] 	8871
scalar tree_4_3_u04_r9_network.node[28].content_store 	p_hit[28] 	0.27161507512932
scalar tree_4_3_u04_r9_network.node[28].content_store 	hits[28] 	3308
scalar tree_4_3_u04_r9_network.node[28].content_store 	misses[28] 	8871
scalar tree_4_3_u04_r9_network.node[28].content_store 	decision_yes[28] 	214
scalar tree_4_3_u04_r9_network.node[28].content_store 	decision_no[28] 	8657
scalar tree_4_3_u04_r9_network.node[28].content_store 	decision_ratio[28] 	0.024123548641641
scalar tree_4_3_u04_r9_network.node[29].core_layer 	interests[29] 	12027
scalar tree_4_3_u04_r9_network.node[29].core_layer 	data[29] 	8769
scalar tree_4_3_u04_r9_network.node[29].content_store 	p_hit[29] 	0.27089049638314
scalar tree_4_3_u04_r9_network.node[29].content_store 	hits[29] 	3258
scalar tree_4_3_u04_r9_network.node[29].content_store 	misses[29] 	8769
scalar tree_4_3_u04_r9_network.node[29].content_store 	decision_yes[29] 	222
scalar tree_4_3_u04_r9_network.node[29].content_store 	decision_no[29] 	8547
scalar tree_4_3_u04_r9_network.node[29].content_store 	decision_ratio[29] 	0.025316455696203
scalar tree_4_3_u04_r9_network.node[30].core_layer 	interests[30] 	11810
scalar tree_4_3_u04_r9_network.node[30].core_layer 	data[30] 	8688
scalar tree_4_3_u04_r9_network.node[30].content_store 	p_hit[30] 	0.26435224386113
scalar tree_4_3_u04_r9_network.node[30].content_store 	hits[30] 	3122
scalar tree_4_3_u04_r9_network.node[30].content_store 	misses[30] 	8688
scalar tree_4_3_u04_r9_network.node[30].content_store 	decision_yes[30] 	233
scalar tree_4_3_u04_r9_network.node[30].content_store 	decision_no[30] 	8455
scalar tree_4_3_u04_r9_network.node[30].content_store 	decision_ratio[30] 	0.026818600368324
scalar tree_4_3_u04_r9_network.node[31].core_layer 	interests[31] 	12013
scalar tree_4_3_u04_r9_network.node[31].core_layer 	data[31] 	8842
scalar tree_4_3_u04_r9_network.node[31].content_store 	p_hit[31] 	0.2639640389578
scalar tree_4_3_u04_r9_network.node[31].content_store 	hits[31] 	3171
scalar tree_4_3_u04_r9_network.node[31].content_store 	misses[31] 	8842
scalar tree_4_3_u04_r9_network.node[31].content_store 	decision_yes[31] 	317
scalar tree_4_3_u04_r9_network.node[31].content_store 	decision_no[31] 	8525
scalar tree_4_3_u04_r9_network.node[31].content_store 	decision_ratio[31] 	0.035851617281158
scalar tree_4_3_u04_r9_network.node[32].core_layer 	interests[32] 	12225
scalar tree_4_3_u04_r9_network.node[32].core_layer 	data[32] 	8917
scalar tree_4_3_u04_r9_network.node[32].content_store 	p_hit[32] 	0.27059304703476
scalar tree_4_3_u04_r9_network.node[32].content_store 	hits[32] 	3308
scalar tree_4_3_u04_r9_network.node[32].content_store 	misses[32] 	8917
scalar tree_4_3_u04_r9_network.node[32].content_store 	decision_yes[32] 	330
scalar tree_4_3_u04_r9_network.node[32].content_store 	decision_no[32] 	8587
scalar tree_4_3_u04_r9_network.node[32].content_store 	decision_ratio[32] 	0.037007962319166
scalar tree_4_3_u04_r9_network.node[33].core_layer 	interests[33] 	12036
scalar tree_4_3_u04_r9_network.node[33].core_layer 	data[33] 	8708
scalar tree_4_3_u04_r9_network.node[33].content_store 	p_hit[33] 	0.27650382186773
scalar tree_4_3_u04_r9_network.node[33].content_store 	hits[33] 	3328
scalar tree_4_3_u04_r9_network.node[33].content_store 	misses[33] 	8708
scalar tree_4_3_u04_r9_network.node[33].content_store 	decision_yes[33] 	315
scalar tree_4_3_u04_r9_network.node[33].content_store 	decision_no[33] 	8393
scalar tree_4_3_u04_r9_network.node[33].content_store 	decision_ratio[33] 	0.036173633440514
scalar tree_4_3_u04_r9_network.node[34].core_layer 	interests[34] 	12087
scalar tree_4_3_u04_r9_network.node[34].core_layer 	data[34] 	8757
scalar tree_4_3_u04_r9_network.node[34].content_store 	p_hit[34] 	0.27550260610573
scalar tree_4_3_u04_r9_network.node[34].content_store 	hits[34] 	3330
scalar tree_4_3_u04_r9_network.node[34].content_store 	misses[34] 	8757
scalar tree_4_3_u04_r9_network.node[34].content_store 	decision_yes[34] 	291
scalar tree_4_3_u04_r9_network.node[34].content_store 	decision_no[34] 	8466
scalar tree_4_3_u04_r9_network.node[34].content_store 	decision_ratio[34] 	0.033230558410415
scalar tree_4_3_u04_r9_network.node[35].core_layer 	interests[35] 	11969
scalar tree_4_3_u04_r9_network.node[35].core_layer 	data[35] 	8795
scalar tree_4_3_u04_r9_network.node[35].content_store 	p_hit[35] 	0.26510151223995
scalar tree_4_3_u04_r9_network.node[35].content_store 	hits[35] 	3173
scalar tree_4_3_u04_r9_network.node[35].content_store 	misses[35] 	8796
scalar tree_4_3_u04_r9_network.node[35].content_store 	decision_yes[35] 	234
scalar tree_4_3_u04_r9_network.node[35].content_store 	decision_no[35] 	8561
scalar tree_4_3_u04_r9_network.node[35].content_store 	decision_ratio[35] 	0.026606026151222
scalar tree_4_3_u04_r9_network.node[36].core_layer 	interests[36] 	12000
scalar tree_4_3_u04_r9_network.node[36].core_layer 	data[36] 	8825
scalar tree_4_3_u04_r9_network.node[36].content_store 	p_hit[36] 	0.26458333333333
scalar tree_4_3_u04_r9_network.node[36].content_store 	hits[36] 	3175
scalar tree_4_3_u04_r9_network.node[36].content_store 	misses[36] 	8825
scalar tree_4_3_u04_r9_network.node[36].content_store 	decision_yes[36] 	256
scalar tree_4_3_u04_r9_network.node[36].content_store 	decision_no[36] 	8569
scalar tree_4_3_u04_r9_network.node[36].content_store 	decision_ratio[36] 	0.029008498583569
scalar tree_4_3_u04_r9_network.node[37].core_layer 	interests[37] 	11979
scalar tree_4_3_u04_r9_network.node[37].core_layer 	data[37] 	8879
scalar tree_4_3_u04_r9_network.node[37].content_store 	p_hit[37] 	0.25878620919943
scalar tree_4_3_u04_r9_network.node[37].content_store 	hits[37] 	3100
scalar tree_4_3_u04_r9_network.node[37].content_store 	misses[37] 	8879
scalar tree_4_3_u04_r9_network.node[37].content_store 	decision_yes[37] 	232
scalar tree_4_3_u04_r9_network.node[37].content_store 	decision_no[37] 	8647
scalar tree_4_3_u04_r9_network.node[37].content_store 	decision_ratio[37] 	0.026129068588805
scalar tree_4_3_u04_r9_network.node[38].core_layer 	interests[38] 	12033
scalar tree_4_3_u04_r9_network.node[38].core_layer 	data[38] 	8870
scalar tree_4_3_u04_r9_network.node[38].content_store 	p_hit[38] 	0.26286046704895
scalar tree_4_3_u04_r9_network.node[38].content_store 	hits[38] 	3163
scalar tree_4_3_u04_r9_network.node[38].content_store 	misses[38] 	8870
scalar tree_4_3_u04_r9_network.node[38].content_store 	decision_yes[38] 	254
scalar tree_4_3_u04_r9_network.node[38].content_store 	decision_no[38] 	8616
scalar tree_4_3_u04_r9_network.node[38].content_store 	decision_ratio[38] 	0.028635851183766
scalar tree_4_3_u04_r9_network.node[39].core_layer 	interests[39] 	12043
scalar tree_4_3_u04_r9_network.node[39].core_layer 	data[39] 	8887
scalar tree_4_3_u04_r9_network.node[39].content_store 	p_hit[39] 	0.2620609482687
scalar tree_4_3_u04_r9_network.node[39].content_store 	hits[39] 	3156
scalar tree_4_3_u04_r9_network.node[39].content_store 	misses[39] 	8887
scalar tree_4_3_u04_r9_network.node[39].content_store 	decision_yes[39] 	259
scalar tree_4_3_u04_r9_network.node[39].content_store 	decision_no[39] 	8628
scalar tree_4_3_u04_r9_network.node[39].content_store 	decision_ratio[39] 	0.02914369303477
scalar tree_4_3_u04_r9_network.client[13] 	hdistance[13] 	2.7971607515658
scalar tree_4_3_u04_r9_network.client[13] 	downloads[13] 	11975
scalar tree_4_3_u04_r9_network.client[13] 	avg_time[13] 	0.004230811217
scalar tree_4_3_u04_r9_network.client[14] 	hdistance[14] 	2.8011656389898
scalar tree_4_3_u04_r9_network.client[14] 	downloads[14] 	11839
scalar tree_4_3_u04_r9_network.client[14] 	avg_time[14] 	0.004236841369
scalar tree_4_3_u04_r9_network.client[15] 	hdistance[15] 	2.8253315427228
scalar tree_4_3_u04_r9_network.client[15] 	downloads[15] 	11914
scalar tree_4_3_u04_r9_network.client[15] 	avg_time[15] 	0.004276021369
scalar tree_4_3_u04_r9_network.client[16] 	hdistance[16] 	2.8134641180416
scalar tree_4_3_u04_r9_network.client[16] 	downloads[16] 	11928
scalar tree_4_3_u04_r9_network.client[16] 	avg_time[16] 	0.004254626743
scalar tree_4_3_u04_r9_network.client[17] 	hdistance[17] 	2.8332209674701
scalar tree_4_3_u04_r9_network.client[17] 	downloads[17] 	11866
scalar tree_4_3_u04_r9_network.client[17] 	avg_time[17] 	0.004290949237
scalar tree_4_3_u04_r9_network.client[18] 	hdistance[18] 	2.8159670781893
scalar tree_4_3_u04_r9_network.client[18] 	downloads[18] 	12150
scalar tree_4_3_u04_r9_network.client[18] 	avg_time[18] 	0.004262151888
scalar tree_4_3_u04_r9_network.client[19] 	hdistance[19] 	2.8074394607639
scalar tree_4_3_u04_r9_network.client[19] 	downloads[19] 	12017
scalar tree_4_3_u04_r9_network.client[19] 	avg_time[19] 	0.004252490436
scalar tree_4_3_u04_r9_network.client[20] 	hdistance[20] 	2.8162009314704
scalar tree_4_3_u04_r9_network.client[20] 	downloads[20] 	12024
scalar tree_4_3_u04_r9_network.client[20] 	avg_time[20] 	0.00426105786
scalar tree_4_3_u04_r9_network.client[21] 	hdistance[21] 	2.8049229738781
scalar tree_4_3_u04_r9_network.client[21] 	downloads[21] 	11944
scalar tree_4_3_u04_r9_network.client[21] 	avg_time[21] 	0.004246556059
scalar tree_4_3_u04_r9_network.client[22] 	hdistance[22] 	2.8419564132424
scalar tree_4_3_u04_r9_network.client[22] 	downloads[22] 	12022
scalar tree_4_3_u04_r9_network.client[22] 	avg_time[22] 	0.004300122064
scalar tree_4_3_u04_r9_network.client[23] 	hdistance[23] 	2.8125258884931
scalar tree_4_3_u04_r9_network.client[23] 	downloads[23] 	12071
scalar tree_4_3_u04_r9_network.client[23] 	avg_time[23] 	0.004255816709
scalar tree_4_3_u04_r9_network.client[24] 	hdistance[24] 	2.8345040976752
scalar tree_4_3_u04_r9_network.client[24] 	downloads[24] 	11958
scalar tree_4_3_u04_r9_network.client[24] 	avg_time[24] 	0.00429101555
scalar tree_4_3_u04_r9_network.client[25] 	hdistance[25] 	2.8476575665656
scalar tree_4_3_u04_r9_network.client[25] 	downloads[25] 	11868
scalar tree_4_3_u04_r9_network.client[25] 	avg_time[25] 	0.0042997948
scalar tree_4_3_u04_r9_network.client[26] 	hdistance[26] 	2.8583514826604
scalar tree_4_3_u04_r9_network.client[26] 	downloads[26] 	11938
scalar tree_4_3_u04_r9_network.client[26] 	avg_time[26] 	0.004317638158
scalar tree_4_3_u04_r9_network.client[27] 	hdistance[27] 	2.8936457104332
scalar tree_4_3_u04_r9_network.client[27] 	downloads[27] 	11866
scalar tree_4_3_u04_r9_network.client[27] 	avg_time[27] 	0.004368801975
scalar tree_4_3_u04_r9_network.client[28] 	hdistance[28] 	2.8379998357829
scalar tree_4_3_u04_r9_network.client[28] 	downloads[28] 	12179
scalar tree_4_3_u04_r9_network.client[28] 	avg_time[28] 	0.004283107233
scalar tree_4_3_u04_r9_network.client[29] 	hdistance[29] 	2.8348715390372
scalar tree_4_3_u04_r9_network.client[29] 	downloads[29] 	12027
scalar tree_4_3_u04_r9_network.client[29] 	avg_time[29] 	0.004281363911
scalar tree_4_3_u04_r9_network.client[30] 	hdistance[30] 	2.8597798475868
scalar tree_4_3_u04_r9_network.client[30] 	downloads[30] 	11810
scalar tree_4_3_u04_r9_network.client[30] 	avg_time[30] 	0.004317693924
scalar tree_4_3_u04_r9_network.client[31] 	hdistance[31] 	2.8326812619662
scalar tree_4_3_u04_r9_network.client[31] 	downloads[31] 	12013
scalar tree_4_3_u04_r9_network.client[31] 	avg_time[31] 	0.00428497897
scalar tree_4_3_u04_r9_network.client[32] 	hdistance[32] 	2.8017995910021
scalar tree_4_3_u04_r9_network.client[32] 	downloads[32] 	12225
scalar tree_4_3_u04_r9_network.client[32] 	avg_time[32] 	0.004241406015
scalar tree_4_3_u04_r9_network.client[33] 	hdistance[33] 	2.7803256895979
scalar tree_4_3_u04_r9_network.client[33] 	downloads[33] 	12036
scalar tree_4_3_u04_r9_network.client[33] 	avg_time[33] 	0.004207092936
scalar tree_4_3_u04_r9_network.client[34] 	hdistance[34] 	2.7926698105402
scalar tree_4_3_u04_r9_network.client[34] 	downloads[34] 	12087
scalar tree_4_3_u04_r9_network.client[34] 	avg_time[34] 	0.004224866665
scalar tree_4_3_u04_r9_network.client[35] 	hdistance[35] 	2.8497660427808
scalar tree_4_3_u04_r9_network.client[35] 	downloads[35] 	11968
scalar tree_4_3_u04_r9_network.client[35] 	avg_time[35] 	0.004307342286
scalar tree_4_3_u04_r9_network.client[36] 	hdistance[36] 	2.8455833333333
scalar tree_4_3_u04_r9_network.client[36] 	downloads[36] 	12000
scalar tree_4_3_u04_r9_network.client[36] 	avg_time[36] 	0.004302433433
scalar tree_4_3_u04_r9_network.client[37] 	hdistance[37] 	2.8786209199432
scalar tree_4_3_u04_r9_network.client[37] 	downloads[37] 	11979
scalar tree_4_3_u04_r9_network.client[37] 	avg_time[37] 	0.00434994277
scalar tree_4_3_u04_r9_network.client[38] 	hdistance[38] 	2.8584725338652
scalar tree_4_3_u04_r9_network.client[38] 	downloads[38] 	12033
scalar tree_4_3_u04_r9_network.client[38] 	avg_time[38] 	0.00431878696
scalar tree_4_3_u04_r9_network.client[39] 	hdistance[39] 	2.8620775554264
scalar tree_4_3_u04_r9_network.client[39] 	downloads[39] 	12043
scalar tree_4_3_u04_r9_network.client[39] 	avg_time[39] 	0.004324138268
