version 2
run General-92-20160820-08:22:27-856
attr a 0.9
attr cd lcd
attr configname General
attr cr lru
attr datetime 20160820-08:22:27
attr experiment General
attr fsize 1
attr inifile hw5115/scenario_A/SPR-LCD.ini
attr iterationvars "$name=tree_4_3, $un=04, $rep=13, $cd=lcd, $cr=lru, $fsize=1, $a=0.9, $sl=spr, $ttl=1000, $variance=0.05"
attr iterationvars2 "$name=tree_4_3, $un=04, $rep=13, $cd=lcd, $cr=lru, $fsize=1, $a=0.9, $sl=spr, $ttl=1000, $variance=0.05, $repetition=0"
attr measurement "$name=tree_4_3, $un=04, $rep=13, $cd=lcd, $cr=lru, $fsize=1, $a=0.9, $sl=spr, $ttl=1000, $variance=0.05"
attr name tree_4_3
attr network networks.${name}_u${un}_r${rep}_network
attr processid 856
attr rep 13
attr repetition 0
attr replication #0
attr resultdir results
attr runnumber 92
attr seedset 13
attr sl spr
attr ttl 1000
attr un 04
attr variance 0.05

scalar . 	a 	0.9
scalar . 	fsize 	1
scalar . 	rep 	13
scalar . 	ttl 	1000
scalar . 	un 	04
scalar . 	variance 	0.05
scalar tree_4_3_u04_r13_network.content_distribution 	repo-0 	0
scalar tree_4_3_u04_r13_network.content_distribution 	client-0 	13
scalar tree_4_3_u04_r13_network.content_distribution 	client-1 	14
scalar tree_4_3_u04_r13_network.content_distribution 	client-2 	15
scalar tree_4_3_u04_r13_network.content_distribution 	client-3 	16
scalar tree_4_3_u04_r13_network.content_distribution 	client-4 	17
scalar tree_4_3_u04_r13_network.content_distribution 	client-5 	18
scalar tree_4_3_u04_r13_network.content_distribution 	client-6 	19
scalar tree_4_3_u04_r13_network.content_distribution 	client-7 	20
scalar tree_4_3_u04_r13_network.content_distribution 	client-8 	21
scalar tree_4_3_u04_r13_network.content_distribution 	client-9 	22
scalar tree_4_3_u04_r13_network.content_distribution 	client-10 	23
scalar tree_4_3_u04_r13_network.content_distribution 	client-11 	24
scalar tree_4_3_u04_r13_network.content_distribution 	client-12 	25
scalar tree_4_3_u04_r13_network.content_distribution 	client-13 	26
scalar tree_4_3_u04_r13_network.content_distribution 	client-14 	27
scalar tree_4_3_u04_r13_network.content_distribution 	client-15 	28
scalar tree_4_3_u04_r13_network.content_distribution 	client-16 	29
scalar tree_4_3_u04_r13_network.content_distribution 	client-17 	30
scalar tree_4_3_u04_r13_network.content_distribution 	client-18 	31
scalar tree_4_3_u04_r13_network.content_distribution 	client-19 	32
scalar tree_4_3_u04_r13_network.content_distribution 	client-20 	33
scalar tree_4_3_u04_r13_network.content_distribution 	client-21 	34
scalar tree_4_3_u04_r13_network.content_distribution 	client-22 	35
scalar tree_4_3_u04_r13_network.content_distribution 	client-23 	36
scalar tree_4_3_u04_r13_network.content_distribution 	client-24 	37
scalar tree_4_3_u04_r13_network.content_distribution 	client-25 	38
scalar tree_4_3_u04_r13_network.content_distribution 	client-26 	39
scalar tree_4_3_u04_r13_network.content_distribution 	repo-0_card 	100000
scalar tree_4_3_u04_r13_network.content_distribution 	repo-0_price 	0
scalar tree_4_3_u04_r13_network.statistics 	stabilization_time 	2629.5
scalar tree_4_3_u04_r13_network.statistics 	p_hit 	0.18770018208294
scalar tree_4_3_u04_r13_network.statistics 	interests 	25447.175
scalar tree_4_3_u04_r13_network.statistics 	data 	17347.425
scalar tree_4_3_u04_r13_network.statistics 	hdistance 	2.8316708470045
scalar tree_4_3_u04_r13_network.statistics 	avg_time 	0.004283500701
scalar tree_4_3_u04_r13_network.statistics 	downloads 	323991
scalar tree_4_3_u04_r13_network.statistics 	total_cost 	0
scalar tree_4_3_u04_r13_network.statistics 	total_replicas 	100000
scalar tree_4_3_u04_r13_network.statistics 	inner_hit 	0.31014133108636
scalar tree_4_3_u04_r13_network.node[0].core_layer 	interests[0] 	225729
scalar tree_4_3_u04_r13_network.node[0].core_layer 	repo_load[0] 	223508
scalar tree_4_3_u04_r13_network.node[0].core_layer 	data[0] 	0
scalar tree_4_3_u04_r13_network.node[0].core_layer 	repo_int[0] 	223508
scalar tree_4_3_u04_r13_network.node[0].content_store 	p_hit[0] 	0.0098392319994329
scalar tree_4_3_u04_r13_network.node[0].content_store 	hits[0] 	2221
scalar tree_4_3_u04_r13_network.node[0].content_store 	misses[0] 	223508
scalar tree_4_3_u04_r13_network.node[0].content_store 	decision_yes[0] 	223508
scalar tree_4_3_u04_r13_network.node[0].content_store 	decision_no[0] 	0
scalar tree_4_3_u04_r13_network.node[0].content_store 	decision_ratio[0] 	1
scalar tree_4_3_u04_r13_network.node[1].core_layer 	interests[1] 	152642
scalar tree_4_3_u04_r13_network.node[1].core_layer 	data[1] 	149381
scalar tree_4_3_u04_r13_network.node[1].content_store 	p_hit[1] 	0.021330957403598
scalar tree_4_3_u04_r13_network.node[1].content_store 	hits[1] 	3256
scalar tree_4_3_u04_r13_network.node[1].content_store 	misses[1] 	149386
scalar tree_4_3_u04_r13_network.node[1].content_store 	decision_yes[1] 	1455
scalar tree_4_3_u04_r13_network.node[1].content_store 	decision_no[1] 	147926
scalar tree_4_3_u04_r13_network.node[1].content_store 	decision_ratio[1] 	0.0097401945361191
scalar tree_4_3_u04_r13_network.node[2].core_layer 	interests[2] 	60151
scalar tree_4_3_u04_r13_network.node[2].core_layer 	data[2] 	59142
scalar tree_4_3_u04_r13_network.node[2].content_store 	p_hit[2] 	0.016774450965071
scalar tree_4_3_u04_r13_network.node[2].content_store 	hits[2] 	1009
scalar tree_4_3_u04_r13_network.node[2].content_store 	misses[2] 	59142
scalar tree_4_3_u04_r13_network.node[2].content_store 	decision_yes[2] 	592
scalar tree_4_3_u04_r13_network.node[2].content_store 	decision_no[2] 	58550
scalar tree_4_3_u04_r13_network.node[2].content_store 	decision_ratio[2] 	0.010009806905414
scalar tree_4_3_u04_r13_network.node[3].core_layer 	interests[3] 	17367
scalar tree_4_3_u04_r13_network.node[3].core_layer 	data[3] 	17206
scalar tree_4_3_u04_r13_network.node[3].content_store 	p_hit[3] 	0.0092704554615075
scalar tree_4_3_u04_r13_network.node[3].content_store 	hits[3] 	161
scalar tree_4_3_u04_r13_network.node[3].content_store 	misses[3] 	17206
scalar tree_4_3_u04_r13_network.node[3].content_store 	decision_yes[3] 	174
scalar tree_4_3_u04_r13_network.node[3].content_store 	decision_no[3] 	17032
scalar tree_4_3_u04_r13_network.node[3].content_store 	decision_ratio[3] 	0.010112751365803
scalar tree_4_3_u04_r13_network.node[4].core_layer 	interests[4] 	35304
scalar tree_4_3_u04_r13_network.node[4].core_layer 	data[4] 	34011
scalar tree_4_3_u04_r13_network.node[4].content_store 	p_hit[4] 	0.03662474507138
scalar tree_4_3_u04_r13_network.node[4].content_store 	hits[4] 	1293
scalar tree_4_3_u04_r13_network.node[4].content_store 	misses[4] 	34011
scalar tree_4_3_u04_r13_network.node[4].content_store 	decision_yes[4] 	698
scalar tree_4_3_u04_r13_network.node[4].content_store 	decision_no[4] 	33313
scalar tree_4_3_u04_r13_network.node[4].content_store 	decision_ratio[4] 	0.020522772044339
scalar tree_4_3_u04_r13_network.node[5].core_layer 	interests[5] 	17455
scalar tree_4_3_u04_r13_network.node[5].core_layer 	data[5] 	16872
scalar tree_4_3_u04_r13_network.node[5].content_store 	p_hit[5] 	0.033285591521054
scalar tree_4_3_u04_r13_network.node[5].content_store 	hits[5] 	581
scalar tree_4_3_u04_r13_network.node[5].content_store 	misses[5] 	16874
scalar tree_4_3_u04_r13_network.node[5].content_store 	decision_yes[5] 	440
scalar tree_4_3_u04_r13_network.node[5].content_store 	decision_no[5] 	16432
scalar tree_4_3_u04_r13_network.node[5].content_store 	decision_ratio[5] 	0.026078710289237
scalar tree_4_3_u04_r13_network.node[6].core_layer 	interests[6] 	26468
scalar tree_4_3_u04_r13_network.node[6].core_layer 	data[6] 	25508
scalar tree_4_3_u04_r13_network.node[6].content_store 	p_hit[6] 	0.036270213087502
scalar tree_4_3_u04_r13_network.node[6].content_store 	hits[6] 	960
scalar tree_4_3_u04_r13_network.node[6].content_store 	misses[6] 	25508
scalar tree_4_3_u04_r13_network.node[6].content_store 	decision_yes[6] 	596
scalar tree_4_3_u04_r13_network.node[6].content_store 	decision_no[6] 	24912
scalar tree_4_3_u04_r13_network.node[6].content_store 	decision_ratio[6] 	0.0233652187549
scalar tree_4_3_u04_r13_network.node[7].core_layer 	interests[7] 	34955
scalar tree_4_3_u04_r13_network.node[7].core_layer 	data[7] 	33672
scalar tree_4_3_u04_r13_network.node[7].content_store 	p_hit[7] 	0.036704334143899
scalar tree_4_3_u04_r13_network.node[7].content_store 	hits[7] 	1283
scalar tree_4_3_u04_r13_network.node[7].content_store 	misses[7] 	33672
scalar tree_4_3_u04_r13_network.node[7].content_store 	decision_yes[7] 	714
scalar tree_4_3_u04_r13_network.node[7].content_store 	decision_no[7] 	32958
scalar tree_4_3_u04_r13_network.node[7].content_store 	decision_ratio[7] 	0.021204561653599
scalar tree_4_3_u04_r13_network.node[8].core_layer 	interests[8] 	17740
scalar tree_4_3_u04_r13_network.node[8].core_layer 	data[8] 	17235
scalar tree_4_3_u04_r13_network.node[8].content_store 	p_hit[8] 	0.028410372040586
scalar tree_4_3_u04_r13_network.node[8].content_store 	hits[8] 	504
scalar tree_4_3_u04_r13_network.node[8].content_store 	misses[8] 	17236
scalar tree_4_3_u04_r13_network.node[8].content_store 	decision_yes[8] 	315
scalar tree_4_3_u04_r13_network.node[8].content_store 	decision_no[8] 	16920
scalar tree_4_3_u04_r13_network.node[8].content_store 	decision_ratio[8] 	0.018276762402089
scalar tree_4_3_u04_r13_network.node[9].core_layer 	interests[9] 	26497
scalar tree_4_3_u04_r13_network.node[9].core_layer 	data[9] 	25759
scalar tree_4_3_u04_r13_network.node[9].content_store 	p_hit[9] 	0.027776729441069
scalar tree_4_3_u04_r13_network.node[9].content_store 	hits[9] 	736
scalar tree_4_3_u04_r13_network.node[9].content_store 	misses[9] 	25761
scalar tree_4_3_u04_r13_network.node[9].content_store 	decision_yes[9] 	379
scalar tree_4_3_u04_r13_network.node[9].content_store 	decision_no[9] 	25380
scalar tree_4_3_u04_r13_network.node[9].content_store 	decision_ratio[9] 	0.014713304087892
scalar tree_4_3_u04_r13_network.node[10].core_layer 	interests[10] 	44170
scalar tree_4_3_u04_r13_network.node[10].core_layer 	data[10] 	42579
scalar tree_4_3_u04_r13_network.node[10].content_store 	p_hit[10] 	0.036019923024677
scalar tree_4_3_u04_r13_network.node[10].content_store 	hits[10] 	1591
scalar tree_4_3_u04_r13_network.node[10].content_store 	misses[10] 	42579
scalar tree_4_3_u04_r13_network.node[10].content_store 	decision_yes[10] 	808
scalar tree_4_3_u04_r13_network.node[10].content_store 	decision_no[10] 	41771
scalar tree_4_3_u04_r13_network.node[10].content_store 	decision_ratio[10] 	0.018976490758355
scalar tree_4_3_u04_r13_network.node[11].core_layer 	interests[11] 	17653
scalar tree_4_3_u04_r13_network.node[11].core_layer 	data[11] 	17157
scalar tree_4_3_u04_r13_network.node[11].content_store 	p_hit[11] 	0.028097207273551
scalar tree_4_3_u04_r13_network.node[11].content_store 	hits[11] 	496
scalar tree_4_3_u04_r13_network.node[11].content_store 	misses[11] 	17157
scalar tree_4_3_u04_r13_network.node[11].content_store 	decision_yes[11] 	315
scalar tree_4_3_u04_r13_network.node[11].content_store 	decision_no[11] 	16842
scalar tree_4_3_u04_r13_network.node[11].content_store 	decision_ratio[11] 	0.018359853121175
scalar tree_4_3_u04_r13_network.node[12].core_layer 	interests[12] 	17765
scalar tree_4_3_u04_r13_network.node[12].core_layer 	data[12] 	17367
scalar tree_4_3_u04_r13_network.node[12].content_store 	p_hit[12] 	0.022403602589361
scalar tree_4_3_u04_r13_network.node[12].content_store 	hits[12] 	398
scalar tree_4_3_u04_r13_network.node[12].content_store 	misses[12] 	17367
scalar tree_4_3_u04_r13_network.node[12].content_store 	decision_yes[12] 	161
scalar tree_4_3_u04_r13_network.node[12].content_store 	decision_no[12] 	17206
scalar tree_4_3_u04_r13_network.node[12].content_store 	decision_ratio[12] 	0.0092704554615075
scalar tree_4_3_u04_r13_network.node[13].core_layer 	interests[13] 	12158
scalar tree_4_3_u04_r13_network.node[13].core_layer 	data[13] 	8899
scalar tree_4_3_u04_r13_network.node[13].content_store 	p_hit[13] 	0.2680539562428
scalar tree_4_3_u04_r13_network.node[13].content_store 	hits[13] 	3259
scalar tree_4_3_u04_r13_network.node[13].content_store 	misses[13] 	8899
scalar tree_4_3_u04_r13_network.node[13].content_store 	decision_yes[13] 	352
scalar tree_4_3_u04_r13_network.node[13].content_store 	decision_no[13] 	8547
scalar tree_4_3_u04_r13_network.node[13].content_store 	decision_ratio[13] 	0.03955500618047
scalar tree_4_3_u04_r13_network.node[14].core_layer 	interests[14] 	11969
scalar tree_4_3_u04_r13_network.node[14].core_layer 	data[14] 	8749
scalar tree_4_3_u04_r13_network.node[14].content_store 	p_hit[14] 	0.26902832316818
scalar tree_4_3_u04_r13_network.node[14].content_store 	hits[14] 	3220
scalar tree_4_3_u04_r13_network.node[14].content_store 	misses[14] 	8749
scalar tree_4_3_u04_r13_network.node[14].content_store 	decision_yes[14] 	316
scalar tree_4_3_u04_r13_network.node[14].content_store 	decision_no[14] 	8433
scalar tree_4_3_u04_r13_network.node[14].content_store 	decision_ratio[14] 	0.036118413532975
scalar tree_4_3_u04_r13_network.node[15].core_layer 	interests[15] 	12022
scalar tree_4_3_u04_r13_network.node[15].core_layer 	data[15] 	8707
scalar tree_4_3_u04_r13_network.node[15].content_store 	p_hit[15] 	0.27574446847446
scalar tree_4_3_u04_r13_network.node[15].content_store 	hits[15] 	3315
scalar tree_4_3_u04_r13_network.node[15].content_store 	misses[15] 	8707
scalar tree_4_3_u04_r13_network.node[15].content_store 	decision_yes[15] 	312
scalar tree_4_3_u04_r13_network.node[15].content_store 	decision_no[15] 	8395
scalar tree_4_3_u04_r13_network.node[15].content_store 	decision_ratio[15] 	0.0358332376249
scalar tree_4_3_u04_r13_network.node[16].core_layer 	interests[16] 	12112
scalar tree_4_3_u04_r13_network.node[16].core_layer 	data[16] 	8950
scalar tree_4_3_u04_r13_network.node[16].content_store 	p_hit[16] 	0.26114597093791
scalar tree_4_3_u04_r13_network.node[16].content_store 	hits[16] 	3163
scalar tree_4_3_u04_r13_network.node[16].content_store 	misses[16] 	8949
scalar tree_4_3_u04_r13_network.node[16].content_store 	decision_yes[16] 	313
scalar tree_4_3_u04_r13_network.node[16].content_store 	decision_no[16] 	8637
scalar tree_4_3_u04_r13_network.node[16].content_store 	decision_ratio[16] 	0.034972067039106
scalar tree_4_3_u04_r13_network.node[17].core_layer 	interests[17] 	12124
scalar tree_4_3_u04_r13_network.node[17].core_layer 	data[17] 	8814
scalar tree_4_3_u04_r13_network.node[17].content_store 	p_hit[17] 	0.27301220719235
scalar tree_4_3_u04_r13_network.node[17].content_store 	hits[17] 	3310
scalar tree_4_3_u04_r13_network.node[17].content_store 	misses[17] 	8814
scalar tree_4_3_u04_r13_network.node[17].content_store 	decision_yes[17] 	295
scalar tree_4_3_u04_r13_network.node[17].content_store 	decision_no[17] 	8519
scalar tree_4_3_u04_r13_network.node[17].content_store 	decision_ratio[17] 	0.033469480372135
scalar tree_4_3_u04_r13_network.node[18].core_layer 	interests[18] 	11861
scalar tree_4_3_u04_r13_network.node[18].core_layer 	data[18] 	8642
scalar tree_4_3_u04_r13_network.node[18].content_store 	p_hit[18] 	0.27147795295506
scalar tree_4_3_u04_r13_network.node[18].content_store 	hits[18] 	3220
scalar tree_4_3_u04_r13_network.node[18].content_store 	misses[18] 	8641
scalar tree_4_3_u04_r13_network.node[18].content_store 	decision_yes[18] 	286
scalar tree_4_3_u04_r13_network.node[18].content_store 	decision_no[18] 	8356
scalar tree_4_3_u04_r13_network.node[18].content_store 	decision_ratio[18] 	0.033094191159454
scalar tree_4_3_u04_r13_network.node[19].core_layer 	interests[19] 	12106
scalar tree_4_3_u04_r13_network.node[19].core_layer 	data[19] 	8869
scalar tree_4_3_u04_r13_network.node[19].content_store 	p_hit[19] 	0.2673880720304
scalar tree_4_3_u04_r13_network.node[19].content_store 	hits[19] 	3237
scalar tree_4_3_u04_r13_network.node[19].content_store 	misses[19] 	8869
scalar tree_4_3_u04_r13_network.node[19].content_store 	decision_yes[19] 	320
scalar tree_4_3_u04_r13_network.node[19].content_store 	decision_no[19] 	8549
scalar tree_4_3_u04_r13_network.node[19].content_store 	decision_ratio[19] 	0.036080730634795
scalar tree_4_3_u04_r13_network.node[20].core_layer 	interests[20] 	11936
scalar tree_4_3_u04_r13_network.node[20].core_layer 	data[20] 	8789
scalar tree_4_3_u04_r13_network.node[20].content_store 	p_hit[20] 	0.26365616621984
scalar tree_4_3_u04_r13_network.node[20].content_store 	hits[20] 	3147
scalar tree_4_3_u04_r13_network.node[20].content_store 	misses[20] 	8789
scalar tree_4_3_u04_r13_network.node[20].content_store 	decision_yes[20] 	300
scalar tree_4_3_u04_r13_network.node[20].content_store 	decision_no[20] 	8489
scalar tree_4_3_u04_r13_network.node[20].content_store 	decision_ratio[20] 	0.034133576060985
scalar tree_4_3_u04_r13_network.node[21].core_layer 	interests[21] 	11873
scalar tree_4_3_u04_r13_network.node[21].core_layer 	data[21] 	8810
scalar tree_4_3_u04_r13_network.node[21].content_store 	p_hit[21] 	0.2579802914175
scalar tree_4_3_u04_r13_network.node[21].content_store 	hits[21] 	3063
scalar tree_4_3_u04_r13_network.node[21].content_store 	misses[21] 	8810
scalar tree_4_3_u04_r13_network.node[21].content_store 	decision_yes[21] 	340
scalar tree_4_3_u04_r13_network.node[21].content_store 	decision_no[21] 	8470
scalar tree_4_3_u04_r13_network.node[21].content_store 	decision_ratio[21] 	0.038592508513053
scalar tree_4_3_u04_r13_network.node[22].core_layer 	interests[22] 	11951
scalar tree_4_3_u04_r13_network.node[22].core_layer 	data[22] 	8803
scalar tree_4_3_u04_r13_network.node[22].content_store 	p_hit[22] 	0.26340891975567
scalar tree_4_3_u04_r13_network.node[22].content_store 	hits[22] 	3148
scalar tree_4_3_u04_r13_network.node[22].content_store 	misses[22] 	8803
scalar tree_4_3_u04_r13_network.node[22].content_store 	decision_yes[22] 	314
scalar tree_4_3_u04_r13_network.node[22].content_store 	decision_no[22] 	8489
scalar tree_4_3_u04_r13_network.node[22].content_store 	decision_ratio[22] 	0.035669658071112
scalar tree_4_3_u04_r13_network.node[23].core_layer 	interests[23] 	12169
scalar tree_4_3_u04_r13_network.node[23].core_layer 	data[23] 	8847
scalar tree_4_3_u04_r13_network.node[23].content_store 	p_hit[23] 	0.27298874188512
scalar tree_4_3_u04_r13_network.node[23].content_store 	hits[23] 	3322
scalar tree_4_3_u04_r13_network.node[23].content_store 	misses[23] 	8847
scalar tree_4_3_u04_r13_network.node[23].content_store 	decision_yes[23] 	315
scalar tree_4_3_u04_r13_network.node[23].content_store 	decision_no[23] 	8532
scalar tree_4_3_u04_r13_network.node[23].content_store 	decision_ratio[23] 	0.035605289928789
scalar tree_4_3_u04_r13_network.node[24].core_layer 	interests[24] 	11780
scalar tree_4_3_u04_r13_network.node[24].core_layer 	data[24] 	8636
scalar tree_4_3_u04_r13_network.node[24].content_store 	p_hit[24] 	0.26689303904924
scalar tree_4_3_u04_r13_network.node[24].content_store 	hits[24] 	3144
scalar tree_4_3_u04_r13_network.node[24].content_store 	misses[24] 	8636
scalar tree_4_3_u04_r13_network.node[24].content_store 	decision_yes[24] 	320
scalar tree_4_3_u04_r13_network.node[24].content_store 	decision_no[24] 	8316
scalar tree_4_3_u04_r13_network.node[24].content_store 	decision_ratio[24] 	0.037054191755442
scalar tree_4_3_u04_r13_network.node[25].core_layer 	interests[25] 	11832
scalar tree_4_3_u04_r13_network.node[25].core_layer 	data[25] 	8669
scalar tree_4_3_u04_r13_network.node[25].content_store 	p_hit[25] 	0.26732589587559
scalar tree_4_3_u04_r13_network.node[25].content_store 	hits[25] 	3163
scalar tree_4_3_u04_r13_network.node[25].content_store 	misses[25] 	8669
scalar tree_4_3_u04_r13_network.node[25].content_store 	decision_yes[25] 	334
scalar tree_4_3_u04_r13_network.node[25].content_store 	decision_no[25] 	8335
scalar tree_4_3_u04_r13_network.node[25].content_store 	decision_ratio[25] 	0.038528088591533
scalar tree_4_3_u04_r13_network.node[26].core_layer 	interests[26] 	11953
scalar tree_4_3_u04_r13_network.node[26].core_layer 	data[26] 	8843
scalar tree_4_3_u04_r13_network.node[26].content_store 	p_hit[26] 	0.26018572743244
scalar tree_4_3_u04_r13_network.node[26].content_store 	hits[26] 	3110
scalar tree_4_3_u04_r13_network.node[26].content_store 	misses[26] 	8843
scalar tree_4_3_u04_r13_network.node[26].content_store 	decision_yes[26] 	246
scalar tree_4_3_u04_r13_network.node[26].content_store 	decision_no[26] 	8597
scalar tree_4_3_u04_r13_network.node[26].content_store 	decision_ratio[26] 	0.027818613592672
scalar tree_4_3_u04_r13_network.node[27].core_layer 	interests[27] 	12142
scalar tree_4_3_u04_r13_network.node[27].core_layer 	data[27] 	8897
scalar tree_4_3_u04_r13_network.node[27].content_store 	p_hit[27] 	0.26725415911711
scalar tree_4_3_u04_r13_network.node[27].content_store 	hits[27] 	3245
scalar tree_4_3_u04_r13_network.node[27].content_store 	misses[27] 	8897
scalar tree_4_3_u04_r13_network.node[27].content_store 	decision_yes[27] 	258
scalar tree_4_3_u04_r13_network.node[27].content_store 	decision_no[27] 	8639
scalar tree_4_3_u04_r13_network.node[27].content_store 	decision_ratio[27] 	0.028998538833315
scalar tree_4_3_u04_r13_network.node[28].core_layer 	interests[28] 	11958
scalar tree_4_3_u04_r13_network.node[28].core_layer 	data[28] 	8723
scalar tree_4_3_u04_r13_network.node[28].content_store 	p_hit[28] 	0.27053018899482
scalar tree_4_3_u04_r13_network.node[28].content_store 	hits[28] 	3235
scalar tree_4_3_u04_r13_network.node[28].content_store 	misses[28] 	8723
scalar tree_4_3_u04_r13_network.node[28].content_store 	decision_yes[28] 	238
scalar tree_4_3_u04_r13_network.node[28].content_store 	decision_no[28] 	8485
scalar tree_4_3_u04_r13_network.node[28].content_store 	decision_ratio[28] 	0.027284191218617
scalar tree_4_3_u04_r13_network.node[29].core_layer 	interests[29] 	12242
scalar tree_4_3_u04_r13_network.node[29].core_layer 	data[29] 	8984
scalar tree_4_3_u04_r13_network.node[29].content_store 	p_hit[29] 	0.2661329848064
scalar tree_4_3_u04_r13_network.node[29].content_store 	hits[29] 	3258
scalar tree_4_3_u04_r13_network.node[29].content_store 	misses[29] 	8984
scalar tree_4_3_u04_r13_network.node[29].content_store 	decision_yes[29] 	242
scalar tree_4_3_u04_r13_network.node[29].content_store 	decision_no[29] 	8742
scalar tree_4_3_u04_r13_network.node[29].content_store 	decision_ratio[29] 	0.026936776491541
scalar tree_4_3_u04_r13_network.node[30].core_layer 	interests[30] 	11987
scalar tree_4_3_u04_r13_network.node[30].core_layer 	data[30] 	8789
scalar tree_4_3_u04_r13_network.node[30].content_store 	p_hit[30] 	0.26670559773088
scalar tree_4_3_u04_r13_network.node[30].content_store 	hits[30] 	3197
scalar tree_4_3_u04_r13_network.node[30].content_store 	misses[30] 	8790
scalar tree_4_3_u04_r13_network.node[30].content_store 	decision_yes[30] 	256
scalar tree_4_3_u04_r13_network.node[30].content_store 	decision_no[30] 	8533
scalar tree_4_3_u04_r13_network.node[30].content_store 	decision_ratio[30] 	0.029127318238707
scalar tree_4_3_u04_r13_network.node[31].core_layer 	interests[31] 	11940
scalar tree_4_3_u04_r13_network.node[31].core_layer 	data[31] 	8851
scalar tree_4_3_u04_r13_network.node[31].content_store 	p_hit[31] 	0.25871021775544
scalar tree_4_3_u04_r13_network.node[31].content_store 	hits[31] 	3089
scalar tree_4_3_u04_r13_network.node[31].content_store 	misses[31] 	8851
scalar tree_4_3_u04_r13_network.node[31].content_store 	decision_yes[31] 	315
scalar tree_4_3_u04_r13_network.node[31].content_store 	decision_no[31] 	8536
scalar tree_4_3_u04_r13_network.node[31].content_store 	decision_ratio[31] 	0.035589198960569
scalar tree_4_3_u04_r13_network.node[32].core_layer 	interests[32] 	11855
scalar tree_4_3_u04_r13_network.node[32].core_layer 	data[32] 	8693
scalar tree_4_3_u04_r13_network.node[32].content_store 	p_hit[32] 	0.26672290172923
scalar tree_4_3_u04_r13_network.node[32].content_store 	hits[32] 	3162
scalar tree_4_3_u04_r13_network.node[32].content_store 	misses[32] 	8693
scalar tree_4_3_u04_r13_network.node[32].content_store 	decision_yes[32] 	328
scalar tree_4_3_u04_r13_network.node[32].content_store 	decision_no[32] 	8365
scalar tree_4_3_u04_r13_network.node[32].content_store 	decision_ratio[32] 	0.037731508109974
scalar tree_4_3_u04_r13_network.node[33].core_layer 	interests[33] 	11860
scalar tree_4_3_u04_r13_network.node[33].core_layer 	data[33] 	8769
scalar tree_4_3_u04_r13_network.node[33].content_store 	p_hit[33] 	0.26053962900506
scalar tree_4_3_u04_r13_network.node[33].content_store 	hits[33] 	3090
scalar tree_4_3_u04_r13_network.node[33].content_store 	misses[33] 	8770
scalar tree_4_3_u04_r13_network.node[33].content_store 	decision_yes[33] 	322
scalar tree_4_3_u04_r13_network.node[33].content_store 	decision_no[33] 	8447
scalar tree_4_3_u04_r13_network.node[33].content_store 	decision_ratio[33] 	0.036720264568366
scalar tree_4_3_u04_r13_network.node[34].core_layer 	interests[34] 	12055
scalar tree_4_3_u04_r13_network.node[34].core_layer 	data[34] 	8900
scalar tree_4_3_u04_r13_network.node[34].content_store 	p_hit[34] 	0.26171712982165
scalar tree_4_3_u04_r13_network.node[34].content_store 	hits[34] 	3155
scalar tree_4_3_u04_r13_network.node[34].content_store 	misses[34] 	8900
scalar tree_4_3_u04_r13_network.node[34].content_store 	decision_yes[34] 	321
scalar tree_4_3_u04_r13_network.node[34].content_store 	decision_no[34] 	8579
scalar tree_4_3_u04_r13_network.node[34].content_store 	decision_ratio[34] 	0.036067415730337
scalar tree_4_3_u04_r13_network.node[35].core_layer 	interests[35] 	12043
scalar tree_4_3_u04_r13_network.node[35].core_layer 	data[35] 	8810
scalar tree_4_3_u04_r13_network.node[35].content_store 	p_hit[35] 	0.26845470397741
scalar tree_4_3_u04_r13_network.node[35].content_store 	hits[35] 	3233
scalar tree_4_3_u04_r13_network.node[35].content_store 	misses[35] 	8810
scalar tree_4_3_u04_r13_network.node[35].content_store 	decision_yes[35] 	252
scalar tree_4_3_u04_r13_network.node[35].content_store 	decision_no[35] 	8558
scalar tree_4_3_u04_r13_network.node[35].content_store 	decision_ratio[35] 	0.028603859250851
scalar tree_4_3_u04_r13_network.node[36].core_layer 	interests[36] 	11987
scalar tree_4_3_u04_r13_network.node[36].core_layer 	data[36] 	8843
scalar tree_4_3_u04_r13_network.node[36].content_store 	p_hit[36] 	0.26228414115292
scalar tree_4_3_u04_r13_network.node[36].content_store 	hits[36] 	3144
scalar tree_4_3_u04_r13_network.node[36].content_store 	misses[36] 	8843
scalar tree_4_3_u04_r13_network.node[36].content_store 	decision_yes[36] 	244
scalar tree_4_3_u04_r13_network.node[36].content_store 	decision_no[36] 	8599
scalar tree_4_3_u04_r13_network.node[36].content_store 	decision_ratio[36] 	0.027592446002488
scalar tree_4_3_u04_r13_network.node[37].core_layer 	interests[37] 	12092
scalar tree_4_3_u04_r13_network.node[37].core_layer 	data[37] 	8957
scalar tree_4_3_u04_r13_network.node[37].content_store 	p_hit[37] 	0.25926232219649
scalar tree_4_3_u04_r13_network.node[37].content_store 	hits[37] 	3135
scalar tree_4_3_u04_r13_network.node[37].content_store 	misses[37] 	8957
scalar tree_4_3_u04_r13_network.node[37].content_store 	decision_yes[37] 	305
scalar tree_4_3_u04_r13_network.node[37].content_store 	decision_no[37] 	8652
scalar tree_4_3_u04_r13_network.node[37].content_store 	decision_ratio[37] 	0.034051579770012
scalar tree_4_3_u04_r13_network.node[38].core_layer 	interests[38] 	11988
scalar tree_4_3_u04_r13_network.node[38].core_layer 	data[38] 	8879
scalar tree_4_3_u04_r13_network.node[38].content_store 	p_hit[38] 	0.25934267600934
scalar tree_4_3_u04_r13_network.node[38].content_store 	hits[38] 	3109
scalar tree_4_3_u04_r13_network.node[38].content_store 	misses[38] 	8879
scalar tree_4_3_u04_r13_network.node[38].content_store 	decision_yes[38] 	194
scalar tree_4_3_u04_r13_network.node[38].content_store 	decision_no[38] 	8685
scalar tree_4_3_u04_r13_network.node[38].content_store 	decision_ratio[38] 	0.021849307354432
scalar tree_4_3_u04_r13_network.node[39].core_layer 	interests[39] 	11996
scalar tree_4_3_u04_r13_network.node[39].core_layer 	data[39] 	8886
scalar tree_4_3_u04_r13_network.node[39].content_store 	p_hit[39] 	0.25925308436145
scalar tree_4_3_u04_r13_network.node[39].content_store 	hits[39] 	3110
scalar tree_4_3_u04_r13_network.node[39].content_store 	misses[39] 	8886
scalar tree_4_3_u04_r13_network.node[39].content_store 	decision_yes[39] 	204
scalar tree_4_3_u04_r13_network.node[39].content_store 	decision_no[39] 	8682
scalar tree_4_3_u04_r13_network.node[39].content_store 	decision_ratio[39] 	0.022957461174882
scalar tree_4_3_u04_r13_network.client[13] 	hdistance[13] 	2.8049021220595
scalar tree_4_3_u04_r13_network.client[13] 	downloads[13] 	12158
scalar tree_4_3_u04_r13_network.client[13] 	avg_time[13] 	0.004246886759
scalar tree_4_3_u04_r13_network.client[14] 	hdistance[14] 	2.8070014203359
scalar tree_4_3_u04_r13_network.client[14] 	downloads[14] 	11969
scalar tree_4_3_u04_r13_network.client[14] 	avg_time[14] 	0.004249474809
scalar tree_4_3_u04_r13_network.client[15] 	hdistance[15] 	2.7861420728664
scalar tree_4_3_u04_r13_network.client[15] 	downloads[15] 	12022
scalar tree_4_3_u04_r13_network.client[15] 	avg_time[15] 	0.004215601717
scalar tree_4_3_u04_r13_network.client[16] 	hdistance[16] 	2.8415751671758
scalar tree_4_3_u04_r13_network.client[16] 	downloads[16] 	12113
scalar tree_4_3_u04_r13_network.client[16] 	avg_time[16] 	0.004299679116
scalar tree_4_3_u04_r13_network.client[17] 	hdistance[17] 	2.7926426921808
scalar tree_4_3_u04_r13_network.client[17] 	downloads[17] 	12124
scalar tree_4_3_u04_r13_network.client[17] 	avg_time[17] 	0.004227644616
scalar tree_4_3_u04_r13_network.client[18] 	hdistance[18] 	2.801298263362
scalar tree_4_3_u04_r13_network.client[18] 	downloads[18] 	11862
scalar tree_4_3_u04_r13_network.client[18] 	avg_time[18] 	0.004237972742
scalar tree_4_3_u04_r13_network.client[19] 	hdistance[19] 	2.8093507351726
scalar tree_4_3_u04_r13_network.client[19] 	downloads[19] 	12106
scalar tree_4_3_u04_r13_network.client[19] 	avg_time[19] 	0.004255737926
scalar tree_4_3_u04_r13_network.client[20] 	hdistance[20] 	2.8316018766756
scalar tree_4_3_u04_r13_network.client[20] 	downloads[20] 	11936
scalar tree_4_3_u04_r13_network.client[20] 	avg_time[20] 	0.004285352247
scalar tree_4_3_u04_r13_network.client[21] 	hdistance[21] 	2.841825991746
scalar tree_4_3_u04_r13_network.client[21] 	downloads[21] 	11873
scalar tree_4_3_u04_r13_network.client[21] 	avg_time[21] 	0.004304385142
scalar tree_4_3_u04_r13_network.client[22] 	hdistance[22] 	2.8313948623546
scalar tree_4_3_u04_r13_network.client[22] 	downloads[22] 	11951
scalar tree_4_3_u04_r13_network.client[22] 	avg_time[22] 	0.004285296195
scalar tree_4_3_u04_r13_network.client[23] 	hdistance[23] 	2.7918481387131
scalar tree_4_3_u04_r13_network.client[23] 	downloads[23] 	12169
scalar tree_4_3_u04_r13_network.client[23] 	avg_time[23] 	0.004227095148
scalar tree_4_3_u04_r13_network.client[24] 	hdistance[24] 	2.8132427843803
scalar tree_4_3_u04_r13_network.client[24] 	downloads[24] 	11780
scalar tree_4_3_u04_r13_network.client[24] 	avg_time[24] 	0.004259589592
scalar tree_4_3_u04_r13_network.client[25] 	hdistance[25] 	2.8108519269777
scalar tree_4_3_u04_r13_network.client[25] 	downloads[25] 	11832
scalar tree_4_3_u04_r13_network.client[25] 	avg_time[25] 	0.004254391908
scalar tree_4_3_u04_r13_network.client[26] 	hdistance[26] 	2.8654731029867
scalar tree_4_3_u04_r13_network.client[26] 	downloads[26] 	11953
scalar tree_4_3_u04_r13_network.client[26] 	avg_time[26] 	0.00433116312
scalar tree_4_3_u04_r13_network.client[27] 	hdistance[27] 	2.8329764453961
scalar tree_4_3_u04_r13_network.client[27] 	downloads[27] 	12142
scalar tree_4_3_u04_r13_network.client[27] 	avg_time[27] 	0.004284299349
scalar tree_4_3_u04_r13_network.client[28] 	hdistance[28] 	2.8309081786252
scalar tree_4_3_u04_r13_network.client[28] 	downloads[28] 	11958
scalar tree_4_3_u04_r13_network.client[28] 	avg_time[28] 	0.004276966421
scalar tree_4_3_u04_r13_network.client[29] 	hdistance[29] 	2.8456951478517
scalar tree_4_3_u04_r13_network.client[29] 	downloads[29] 	12242
scalar tree_4_3_u04_r13_network.client[29] 	avg_time[29] 	0.004301206839
scalar tree_4_3_u04_r13_network.client[30] 	hdistance[30] 	2.8429834807275
scalar tree_4_3_u04_r13_network.client[30] 	downloads[30] 	11986
scalar tree_4_3_u04_r13_network.client[30] 	avg_time[30] 	0.004294507289
scalar tree_4_3_u04_r13_network.client[31] 	hdistance[31] 	2.8529313232831
scalar tree_4_3_u04_r13_network.client[31] 	downloads[31] 	11940
scalar tree_4_3_u04_r13_network.client[31] 	avg_time[31] 	0.00431590992
scalar tree_4_3_u04_r13_network.client[32] 	hdistance[32] 	2.8177983973007
scalar tree_4_3_u04_r13_network.client[32] 	downloads[32] 	11855
scalar tree_4_3_u04_r13_network.client[32] 	avg_time[32] 	0.004263514532
scalar tree_4_3_u04_r13_network.client[33] 	hdistance[33] 	2.8370857576524
scalar tree_4_3_u04_r13_network.client[33] 	downloads[33] 	11859
scalar tree_4_3_u04_r13_network.client[33] 	avg_time[33] 	0.004296925091
scalar tree_4_3_u04_r13_network.client[34] 	hdistance[34] 	2.8403981750311
scalar tree_4_3_u04_r13_network.client[34] 	downloads[34] 	12055
scalar tree_4_3_u04_r13_network.client[34] 	avg_time[34] 	0.004297135115
scalar tree_4_3_u04_r13_network.client[35] 	hdistance[35] 	2.8291953832102
scalar tree_4_3_u04_r13_network.client[35] 	downloads[35] 	12043
scalar tree_4_3_u04_r13_network.client[35] 	avg_time[35] 	0.004278166896
scalar tree_4_3_u04_r13_network.client[36] 	hdistance[36] 	2.8574288812881
scalar tree_4_3_u04_r13_network.client[36] 	downloads[36] 	11987
scalar tree_4_3_u04_r13_network.client[36] 	avg_time[36] 	0.004319843511
scalar tree_4_3_u04_r13_network.client[37] 	hdistance[37] 	2.8538703274892
scalar tree_4_3_u04_r13_network.client[37] 	downloads[37] 	12092
scalar tree_4_3_u04_r13_network.client[37] 	avg_time[37] 	0.00431695869
scalar tree_4_3_u04_r13_network.client[38] 	hdistance[38] 	2.892976309643
scalar tree_4_3_u04_r13_network.client[38] 	downloads[38] 	11988
scalar tree_4_3_u04_r13_network.client[38] 	avg_time[38] 	0.004366029703
scalar tree_4_3_u04_r13_network.client[39] 	hdistance[39] 	2.8917139046349
scalar tree_4_3_u04_r13_network.client[39] 	downloads[39] 	11996
scalar tree_4_3_u04_r13_network.client[39] 	avg_time[39] 	0.004362784554
