version 2
run General-91-20160820-08:21:06-856
attr a 0.9
attr cd lcd
attr configname General
attr cr lru
attr datetime 20160820-08:21:06
attr experiment General
attr fsize 1
attr inifile hw5115/scenario_A/SPR-LCD.ini
attr iterationvars "$name=tree_4_3, $un=04, $rep=12, $cd=lcd, $cr=lru, $fsize=1, $a=0.9, $sl=spr, $ttl=1000, $variance=0.05"
attr iterationvars2 "$name=tree_4_3, $un=04, $rep=12, $cd=lcd, $cr=lru, $fsize=1, $a=0.9, $sl=spr, $ttl=1000, $variance=0.05, $repetition=0"
attr measurement "$name=tree_4_3, $un=04, $rep=12, $cd=lcd, $cr=lru, $fsize=1, $a=0.9, $sl=spr, $ttl=1000, $variance=0.05"
attr name tree_4_3
attr network networks.${name}_u${un}_r${rep}_network
attr processid 856
attr rep 12
attr repetition 0
attr replication #0
attr resultdir results
attr runnumber 91
attr seedset 12
attr sl spr
attr ttl 1000
attr un 04
attr variance 0.05

scalar . 	a 	0.9
scalar . 	fsize 	1
scalar . 	rep 	12
scalar . 	ttl 	1000
scalar . 	un 	04
scalar . 	variance 	0.05
scalar tree_4_3_u04_r12_network.content_distribution 	repo-0 	0
scalar tree_4_3_u04_r12_network.content_distribution 	client-0 	13
scalar tree_4_3_u04_r12_network.content_distribution 	client-1 	14
scalar tree_4_3_u04_r12_network.content_distribution 	client-2 	15
scalar tree_4_3_u04_r12_network.content_distribution 	client-3 	16
scalar tree_4_3_u04_r12_network.content_distribution 	client-4 	17
scalar tree_4_3_u04_r12_network.content_distribution 	client-5 	18
scalar tree_4_3_u04_r12_network.content_distribution 	client-6 	19
scalar tree_4_3_u04_r12_network.content_distribution 	client-7 	20
scalar tree_4_3_u04_r12_network.content_distribution 	client-8 	21
scalar tree_4_3_u04_r12_network.content_distribution 	client-9 	22
scalar tree_4_3_u04_r12_network.content_distribution 	client-10 	23
scalar tree_4_3_u04_r12_network.content_distribution 	client-11 	24
scalar tree_4_3_u04_r12_network.content_distribution 	client-12 	25
scalar tree_4_3_u04_r12_network.content_distribution 	client-13 	26
scalar tree_4_3_u04_r12_network.content_distribution 	client-14 	27
scalar tree_4_3_u04_r12_network.content_distribution 	client-15 	28
scalar tree_4_3_u04_r12_network.content_distribution 	client-16 	29
scalar tree_4_3_u04_r12_network.content_distribution 	client-17 	30
scalar tree_4_3_u04_r12_network.content_distribution 	client-18 	31
scalar tree_4_3_u04_r12_network.content_distribution 	client-19 	32
scalar tree_4_3_u04_r12_network.content_distribution 	client-20 	33
scalar tree_4_3_u04_r12_network.content_distribution 	client-21 	34
scalar tree_4_3_u04_r12_network.content_distribution 	client-22 	35
scalar tree_4_3_u04_r12_network.content_distribution 	client-23 	36
scalar tree_4_3_u04_r12_network.content_distribution 	client-24 	37
scalar tree_4_3_u04_r12_network.content_distribution 	client-25 	38
scalar tree_4_3_u04_r12_network.content_distribution 	client-26 	39
scalar tree_4_3_u04_r12_network.content_distribution 	repo-0_card 	100000
scalar tree_4_3_u04_r12_network.content_distribution 	repo-0_price 	0
scalar tree_4_3_u04_r12_network.statistics 	stabilization_time 	1371.5
scalar tree_4_3_u04_r12_network.statistics 	p_hit 	0.18759261993467
scalar tree_4_3_u04_r12_network.statistics 	interests 	25426.1
scalar tree_4_3_u04_r12_network.statistics 	data 	17334
scalar tree_4_3_u04_r12_network.statistics 	hdistance 	2.8320844226473
scalar tree_4_3_u04_r12_network.statistics 	avg_time 	0.004284219296
scalar tree_4_3_u04_r12_network.statistics 	downloads 	323689
scalar tree_4_3_u04_r12_network.statistics 	total_cost 	0
scalar tree_4_3_u04_r12_network.statistics 	total_replicas 	100000
scalar tree_4_3_u04_r12_network.statistics 	inner_hit 	0.31012484205518
scalar tree_4_3_u04_r12_network.node[0].core_layer 	interests[0] 	225565
scalar tree_4_3_u04_r12_network.node[0].core_layer 	repo_load[0] 	223305
scalar tree_4_3_u04_r12_network.node[0].core_layer 	data[0] 	0
scalar tree_4_3_u04_r12_network.node[0].core_layer 	repo_int[0] 	223305
scalar tree_4_3_u04_r12_network.node[0].content_store 	p_hit[0] 	0.01001928490679
scalar tree_4_3_u04_r12_network.node[0].content_store 	hits[0] 	2260
scalar tree_4_3_u04_r12_network.node[0].content_store 	misses[0] 	223305
scalar tree_4_3_u04_r12_network.node[0].content_store 	decision_yes[0] 	223305
scalar tree_4_3_u04_r12_network.node[0].content_store 	decision_no[0] 	0
scalar tree_4_3_u04_r12_network.node[0].content_store 	decision_ratio[0] 	1
scalar tree_4_3_u04_r12_network.node[1].core_layer 	interests[1] 	153069
scalar tree_4_3_u04_r12_network.node[1].core_layer 	data[1] 	149688
scalar tree_4_3_u04_r12_network.node[1].content_store 	p_hit[1] 	0.022042346915443
scalar tree_4_3_u04_r12_network.node[1].content_store 	hits[1] 	3374
scalar tree_4_3_u04_r12_network.node[1].content_store 	misses[1] 	149695
scalar tree_4_3_u04_r12_network.node[1].content_store 	decision_yes[1] 	1530
scalar tree_4_3_u04_r12_network.node[1].content_store 	decision_no[1] 	148158
scalar tree_4_3_u04_r12_network.node[1].content_store 	decision_ratio[1] 	0.01022126022126
scalar tree_4_3_u04_r12_network.node[2].core_layer 	interests[2] 	34200
scalar tree_4_3_u04_r12_network.node[2].core_layer 	data[2] 	33745
scalar tree_4_3_u04_r12_network.node[2].content_store 	p_hit[2] 	0.013304093567251
scalar tree_4_3_u04_r12_network.node[2].content_store 	hits[2] 	455
scalar tree_4_3_u04_r12_network.node[2].content_store 	misses[2] 	33745
scalar tree_4_3_u04_r12_network.node[2].content_store 	decision_yes[2] 	326
scalar tree_4_3_u04_r12_network.node[2].content_store 	decision_no[2] 	33419
scalar tree_4_3_u04_r12_network.node[2].content_store 	decision_ratio[2] 	0.0096606904726626
scalar tree_4_3_u04_r12_network.node[3].core_layer 	interests[3] 	42699
scalar tree_4_3_u04_r12_network.node[3].core_layer 	data[3] 	42134
scalar tree_4_3_u04_r12_network.node[3].content_store 	p_hit[3] 	0.013255579755966
scalar tree_4_3_u04_r12_network.node[3].content_store 	hits[3] 	566
scalar tree_4_3_u04_r12_network.node[3].content_store 	misses[3] 	42133
scalar tree_4_3_u04_r12_network.node[3].content_store 	decision_yes[3] 	404
scalar tree_4_3_u04_r12_network.node[3].content_store 	decision_no[3] 	41730
scalar tree_4_3_u04_r12_network.node[3].content_store 	decision_ratio[3] 	0.0095884558788627
scalar tree_4_3_u04_r12_network.node[4].core_layer 	interests[4] 	26359
scalar tree_4_3_u04_r12_network.node[4].core_layer 	data[4] 	25449
scalar tree_4_3_u04_r12_network.node[4].content_store 	p_hit[4] 	0.034485375014227
scalar tree_4_3_u04_r12_network.node[4].content_store 	hits[4] 	909
scalar tree_4_3_u04_r12_network.node[4].content_store 	misses[4] 	25450
scalar tree_4_3_u04_r12_network.node[4].content_store 	decision_yes[4] 	632
scalar tree_4_3_u04_r12_network.node[4].content_store 	decision_no[4] 	24817
scalar tree_4_3_u04_r12_network.node[4].content_store 	decision_ratio[4] 	0.024833981688868
scalar tree_4_3_u04_r12_network.node[5].core_layer 	interests[5] 	35330
scalar tree_4_3_u04_r12_network.node[5].core_layer 	data[5] 	34036
scalar tree_4_3_u04_r12_network.node[5].content_store 	p_hit[5] 	0.036626096801585
scalar tree_4_3_u04_r12_network.node[5].content_store 	hits[5] 	1294
scalar tree_4_3_u04_r12_network.node[5].content_store 	misses[5] 	34036
scalar tree_4_3_u04_r12_network.node[5].content_store 	decision_yes[5] 	738
scalar tree_4_3_u04_r12_network.node[5].content_store 	decision_no[5] 	33298
scalar tree_4_3_u04_r12_network.node[5].content_store 	decision_ratio[5] 	0.021682923962863
scalar tree_4_3_u04_r12_network.node[6].core_layer 	interests[6] 	17570
scalar tree_4_3_u04_r12_network.node[6].core_layer 	data[6] 	17010
scalar tree_4_3_u04_r12_network.node[6].content_store 	p_hit[6] 	0.031872509960159
scalar tree_4_3_u04_r12_network.node[6].content_store 	hits[6] 	560
scalar tree_4_3_u04_r12_network.node[6].content_store 	misses[6] 	17010
scalar tree_4_3_u04_r12_network.node[6].content_store 	decision_yes[6] 	458
scalar tree_4_3_u04_r12_network.node[6].content_store 	decision_no[6] 	16552
scalar tree_4_3_u04_r12_network.node[6].content_store 	decision_ratio[6] 	0.026925338036449
scalar tree_4_3_u04_r12_network.node[7].core_layer 	interests[7] 	44022
scalar tree_4_3_u04_r12_network.node[7].core_layer 	data[7] 	42312
scalar tree_4_3_u04_r12_network.node[7].content_store 	p_hit[7] 	0.038866930171278
scalar tree_4_3_u04_r12_network.node[7].content_store 	hits[7] 	1711
scalar tree_4_3_u04_r12_network.node[7].content_store 	misses[7] 	42311
scalar tree_4_3_u04_r12_network.node[7].content_store 	decision_yes[7] 	827
scalar tree_4_3_u04_r12_network.node[7].content_store 	decision_no[7] 	41485
scalar tree_4_3_u04_r12_network.node[7].content_store 	decision_ratio[7] 	0.019545282662129
scalar tree_4_3_u04_r12_network.node[8].core_layer 	interests[8] 	17511
scalar tree_4_3_u04_r12_network.node[8].core_layer 	data[8] 	17076
scalar tree_4_3_u04_r12_network.node[8].content_store 	p_hit[8] 	0.024841528182285
scalar tree_4_3_u04_r12_network.node[8].content_store 	hits[8] 	435
scalar tree_4_3_u04_r12_network.node[8].content_store 	misses[8] 	17076
scalar tree_4_3_u04_r12_network.node[8].content_store 	decision_yes[8] 	222
scalar tree_4_3_u04_r12_network.node[8].content_store 	decision_no[8] 	16854
scalar tree_4_3_u04_r12_network.node[8].content_store 	decision_ratio[8] 	0.013000702740689
scalar tree_4_3_u04_r12_network.node[9].core_layer 	interests[9] 	17610
scalar tree_4_3_u04_r12_network.node[9].core_layer 	data[9] 	17124
scalar tree_4_3_u04_r12_network.node[9].content_store 	p_hit[9] 	0.027597955706985
scalar tree_4_3_u04_r12_network.node[9].content_store 	hits[9] 	486
scalar tree_4_3_u04_r12_network.node[9].content_store 	misses[9] 	17124
scalar tree_4_3_u04_r12_network.node[9].content_store 	decision_yes[9] 	233
scalar tree_4_3_u04_r12_network.node[9].content_store 	decision_no[9] 	16891
scalar tree_4_3_u04_r12_network.node[9].content_store 	decision_ratio[9] 	0.013606633964027
scalar tree_4_3_u04_r12_network.node[10].core_layer 	interests[10] 	35604
scalar tree_4_3_u04_r12_network.node[10].core_layer 	data[10] 	34263
scalar tree_4_3_u04_r12_network.node[10].content_store 	p_hit[10] 	0.037608133917537
scalar tree_4_3_u04_r12_network.node[10].content_store 	hits[10] 	1339
scalar tree_4_3_u04_r12_network.node[10].content_store 	misses[10] 	34265
scalar tree_4_3_u04_r12_network.node[10].content_store 	decision_yes[10] 	719
scalar tree_4_3_u04_r12_network.node[10].content_store 	decision_no[10] 	33544
scalar tree_4_3_u04_r12_network.node[10].content_store 	decision_ratio[10] 	0.020984735720748
scalar tree_4_3_u04_r12_network.node[11].core_layer 	interests[11] 	26395
scalar tree_4_3_u04_r12_network.node[11].core_layer 	data[11] 	25721
scalar tree_4_3_u04_r12_network.node[11].content_store 	p_hit[11] 	0.025573025194166
scalar tree_4_3_u04_r12_network.node[11].content_store 	hits[11] 	675
scalar tree_4_3_u04_r12_network.node[11].content_store 	misses[11] 	25720
scalar tree_4_3_u04_r12_network.node[11].content_store 	decision_yes[11] 	311
scalar tree_4_3_u04_r12_network.node[11].content_store 	decision_no[11] 	25410
scalar tree_4_3_u04_r12_network.node[11].content_store 	decision_ratio[11] 	0.012091287274989
scalar tree_4_3_u04_r12_network.node[12].core_layer 	interests[12] 	17420
scalar tree_4_3_u04_r12_network.node[12].core_layer 	data[12] 	16979
scalar tree_4_3_u04_r12_network.node[12].content_store 	p_hit[12] 	0.025315729047072
scalar tree_4_3_u04_r12_network.node[12].content_store 	hits[12] 	441
scalar tree_4_3_u04_r12_network.node[12].content_store 	misses[12] 	16979
scalar tree_4_3_u04_r12_network.node[12].content_store 	decision_yes[12] 	255
scalar tree_4_3_u04_r12_network.node[12].content_store 	decision_no[12] 	16724
scalar tree_4_3_u04_r12_network.node[12].content_store 	decision_ratio[12] 	0.015018552329348
scalar tree_4_3_u04_r12_network.node[13].core_layer 	interests[13] 	11988
scalar tree_4_3_u04_r12_network.node[13].core_layer 	data[13] 	8794
scalar tree_4_3_u04_r12_network.node[13].content_store 	p_hit[13] 	0.26643309976643
scalar tree_4_3_u04_r12_network.node[13].content_store 	hits[13] 	3194
scalar tree_4_3_u04_r12_network.node[13].content_store 	misses[13] 	8794
scalar tree_4_3_u04_r12_network.node[13].content_store 	decision_yes[13] 	293
scalar tree_4_3_u04_r12_network.node[13].content_store 	decision_no[13] 	8501
scalar tree_4_3_u04_r12_network.node[13].content_store 	decision_ratio[13] 	0.033318171480555
scalar tree_4_3_u04_r12_network.node[14].core_layer 	interests[14] 	12089
scalar tree_4_3_u04_r12_network.node[14].core_layer 	data[14] 	8855
scalar tree_4_3_u04_r12_network.node[14].content_store 	p_hit[14] 	0.26751592356688
scalar tree_4_3_u04_r12_network.node[14].content_store 	hits[14] 	3234
scalar tree_4_3_u04_r12_network.node[14].content_store 	misses[14] 	8855
scalar tree_4_3_u04_r12_network.node[14].content_store 	decision_yes[14] 	313
scalar tree_4_3_u04_r12_network.node[14].content_store 	decision_no[14] 	8542
scalar tree_4_3_u04_r12_network.node[14].content_store 	decision_ratio[14] 	0.035347261434218
scalar tree_4_3_u04_r12_network.node[15].core_layer 	interests[15] 	11921
scalar tree_4_3_u04_r12_network.node[15].core_layer 	data[15] 	8710
scalar tree_4_3_u04_r12_network.node[15].content_store 	p_hit[15] 	0.26935659760087
scalar tree_4_3_u04_r12_network.node[15].content_store 	hits[15] 	3211
scalar tree_4_3_u04_r12_network.node[15].content_store 	misses[15] 	8710
scalar tree_4_3_u04_r12_network.node[15].content_store 	decision_yes[15] 	303
scalar tree_4_3_u04_r12_network.node[15].content_store 	decision_no[15] 	8407
scalar tree_4_3_u04_r12_network.node[15].content_store 	decision_ratio[15] 	0.034787600459242
scalar tree_4_3_u04_r12_network.node[16].core_layer 	interests[16] 	11975
scalar tree_4_3_u04_r12_network.node[16].core_layer 	data[16] 	8899
scalar tree_4_3_u04_r12_network.node[16].content_store 	p_hit[16] 	0.25678496868476
scalar tree_4_3_u04_r12_network.node[16].content_store 	hits[16] 	3075
scalar tree_4_3_u04_r12_network.node[16].content_store 	misses[16] 	8900
scalar tree_4_3_u04_r12_network.node[16].content_store 	decision_yes[16] 	352
scalar tree_4_3_u04_r12_network.node[16].content_store 	decision_no[16] 	8547
scalar tree_4_3_u04_r12_network.node[16].content_store 	decision_ratio[16] 	0.03955500618047
scalar tree_4_3_u04_r12_network.node[17].core_layer 	interests[17] 	11989
scalar tree_4_3_u04_r12_network.node[17].core_layer 	data[17] 	8686
scalar tree_4_3_u04_r12_network.node[17].content_store 	p_hit[17] 	0.27550254399867
scalar tree_4_3_u04_r12_network.node[17].content_store 	hits[17] 	3303
scalar tree_4_3_u04_r12_network.node[17].content_store 	misses[17] 	8686
scalar tree_4_3_u04_r12_network.node[17].content_store 	decision_yes[17] 	306
scalar tree_4_3_u04_r12_network.node[17].content_store 	decision_no[17] 	8380
scalar tree_4_3_u04_r12_network.node[17].content_store 	decision_ratio[17] 	0.035229104305779
scalar tree_4_3_u04_r12_network.node[18].core_layer 	interests[18] 	12052
scalar tree_4_3_u04_r12_network.node[18].core_layer 	data[18] 	8890
scalar tree_4_3_u04_r12_network.node[18].content_store 	p_hit[18] 	0.26236309326253
scalar tree_4_3_u04_r12_network.node[18].content_store 	hits[18] 	3162
scalar tree_4_3_u04_r12_network.node[18].content_store 	misses[18] 	8890
scalar tree_4_3_u04_r12_network.node[18].content_store 	decision_yes[18] 	313
scalar tree_4_3_u04_r12_network.node[18].content_store 	decision_no[18] 	8577
scalar tree_4_3_u04_r12_network.node[18].content_store 	decision_ratio[18] 	0.035208098987627
scalar tree_4_3_u04_r12_network.node[19].core_layer 	interests[19] 	11997
scalar tree_4_3_u04_r12_network.node[19].core_layer 	data[19] 	8782
scalar tree_4_3_u04_r12_network.node[19].content_store 	p_hit[19] 	0.26798366258231
scalar tree_4_3_u04_r12_network.node[19].content_store 	hits[19] 	3215
scalar tree_4_3_u04_r12_network.node[19].content_store 	misses[19] 	8782
scalar tree_4_3_u04_r12_network.node[19].content_store 	decision_yes[19] 	274
scalar tree_4_3_u04_r12_network.node[19].content_store 	decision_no[19] 	8508
scalar tree_4_3_u04_r12_network.node[19].content_store 	decision_ratio[19] 	0.031200182190845
scalar tree_4_3_u04_r12_network.node[20].core_layer 	interests[20] 	12109
scalar tree_4_3_u04_r12_network.node[20].core_layer 	data[20] 	8855
scalar tree_4_3_u04_r12_network.node[20].content_store 	p_hit[20] 	0.26872574118424
scalar tree_4_3_u04_r12_network.node[20].content_store 	hits[20] 	3254
scalar tree_4_3_u04_r12_network.node[20].content_store 	misses[20] 	8855
scalar tree_4_3_u04_r12_network.node[20].content_store 	decision_yes[20] 	323
scalar tree_4_3_u04_r12_network.node[20].content_store 	decision_no[20] 	8532
scalar tree_4_3_u04_r12_network.node[20].content_store 	decision_ratio[20] 	0.03647656691135
scalar tree_4_3_u04_r12_network.node[21].core_layer 	interests[21] 	12070
scalar tree_4_3_u04_r12_network.node[21].core_layer 	data[21] 	8788
scalar tree_4_3_u04_r12_network.node[21].content_store 	p_hit[21] 	0.27191383595692
scalar tree_4_3_u04_r12_network.node[21].content_store 	hits[21] 	3282
scalar tree_4_3_u04_r12_network.node[21].content_store 	misses[21] 	8788
scalar tree_4_3_u04_r12_network.node[21].content_store 	decision_yes[21] 	286
scalar tree_4_3_u04_r12_network.node[21].content_store 	decision_no[21] 	8502
scalar tree_4_3_u04_r12_network.node[21].content_store 	decision_ratio[21] 	0.032544378698225
scalar tree_4_3_u04_r12_network.node[22].core_layer 	interests[22] 	12072
scalar tree_4_3_u04_r12_network.node[22].core_layer 	data[22] 	8892
scalar tree_4_3_u04_r12_network.node[22].content_store 	p_hit[22] 	0.26341948310139
scalar tree_4_3_u04_r12_network.node[22].content_store 	hits[22] 	3180
scalar tree_4_3_u04_r12_network.node[22].content_store 	misses[22] 	8892
scalar tree_4_3_u04_r12_network.node[22].content_store 	decision_yes[22] 	333
scalar tree_4_3_u04_r12_network.node[22].content_store 	decision_no[22] 	8559
scalar tree_4_3_u04_r12_network.node[22].content_store 	decision_ratio[22] 	0.037449392712551
scalar tree_4_3_u04_r12_network.node[23].core_layer 	interests[23] 	11835
scalar tree_4_3_u04_r12_network.node[23].core_layer 	data[23] 	8650
scalar tree_4_3_u04_r12_network.node[23].content_store 	p_hit[23] 	0.26911702577102
scalar tree_4_3_u04_r12_network.node[23].content_store 	hits[23] 	3185
scalar tree_4_3_u04_r12_network.node[23].content_store 	misses[23] 	8650
scalar tree_4_3_u04_r12_network.node[23].content_store 	decision_yes[23] 	315
scalar tree_4_3_u04_r12_network.node[23].content_store 	decision_no[23] 	8335
scalar tree_4_3_u04_r12_network.node[23].content_store 	decision_ratio[23] 	0.036416184971098
scalar tree_4_3_u04_r12_network.node[24].core_layer 	interests[24] 	11964
scalar tree_4_3_u04_r12_network.node[24].core_layer 	data[24] 	8738
scalar tree_4_3_u04_r12_network.node[24].content_store 	p_hit[24] 	0.26964226011367
scalar tree_4_3_u04_r12_network.node[24].content_store 	hits[24] 	3226
scalar tree_4_3_u04_r12_network.node[24].content_store 	misses[24] 	8738
scalar tree_4_3_u04_r12_network.node[24].content_store 	decision_yes[24] 	337
scalar tree_4_3_u04_r12_network.node[24].content_store 	decision_no[24] 	8401
scalar tree_4_3_u04_r12_network.node[24].content_store 	decision_ratio[24] 	0.0385671778439
scalar tree_4_3_u04_r12_network.node[25].core_layer 	interests[25] 	12015
scalar tree_4_3_u04_r12_network.node[25].core_layer 	data[25] 	8914
scalar tree_4_3_u04_r12_network.node[25].content_store 	p_hit[25] 	0.25809404910529
scalar tree_4_3_u04_r12_network.node[25].content_store 	hits[25] 	3101
scalar tree_4_3_u04_r12_network.node[25].content_store 	misses[25] 	8914
scalar tree_4_3_u04_r12_network.node[25].content_store 	decision_yes[25] 	352
scalar tree_4_3_u04_r12_network.node[25].content_store 	decision_no[25] 	8562
scalar tree_4_3_u04_r12_network.node[25].content_store 	decision_ratio[25] 	0.039488445142473
scalar tree_4_3_u04_r12_network.node[26].core_layer 	interests[26] 	11812
scalar tree_4_3_u04_r12_network.node[26].core_layer 	data[26] 	8740
scalar tree_4_3_u04_r12_network.node[26].content_store 	p_hit[26] 	0.26007450050796
scalar tree_4_3_u04_r12_network.node[26].content_store 	hits[26] 	3072
scalar tree_4_3_u04_r12_network.node[26].content_store 	misses[26] 	8740
scalar tree_4_3_u04_r12_network.node[26].content_store 	decision_yes[26] 	219
scalar tree_4_3_u04_r12_network.node[26].content_store 	decision_no[26] 	8521
scalar tree_4_3_u04_r12_network.node[26].content_store 	decision_ratio[26] 	0.025057208237986
scalar tree_4_3_u04_r12_network.node[27].core_layer 	interests[27] 	12033
scalar tree_4_3_u04_r12_network.node[27].core_layer 	data[27] 	8771
scalar tree_4_3_u04_r12_network.node[27].content_store 	p_hit[27] 	0.27108784176847
scalar tree_4_3_u04_r12_network.node[27].content_store 	hits[27] 	3262
scalar tree_4_3_u04_r12_network.node[27].content_store 	misses[27] 	8771
scalar tree_4_3_u04_r12_network.node[27].content_store 	decision_yes[27] 	216
scalar tree_4_3_u04_r12_network.node[27].content_store 	decision_no[27] 	8555
scalar tree_4_3_u04_r12_network.node[27].content_store 	decision_ratio[27] 	0.024626610420705
scalar tree_4_3_u04_r12_network.node[28].core_layer 	interests[28] 	11972
scalar tree_4_3_u04_r12_network.node[28].core_layer 	data[28] 	8829
scalar tree_4_3_u04_r12_network.node[28].content_store 	p_hit[28] 	0.26261276311393
scalar tree_4_3_u04_r12_network.node[28].content_store 	hits[28] 	3144
scalar tree_4_3_u04_r12_network.node[28].content_store 	misses[28] 	8828
scalar tree_4_3_u04_r12_network.node[28].content_store 	decision_yes[28] 	374
scalar tree_4_3_u04_r12_network.node[28].content_store 	decision_no[28] 	8455
scalar tree_4_3_u04_r12_network.node[28].content_store 	decision_ratio[28] 	0.042360403216672
scalar tree_4_3_u04_r12_network.node[29].core_layer 	interests[29] 	11961
scalar tree_4_3_u04_r12_network.node[29].core_layer 	data[29] 	8858
scalar tree_4_3_u04_r12_network.node[29].content_store 	p_hit[29] 	0.25942646935875
scalar tree_4_3_u04_r12_network.node[29].content_store 	hits[29] 	3103
scalar tree_4_3_u04_r12_network.node[29].content_store 	misses[29] 	8858
scalar tree_4_3_u04_r12_network.node[29].content_store 	decision_yes[29] 	249
scalar tree_4_3_u04_r12_network.node[29].content_store 	decision_no[29] 	8609
scalar tree_4_3_u04_r12_network.node[29].content_store 	decision_ratio[29] 	0.028110182885527
scalar tree_4_3_u04_r12_network.node[30].core_layer 	interests[30] 	11827
scalar tree_4_3_u04_r12_network.node[30].core_layer 	data[30] 	8752
scalar tree_4_3_u04_r12_network.node[30].content_store 	p_hit[30] 	0.25999830895409
scalar tree_4_3_u04_r12_network.node[30].content_store 	hits[30] 	3075
scalar tree_4_3_u04_r12_network.node[30].content_store 	misses[30] 	8752
scalar tree_4_3_u04_r12_network.node[30].content_store 	decision_yes[30] 	237
scalar tree_4_3_u04_r12_network.node[30].content_store 	decision_no[30] 	8515
scalar tree_4_3_u04_r12_network.node[30].content_store 	decision_ratio[30] 	0.027079524680073
scalar tree_4_3_u04_r12_network.node[31].core_layer 	interests[31] 	12140
scalar tree_4_3_u04_r12_network.node[31].core_layer 	data[31] 	8913
scalar tree_4_3_u04_r12_network.node[31].content_store 	p_hit[31] 	0.26565074135091
scalar tree_4_3_u04_r12_network.node[31].content_store 	hits[31] 	3225
scalar tree_4_3_u04_r12_network.node[31].content_store 	misses[31] 	8915
scalar tree_4_3_u04_r12_network.node[31].content_store 	decision_yes[31] 	334
scalar tree_4_3_u04_r12_network.node[31].content_store 	decision_no[31] 	8579
scalar tree_4_3_u04_r12_network.node[31].content_store 	decision_ratio[31] 	0.037473353528554
scalar tree_4_3_u04_r12_network.node[32].core_layer 	interests[32] 	11999
scalar tree_4_3_u04_r12_network.node[32].core_layer 	data[32] 	8857
scalar tree_4_3_u04_r12_network.node[32].content_store 	p_hit[32] 	0.26185515459622
scalar tree_4_3_u04_r12_network.node[32].content_store 	hits[32] 	3142
scalar tree_4_3_u04_r12_network.node[32].content_store 	misses[32] 	8857
scalar tree_4_3_u04_r12_network.node[32].content_store 	decision_yes[32] 	350
scalar tree_4_3_u04_r12_network.node[32].content_store 	decision_no[32] 	8507
scalar tree_4_3_u04_r12_network.node[32].content_store 	decision_ratio[32] 	0.039516766399458
scalar tree_4_3_u04_r12_network.node[33].core_layer 	interests[33] 	12185
scalar tree_4_3_u04_r12_network.node[33].core_layer 	data[33] 	8974
scalar tree_4_3_u04_r12_network.node[33].content_store 	p_hit[33] 	0.26352072219943
scalar tree_4_3_u04_r12_network.node[33].content_store 	hits[33] 	3211
scalar tree_4_3_u04_r12_network.node[33].content_store 	misses[33] 	8974
scalar tree_4_3_u04_r12_network.node[33].content_store 	decision_yes[33] 	318
scalar tree_4_3_u04_r12_network.node[33].content_store 	decision_no[33] 	8656
scalar tree_4_3_u04_r12_network.node[33].content_store 	decision_ratio[33] 	0.035435703142411
scalar tree_4_3_u04_r12_network.node[34].core_layer 	interests[34] 	11981
scalar tree_4_3_u04_r12_network.node[34].core_layer 	data[34] 	8819
scalar tree_4_3_u04_r12_network.node[34].content_store 	p_hit[34] 	0.26400133544779
scalar tree_4_3_u04_r12_network.node[34].content_store 	hits[34] 	3163
scalar tree_4_3_u04_r12_network.node[34].content_store 	misses[34] 	8818
scalar tree_4_3_u04_r12_network.node[34].content_store 	decision_yes[34] 	219
scalar tree_4_3_u04_r12_network.node[34].content_store 	decision_no[34] 	8600
scalar tree_4_3_u04_r12_network.node[34].content_store 	decision_ratio[34] 	0.024832747477038
scalar tree_4_3_u04_r12_network.node[35].core_layer 	interests[35] 	12186
scalar tree_4_3_u04_r12_network.node[35].core_layer 	data[35] 	8934
scalar tree_4_3_u04_r12_network.node[35].content_store 	p_hit[35] 	0.26686361398326
scalar tree_4_3_u04_r12_network.node[35].content_store 	hits[35] 	3252
scalar tree_4_3_u04_r12_network.node[35].content_store 	misses[35] 	8934
scalar tree_4_3_u04_r12_network.node[35].content_store 	decision_yes[35] 	230
scalar tree_4_3_u04_r12_network.node[35].content_store 	decision_no[35] 	8704
scalar tree_4_3_u04_r12_network.node[35].content_store 	decision_ratio[35] 	0.025744347436758
scalar tree_4_3_u04_r12_network.node[36].core_layer 	interests[36] 	11851
scalar tree_4_3_u04_r12_network.node[36].core_layer 	data[36] 	8643
scalar tree_4_3_u04_r12_network.node[36].content_store 	p_hit[36] 	0.27069445616404
scalar tree_4_3_u04_r12_network.node[36].content_store 	hits[36] 	3208
scalar tree_4_3_u04_r12_network.node[36].content_store 	misses[36] 	8643
scalar tree_4_3_u04_r12_network.node[36].content_store 	decision_yes[36] 	226
scalar tree_4_3_u04_r12_network.node[36].content_store 	decision_no[36] 	8417
scalar tree_4_3_u04_r12_network.node[36].content_store 	decision_ratio[36] 	0.026148328126808
scalar tree_4_3_u04_r12_network.node[37].core_layer 	interests[37] 	12023
scalar tree_4_3_u04_r12_network.node[37].core_layer 	data[37] 	8860
scalar tree_4_3_u04_r12_network.node[37].content_store 	p_hit[37] 	0.26307909839474
scalar tree_4_3_u04_r12_network.node[37].content_store 	hits[37] 	3163
scalar tree_4_3_u04_r12_network.node[37].content_store 	misses[37] 	8860
scalar tree_4_3_u04_r12_network.node[37].content_store 	decision_yes[37] 	337
scalar tree_4_3_u04_r12_network.node[37].content_store 	decision_no[37] 	8523
scalar tree_4_3_u04_r12_network.node[37].content_store 	decision_ratio[37] 	0.03803611738149
scalar tree_4_3_u04_r12_network.node[38].core_layer 	interests[38] 	11678
scalar tree_4_3_u04_r12_network.node[38].core_layer 	data[38] 	8554
scalar tree_4_3_u04_r12_network.node[38].content_store 	p_hit[38] 	0.26751156019866
scalar tree_4_3_u04_r12_network.node[38].content_store 	hits[38] 	3124
scalar tree_4_3_u04_r12_network.node[38].content_store 	misses[38] 	8554
scalar tree_4_3_u04_r12_network.node[38].content_store 	decision_yes[38] 	214
scalar tree_4_3_u04_r12_network.node[38].content_store 	decision_no[38] 	8340
scalar tree_4_3_u04_r12_network.node[38].content_store 	decision_ratio[38] 	0.025017535655834
scalar tree_4_3_u04_r12_network.node[39].core_layer 	interests[39] 	11966
scalar tree_4_3_u04_r12_network.node[39].core_layer 	data[39] 	8866
scalar tree_4_3_u04_r12_network.node[39].content_store 	p_hit[39] 	0.25906735751295
scalar tree_4_3_u04_r12_network.node[39].content_store 	hits[39] 	3100
scalar tree_4_3_u04_r12_network.node[39].content_store 	misses[39] 	8866
scalar tree_4_3_u04_r12_network.node[39].content_store 	decision_yes[39] 	227
scalar tree_4_3_u04_r12_network.node[39].content_store 	decision_no[39] 	8639
scalar tree_4_3_u04_r12_network.node[39].content_store 	decision_ratio[39] 	0.025603428829235
scalar tree_4_3_u04_r12_network.client[13] 	hdistance[13] 	2.8179012345679
scalar tree_4_3_u04_r12_network.client[13] 	downloads[13] 	11988
scalar tree_4_3_u04_r12_network.client[13] 	avg_time[13] 	0.00426656925
scalar tree_4_3_u04_r12_network.client[14] 	hdistance[14] 	2.8114815121184
scalar tree_4_3_u04_r12_network.client[14] 	downloads[14] 	12089
scalar tree_4_3_u04_r12_network.client[14] 	avg_time[14] 	0.004259658183
scalar tree_4_3_u04_r12_network.client[15] 	hdistance[15] 	2.8022816877779
scalar tree_4_3_u04_r12_network.client[15] 	downloads[15] 	11921
scalar tree_4_3_u04_r12_network.client[15] 	avg_time[15] 	0.004245110666
scalar tree_4_3_u04_r12_network.client[16] 	hdistance[16] 	2.8464172373476
scalar tree_4_3_u04_r12_network.client[16] 	downloads[16] 	11974
scalar tree_4_3_u04_r12_network.client[16] 	avg_time[16] 	0.004309859573
scalar tree_4_3_u04_r12_network.client[17] 	hdistance[17] 	2.7850529652181
scalar tree_4_3_u04_r12_network.client[17] 	downloads[17] 	11989
scalar tree_4_3_u04_r12_network.client[17] 	avg_time[17] 	0.004214803187
scalar tree_4_3_u04_r12_network.client[18] 	hdistance[18] 	2.8341354132094
scalar tree_4_3_u04_r12_network.client[18] 	downloads[18] 	12052
scalar tree_4_3_u04_r12_network.client[18] 	avg_time[18] 	0.004291713539
scalar tree_4_3_u04_r12_network.client[19] 	hdistance[19] 	2.8156205718096
scalar tree_4_3_u04_r12_network.client[19] 	downloads[19] 	11997
scalar tree_4_3_u04_r12_network.client[19] 	avg_time[19] 	0.004265229967
scalar tree_4_3_u04_r12_network.client[20] 	hdistance[20] 	2.8066727227682
scalar tree_4_3_u04_r12_network.client[20] 	downloads[20] 	12109
scalar tree_4_3_u04_r12_network.client[20] 	avg_time[20] 	0.004249657583
scalar tree_4_3_u04_r12_network.client[21] 	hdistance[21] 	2.7942833471417
scalar tree_4_3_u04_r12_network.client[21] 	downloads[21] 	12070
scalar tree_4_3_u04_r12_network.client[21] 	avg_time[21] 	0.004233137018
scalar tree_4_3_u04_r12_network.client[22] 	hdistance[22] 	2.829688535454
scalar tree_4_3_u04_r12_network.client[22] 	downloads[22] 	12072
scalar tree_4_3_u04_r12_network.client[22] 	avg_time[22] 	0.004282634508
scalar tree_4_3_u04_r12_network.client[23] 	hdistance[23] 	2.8089564850021
scalar tree_4_3_u04_r12_network.client[23] 	downloads[23] 	11835
scalar tree_4_3_u04_r12_network.client[23] 	avg_time[23] 	0.004250954859
scalar tree_4_3_u04_r12_network.client[24] 	hdistance[24] 	2.7986459378135
scalar tree_4_3_u04_r12_network.client[24] 	downloads[24] 	11964
scalar tree_4_3_u04_r12_network.client[24] 	avg_time[24] 	0.004239214679
scalar tree_4_3_u04_r12_network.client[25] 	hdistance[25] 	2.8441115272576
scalar tree_4_3_u04_r12_network.client[25] 	downloads[25] 	12015
scalar tree_4_3_u04_r12_network.client[25] 	avg_time[25] 	0.004305614968
scalar tree_4_3_u04_r12_network.client[26] 	hdistance[26] 	2.8776667795462
scalar tree_4_3_u04_r12_network.client[26] 	downloads[26] 	11812
scalar tree_4_3_u04_r12_network.client[26] 	avg_time[26] 	0.004345408471
scalar tree_4_3_u04_r12_network.client[27] 	hdistance[27] 	2.8377794398737
scalar tree_4_3_u04_r12_network.client[27] 	downloads[27] 	12033
scalar tree_4_3_u04_r12_network.client[27] 	avg_time[27] 	0.00428438161
scalar tree_4_3_u04_r12_network.client[28] 	hdistance[28] 	2.8256076171386
scalar tree_4_3_u04_r12_network.client[28] 	downloads[28] 	11973
scalar tree_4_3_u04_r12_network.client[28] 	avg_time[28] 	0.004274447871
scalar tree_4_3_u04_r12_network.client[29] 	hdistance[29] 	2.8735891647856
scalar tree_4_3_u04_r12_network.client[29] 	downloads[29] 	11961
scalar tree_4_3_u04_r12_network.client[29] 	avg_time[29] 	0.004340938404
scalar tree_4_3_u04_r12_network.client[30] 	hdistance[30] 	2.8727487951298
scalar tree_4_3_u04_r12_network.client[30] 	downloads[30] 	11827
scalar tree_4_3_u04_r12_network.client[30] 	avg_time[30] 	0.004339897285
scalar tree_4_3_u04_r12_network.client[31] 	hdistance[31] 	2.8166089965398
scalar tree_4_3_u04_r12_network.client[31] 	downloads[31] 	12138
scalar tree_4_3_u04_r12_network.client[31] 	avg_time[31] 	0.004264727318
scalar tree_4_3_u04_r12_network.client[32] 	hdistance[32] 	2.8324860405034
scalar tree_4_3_u04_r12_network.client[32] 	downloads[32] 	11999
scalar tree_4_3_u04_r12_network.client[32] 	avg_time[32] 	0.004285687452
scalar tree_4_3_u04_r12_network.client[33] 	hdistance[33] 	2.8335658596635
scalar tree_4_3_u04_r12_network.client[33] 	downloads[33] 	12185
scalar tree_4_3_u04_r12_network.client[33] 	avg_time[33] 	0.004286907096
scalar tree_4_3_u04_r12_network.client[34] 	hdistance[34] 	2.8641295276248
scalar tree_4_3_u04_r12_network.client[34] 	downloads[34] 	11982
scalar tree_4_3_u04_r12_network.client[34] 	avg_time[34] 	0.004324650681
scalar tree_4_3_u04_r12_network.client[35] 	hdistance[35] 	2.8504021007714
scalar tree_4_3_u04_r12_network.client[35] 	downloads[35] 	12186
scalar tree_4_3_u04_r12_network.client[35] 	avg_time[35] 	0.004304937065
scalar tree_4_3_u04_r12_network.client[36] 	hdistance[36] 	2.8389165471268
scalar tree_4_3_u04_r12_network.client[36] 	downloads[36] 	11851
scalar tree_4_3_u04_r12_network.client[36] 	avg_time[36] 	0.004284529993
scalar tree_4_3_u04_r12_network.client[37] 	hdistance[37] 	2.8227563835981
scalar tree_4_3_u04_r12_network.client[37] 	downloads[37] 	12023
scalar tree_4_3_u04_r12_network.client[37] 	avg_time[37] 	0.004275067723
scalar tree_4_3_u04_r12_network.client[38] 	hdistance[38] 	2.8459496489125
scalar tree_4_3_u04_r12_network.client[38] 	downloads[38] 	11678
scalar tree_4_3_u04_r12_network.client[38] 	avg_time[38] 	0.004299363416
scalar tree_4_3_u04_r12_network.client[39] 	hdistance[39] 	2.8788233327762
scalar tree_4_3_u04_r12_network.client[39] 	downloads[39] 	11966
scalar tree_4_3_u04_r12_network.client[39] 	avg_time[39] 	0.004348818642
