version 2
run General-99-20160820-08:33:32-856
attr a 0.9
attr cd lcd
attr configname General
attr cr lru
attr datetime 20160820-08:33:32
attr experiment General
attr fsize 1
attr inifile hw5115/scenario_A/SPR-LCD.ini
attr iterationvars "$name=tree_4_3, $un=04, $rep=20, $cd=lcd, $cr=lru, $fsize=1, $a=0.9, $sl=spr, $ttl=1000, $variance=0.05"
attr iterationvars2 "$name=tree_4_3, $un=04, $rep=20, $cd=lcd, $cr=lru, $fsize=1, $a=0.9, $sl=spr, $ttl=1000, $variance=0.05, $repetition=0"
attr measurement "$name=tree_4_3, $un=04, $rep=20, $cd=lcd, $cr=lru, $fsize=1, $a=0.9, $sl=spr, $ttl=1000, $variance=0.05"
attr name tree_4_3
attr network networks.${name}_u${un}_r${rep}_network
attr processid 856
attr rep 20
attr repetition 0
attr replication #0
attr resultdir results
attr runnumber 99
attr seedset 20
attr sl spr
attr ttl 1000
attr un 04
attr variance 0.05

scalar . 	a 	0.9
scalar . 	fsize 	1
scalar . 	rep 	20
scalar . 	ttl 	1000
scalar . 	un 	04
scalar . 	variance 	0.05
scalar tree_4_3_u04_r20_network.content_distribution 	repo-0 	0
scalar tree_4_3_u04_r20_network.content_distribution 	client-0 	13
scalar tree_4_3_u04_r20_network.content_distribution 	client-1 	14
scalar tree_4_3_u04_r20_network.content_distribution 	client-2 	15
scalar tree_4_3_u04_r20_network.content_distribution 	client-3 	16
scalar tree_4_3_u04_r20_network.content_distribution 	client-4 	17
scalar tree_4_3_u04_r20_network.content_distribution 	client-5 	18
scalar tree_4_3_u04_r20_network.content_distribution 	client-6 	19
scalar tree_4_3_u04_r20_network.content_distribution 	client-7 	20
scalar tree_4_3_u04_r20_network.content_distribution 	client-8 	21
scalar tree_4_3_u04_r20_network.content_distribution 	client-9 	22
scalar tree_4_3_u04_r20_network.content_distribution 	client-10 	23
scalar tree_4_3_u04_r20_network.content_distribution 	client-11 	24
scalar tree_4_3_u04_r20_network.content_distribution 	client-12 	25
scalar tree_4_3_u04_r20_network.content_distribution 	client-13 	26
scalar tree_4_3_u04_r20_network.content_distribution 	client-14 	27
scalar tree_4_3_u04_r20_network.content_distribution 	client-15 	28
scalar tree_4_3_u04_r20_network.content_distribution 	client-16 	29
scalar tree_4_3_u04_r20_network.content_distribution 	client-17 	30
scalar tree_4_3_u04_r20_network.content_distribution 	client-18 	31
scalar tree_4_3_u04_r20_network.content_distribution 	client-19 	32
scalar tree_4_3_u04_r20_network.content_distribution 	client-20 	33
scalar tree_4_3_u04_r20_network.content_distribution 	client-21 	34
scalar tree_4_3_u04_r20_network.content_distribution 	client-22 	35
scalar tree_4_3_u04_r20_network.content_distribution 	client-23 	36
scalar tree_4_3_u04_r20_network.content_distribution 	client-24 	37
scalar tree_4_3_u04_r20_network.content_distribution 	client-25 	38
scalar tree_4_3_u04_r20_network.content_distribution 	client-26 	39
scalar tree_4_3_u04_r20_network.content_distribution 	repo-0_card 	100000
scalar tree_4_3_u04_r20_network.content_distribution 	repo-0_price 	0
scalar tree_4_3_u04_r20_network.statistics 	stabilization_time 	1150.3
scalar tree_4_3_u04_r20_network.statistics 	p_hit 	0.18774682057155
scalar tree_4_3_u04_r20_network.statistics 	interests 	25474.425
scalar tree_4_3_u04_r20_network.statistics 	data 	17373.725
scalar tree_4_3_u04_r20_network.statistics 	hdistance 	2.8368462187084
scalar tree_4_3_u04_r20_network.statistics 	avg_time 	0.004289502052
scalar tree_4_3_u04_r20_network.statistics 	downloads 	324021
scalar tree_4_3_u04_r20_network.statistics 	total_cost 	0
scalar tree_4_3_u04_r20_network.statistics 	total_replicas 	100000
scalar tree_4_3_u04_r20_network.statistics 	inner_hit 	0.307912141497
scalar tree_4_3_u04_r20_network.node[0].core_layer 	interests[0] 	226510
scalar tree_4_3_u04_r20_network.node[0].core_layer 	repo_load[0] 	224251
scalar tree_4_3_u04_r20_network.node[0].core_layer 	data[0] 	0
scalar tree_4_3_u04_r20_network.node[0].core_layer 	repo_int[0] 	224251
scalar tree_4_3_u04_r20_network.node[0].content_store 	p_hit[0] 	0.0099730696216503
scalar tree_4_3_u04_r20_network.node[0].content_store 	hits[0] 	2259
scalar tree_4_3_u04_r20_network.node[0].content_store 	misses[0] 	224251
scalar tree_4_3_u04_r20_network.node[0].content_store 	decision_yes[0] 	224251
scalar tree_4_3_u04_r20_network.node[0].content_store 	decision_no[0] 	0
scalar tree_4_3_u04_r20_network.node[0].content_store 	decision_ratio[0] 	1
scalar tree_4_3_u04_r20_network.node[1].core_layer 	interests[1] 	76790
scalar tree_4_3_u04_r20_network.node[1].core_layer 	data[1] 	75499
scalar tree_4_3_u04_r20_network.node[1].content_store 	p_hit[1] 	0.016799062377914
scalar tree_4_3_u04_r20_network.node[1].content_store 	hits[1] 	1290
scalar tree_4_3_u04_r20_network.node[1].content_store 	misses[1] 	75500
scalar tree_4_3_u04_r20_network.node[1].content_store 	decision_yes[1] 	744
scalar tree_4_3_u04_r20_network.node[1].content_store 	decision_no[1] 	74755
scalar tree_4_3_u04_r20_network.node[1].content_store 	decision_ratio[1] 	0.0098544351580816
scalar tree_4_3_u04_r20_network.node[2].core_layer 	interests[2] 	101993
scalar tree_4_3_u04_r20_network.node[2].core_layer 	data[2] 	100033
scalar tree_4_3_u04_r20_network.node[2].content_store 	p_hit[2] 	0.019217005088585
scalar tree_4_3_u04_r20_network.node[2].content_store 	hits[2] 	1960
scalar tree_4_3_u04_r20_network.node[2].content_store 	misses[2] 	100033
scalar tree_4_3_u04_r20_network.node[2].content_store 	decision_yes[2] 	1013
scalar tree_4_3_u04_r20_network.node[2].content_store 	decision_no[2] 	99020
scalar tree_4_3_u04_r20_network.node[2].content_store 	decision_ratio[2] 	0.010126658202793
scalar tree_4_3_u04_r20_network.node[3].core_layer 	interests[3] 	51672
scalar tree_4_3_u04_r20_network.node[3].core_layer 	data[3] 	50978
scalar tree_4_3_u04_r20_network.node[3].content_store 	p_hit[3] 	0.013430871651959
scalar tree_4_3_u04_r20_network.node[3].content_store 	hits[3] 	694
scalar tree_4_3_u04_r20_network.node[3].content_store 	misses[3] 	50978
scalar tree_4_3_u04_r20_network.node[3].content_store 	decision_yes[3] 	502
scalar tree_4_3_u04_r20_network.node[3].content_store 	decision_no[3] 	50476
scalar tree_4_3_u04_r20_network.node[3].content_store 	decision_ratio[3] 	0.0098473851465338
scalar tree_4_3_u04_r20_network.node[4].core_layer 	interests[4] 	26453
scalar tree_4_3_u04_r20_network.node[4].core_layer 	data[4] 	25657
scalar tree_4_3_u04_r20_network.node[4].content_store 	p_hit[4] 	0.03005330208294
scalar tree_4_3_u04_r20_network.node[4].content_store 	hits[4] 	795
scalar tree_4_3_u04_r20_network.node[4].content_store 	misses[4] 	25658
scalar tree_4_3_u04_r20_network.node[4].content_store 	decision_yes[4] 	427
scalar tree_4_3_u04_r20_network.node[4].content_store 	decision_no[4] 	25230
scalar tree_4_3_u04_r20_network.node[4].content_store 	decision_ratio[4] 	0.016642631640488
scalar tree_4_3_u04_r20_network.node[5].core_layer 	interests[5] 	35273
scalar tree_4_3_u04_r20_network.node[5].core_layer 	data[5] 	34104
scalar tree_4_3_u04_r20_network.node[5].content_store 	p_hit[5] 	0.033113146032376
scalar tree_4_3_u04_r20_network.node[5].content_store 	hits[5] 	1168
scalar tree_4_3_u04_r20_network.node[5].content_store 	misses[5] 	34105
scalar tree_4_3_u04_r20_network.node[5].content_store 	decision_yes[5] 	498
scalar tree_4_3_u04_r20_network.node[5].content_store 	decision_no[5] 	33606
scalar tree_4_3_u04_r20_network.node[5].content_store 	decision_ratio[5] 	0.01460239268121
scalar tree_4_3_u04_r20_network.node[6].core_layer 	interests[6] 	17558
scalar tree_4_3_u04_r20_network.node[6].core_layer 	data[6] 	17028
scalar tree_4_3_u04_r20_network.node[6].content_store 	p_hit[6] 	0.030185670349698
scalar tree_4_3_u04_r20_network.node[6].content_store 	hits[6] 	530
scalar tree_4_3_u04_r20_network.node[6].content_store 	misses[6] 	17028
scalar tree_4_3_u04_r20_network.node[6].content_store 	decision_yes[6] 	365
scalar tree_4_3_u04_r20_network.node[6].content_store 	decision_no[6] 	16663
scalar tree_4_3_u04_r20_network.node[6].content_store 	decision_ratio[6] 	0.02143528306319
scalar tree_4_3_u04_r20_network.node[7].core_layer 	interests[7] 	43731
scalar tree_4_3_u04_r20_network.node[7].core_layer 	data[7] 	42291
scalar tree_4_3_u04_r20_network.node[7].content_store 	p_hit[7] 	0.032859984907731
scalar tree_4_3_u04_r20_network.node[7].content_store 	hits[7] 	1437
scalar tree_4_3_u04_r20_network.node[7].content_store 	misses[7] 	42294
scalar tree_4_3_u04_r20_network.node[7].content_store 	decision_yes[7] 	688
scalar tree_4_3_u04_r20_network.node[7].content_store 	decision_no[7] 	41603
scalar tree_4_3_u04_r20_network.node[7].content_store 	decision_ratio[7] 	0.016268236740678
scalar tree_4_3_u04_r20_network.node[8].core_layer 	interests[8] 	26494
scalar tree_4_3_u04_r20_network.node[8].core_layer 	data[8] 	25577
scalar tree_4_3_u04_r20_network.node[8].content_store 	p_hit[8] 	0.034573865780932
scalar tree_4_3_u04_r20_network.node[8].content_store 	hits[8] 	916
scalar tree_4_3_u04_r20_network.node[8].content_store 	misses[8] 	25578
scalar tree_4_3_u04_r20_network.node[8].content_store 	decision_yes[8] 	551
scalar tree_4_3_u04_r20_network.node[8].content_store 	decision_no[8] 	25026
scalar tree_4_3_u04_r20_network.node[8].content_store 	decision_ratio[8] 	0.021542792352504
scalar tree_4_3_u04_r20_network.node[9].core_layer 	interests[9] 	8859
scalar tree_4_3_u04_r20_network.node[9].core_layer 	data[9] 	8601
scalar tree_4_3_u04_r20_network.node[9].content_store 	p_hit[9] 	0.029122925838131
scalar tree_4_3_u04_r20_network.node[9].content_store 	hits[9] 	258
scalar tree_4_3_u04_r20_network.node[9].content_store 	misses[9] 	8601
scalar tree_4_3_u04_r20_network.node[9].content_store 	decision_yes[9] 	213
scalar tree_4_3_u04_r20_network.node[9].content_store 	decision_no[9] 	8388
scalar tree_4_3_u04_r20_network.node[9].content_store 	decision_ratio[9] 	0.024764562260202
scalar tree_4_3_u04_r20_network.node[10].core_layer 	interests[10] 	35493
scalar tree_4_3_u04_r20_network.node[10].core_layer 	data[10] 	34478
scalar tree_4_3_u04_r20_network.node[10].content_store 	p_hit[10] 	0.028597188177951
scalar tree_4_3_u04_r20_network.node[10].content_store 	hits[10] 	1015
scalar tree_4_3_u04_r20_network.node[10].content_store 	misses[10] 	34478
scalar tree_4_3_u04_r20_network.node[10].content_store 	decision_yes[10] 	397
scalar tree_4_3_u04_r20_network.node[10].content_store 	decision_no[10] 	34081
scalar tree_4_3_u04_r20_network.node[10].content_store 	decision_ratio[10] 	0.011514589013284
scalar tree_4_3_u04_r20_network.node[11].core_layer 	interests[11] 	26428
scalar tree_4_3_u04_r20_network.node[11].core_layer 	data[11] 	25525
scalar tree_4_3_u04_r20_network.node[11].content_store 	p_hit[11] 	0.034168306341759
scalar tree_4_3_u04_r20_network.node[11].content_store 	hits[11] 	903
scalar tree_4_3_u04_r20_network.node[11].content_store 	misses[11] 	25525
scalar tree_4_3_u04_r20_network.node[11].content_store 	decision_yes[11] 	508
scalar tree_4_3_u04_r20_network.node[11].content_store 	decision_no[11] 	25017
scalar tree_4_3_u04_r20_network.node[11].content_store 	decision_ratio[11] 	0.019902056807052
scalar tree_4_3_u04_r20_network.node[12].core_layer 	interests[12] 	17698
scalar tree_4_3_u04_r20_network.node[12].core_layer 	data[12] 	17194
scalar tree_4_3_u04_r20_network.node[12].content_store 	p_hit[12] 	0.028477794101028
scalar tree_4_3_u04_r20_network.node[12].content_store 	hits[12] 	504
scalar tree_4_3_u04_r20_network.node[12].content_store 	misses[12] 	17194
scalar tree_4_3_u04_r20_network.node[12].content_store 	decision_yes[12] 	297
scalar tree_4_3_u04_r20_network.node[12].content_store 	decision_no[12] 	16897
scalar tree_4_3_u04_r20_network.node[12].content_store 	decision_ratio[12] 	0.017273467488659
scalar tree_4_3_u04_r20_network.node[13].core_layer 	interests[13] 	12158
scalar tree_4_3_u04_r20_network.node[13].core_layer 	data[13] 	8917
scalar tree_4_3_u04_r20_network.node[13].content_store 	p_hit[13] 	0.26657344958052
scalar tree_4_3_u04_r20_network.node[13].content_store 	hits[13] 	3241
scalar tree_4_3_u04_r20_network.node[13].content_store 	misses[13] 	8917
scalar tree_4_3_u04_r20_network.node[13].content_store 	decision_yes[13] 	275
scalar tree_4_3_u04_r20_network.node[13].content_store 	decision_no[13] 	8642
scalar tree_4_3_u04_r20_network.node[13].content_store 	decision_ratio[13] 	0.030839968599305
scalar tree_4_3_u04_r20_network.node[14].core_layer 	interests[14] 	11918
scalar tree_4_3_u04_r20_network.node[14].core_layer 	data[14] 	8667
scalar tree_4_3_u04_r20_network.node[14].content_store 	p_hit[14] 	0.2727806678973
scalar tree_4_3_u04_r20_network.node[14].content_store 	hits[14] 	3251
scalar tree_4_3_u04_r20_network.node[14].content_store 	misses[14] 	8667
scalar tree_4_3_u04_r20_network.node[14].content_store 	decision_yes[14] 	262
scalar tree_4_3_u04_r20_network.node[14].content_store 	decision_no[14] 	8405
scalar tree_4_3_u04_r20_network.node[14].content_store 	decision_ratio[14] 	0.030229606553594
scalar tree_4_3_u04_r20_network.node[15].core_layer 	interests[15] 	11971
scalar tree_4_3_u04_r20_network.node[15].core_layer 	data[15] 	8868
scalar tree_4_3_u04_r20_network.node[15].content_store 	p_hit[15] 	0.25912622170245
scalar tree_4_3_u04_r20_network.node[15].content_store 	hits[15] 	3102
scalar tree_4_3_u04_r20_network.node[15].content_store 	misses[15] 	8869
scalar tree_4_3_u04_r20_network.node[15].content_store 	decision_yes[15] 	258
scalar tree_4_3_u04_r20_network.node[15].content_store 	decision_no[15] 	8610
scalar tree_4_3_u04_r20_network.node[15].content_store 	decision_ratio[15] 	0.029093369418133
scalar tree_4_3_u04_r20_network.node[16].core_layer 	interests[16] 	11976
scalar tree_4_3_u04_r20_network.node[16].core_layer 	data[16] 	8770
scalar tree_4_3_u04_r20_network.node[16].content_store 	p_hit[16] 	0.26770207080828
scalar tree_4_3_u04_r20_network.node[16].content_store 	hits[16] 	3206
scalar tree_4_3_u04_r20_network.node[16].content_store 	misses[16] 	8770
scalar tree_4_3_u04_r20_network.node[16].content_store 	decision_yes[16] 	309
scalar tree_4_3_u04_r20_network.node[16].content_store 	decision_no[16] 	8461
scalar tree_4_3_u04_r20_network.node[16].content_store 	decision_ratio[16] 	0.035233751425314
scalar tree_4_3_u04_r20_network.node[17].core_layer 	interests[17] 	11870
scalar tree_4_3_u04_r20_network.node[17].core_layer 	data[17] 	8705
scalar tree_4_3_u04_r20_network.node[17].content_store 	p_hit[17] 	0.26663858466723
scalar tree_4_3_u04_r20_network.node[17].content_store 	hits[17] 	3165
scalar tree_4_3_u04_r20_network.node[17].content_store 	misses[17] 	8705
scalar tree_4_3_u04_r20_network.node[17].content_store 	decision_yes[17] 	272
scalar tree_4_3_u04_r20_network.node[17].content_store 	decision_no[17] 	8433
scalar tree_4_3_u04_r20_network.node[17].content_store 	decision_ratio[17] 	0.031246410109133
scalar tree_4_3_u04_r20_network.node[18].core_layer 	interests[18] 	11922
scalar tree_4_3_u04_r20_network.node[18].core_layer 	data[18] 	8833
scalar tree_4_3_u04_r20_network.node[18].content_store 	p_hit[18] 	0.25910082200973
scalar tree_4_3_u04_r20_network.node[18].content_store 	hits[18] 	3089
scalar tree_4_3_u04_r20_network.node[18].content_store 	misses[18] 	8833
scalar tree_4_3_u04_r20_network.node[18].content_store 	decision_yes[18] 	305
scalar tree_4_3_u04_r20_network.node[18].content_store 	decision_no[18] 	8528
scalar tree_4_3_u04_r20_network.node[18].content_store 	decision_ratio[18] 	0.034529604890751
scalar tree_4_3_u04_r20_network.node[19].core_layer 	interests[19] 	12059
scalar tree_4_3_u04_r20_network.node[19].core_layer 	data[19] 	8873
scalar tree_4_3_u04_r20_network.node[19].content_store 	p_hit[19] 	0.26420101169251
scalar tree_4_3_u04_r20_network.node[19].content_store 	hits[19] 	3186
scalar tree_4_3_u04_r20_network.node[19].content_store 	misses[19] 	8873
scalar tree_4_3_u04_r20_network.node[19].content_store 	decision_yes[19] 	277
scalar tree_4_3_u04_r20_network.node[19].content_store 	decision_no[19] 	8596
scalar tree_4_3_u04_r20_network.node[19].content_store 	decision_ratio[19] 	0.031218302716105
scalar tree_4_3_u04_r20_network.node[20].core_layer 	interests[20] 	12154
scalar tree_4_3_u04_r20_network.node[20].core_layer 	data[20] 	8965
scalar tree_4_3_u04_r20_network.node[20].content_store 	p_hit[20] 	0.26238275464868
scalar tree_4_3_u04_r20_network.node[20].content_store 	hits[20] 	3189
scalar tree_4_3_u04_r20_network.node[20].content_store 	misses[20] 	8965
scalar tree_4_3_u04_r20_network.node[20].content_store 	decision_yes[20] 	282
scalar tree_4_3_u04_r20_network.node[20].content_store 	decision_no[20] 	8683
scalar tree_4_3_u04_r20_network.node[20].content_store 	decision_ratio[20] 	0.031455660903514
scalar tree_4_3_u04_r20_network.node[21].core_layer 	interests[21] 	12055
scalar tree_4_3_u04_r20_network.node[21].core_layer 	data[21] 	8685
scalar tree_4_3_u04_r20_network.node[21].content_store 	p_hit[21] 	0.27946909995852
scalar tree_4_3_u04_r20_network.node[21].content_store 	hits[21] 	3369
scalar tree_4_3_u04_r20_network.node[21].content_store 	misses[21] 	8686
scalar tree_4_3_u04_r20_network.node[21].content_store 	decision_yes[21] 	253
scalar tree_4_3_u04_r20_network.node[21].content_store 	decision_no[21] 	8432
scalar tree_4_3_u04_r20_network.node[21].content_store 	decision_ratio[21] 	0.029130685089234
scalar tree_4_3_u04_r20_network.node[22].core_layer 	interests[22] 	11819
scalar tree_4_3_u04_r20_network.node[22].core_layer 	data[22] 	8725
scalar tree_4_3_u04_r20_network.node[22].content_store 	p_hit[22] 	0.26178187663931
scalar tree_4_3_u04_r20_network.node[22].content_store 	hits[22] 	3094
scalar tree_4_3_u04_r20_network.node[22].content_store 	misses[22] 	8725
scalar tree_4_3_u04_r20_network.node[22].content_store 	decision_yes[22] 	280
scalar tree_4_3_u04_r20_network.node[22].content_store 	decision_no[22] 	8445
scalar tree_4_3_u04_r20_network.node[22].content_store 	decision_ratio[22] 	0.032091690544413
scalar tree_4_3_u04_r20_network.node[23].core_layer 	interests[23] 	11911
scalar tree_4_3_u04_r20_network.node[23].core_layer 	data[23] 	8622
scalar tree_4_3_u04_r20_network.node[23].content_store 	p_hit[23] 	0.27621526320208
scalar tree_4_3_u04_r20_network.node[23].content_store 	hits[23] 	3290
scalar tree_4_3_u04_r20_network.node[23].content_store 	misses[23] 	8621
scalar tree_4_3_u04_r20_network.node[23].content_store 	decision_yes[23] 	293
scalar tree_4_3_u04_r20_network.node[23].content_store 	decision_no[23] 	8329
scalar tree_4_3_u04_r20_network.node[23].content_store 	decision_ratio[23] 	0.033982834609139
scalar tree_4_3_u04_r20_network.node[24].core_layer 	interests[24] 	12051
scalar tree_4_3_u04_r20_network.node[24].core_layer 	data[24] 	8942
scalar tree_4_3_u04_r20_network.node[24].content_store 	p_hit[24] 	0.25782092772384
scalar tree_4_3_u04_r20_network.node[24].content_store 	hits[24] 	3107
scalar tree_4_3_u04_r20_network.node[24].content_store 	misses[24] 	8944
scalar tree_4_3_u04_r20_network.node[24].content_store 	decision_yes[24] 	311
scalar tree_4_3_u04_r20_network.node[24].content_store 	decision_no[24] 	8631
scalar tree_4_3_u04_r20_network.node[24].content_store 	decision_ratio[24] 	0.034779691344218
scalar tree_4_3_u04_r20_network.node[25].core_layer 	interests[25] 	12066
scalar tree_4_3_u04_r20_network.node[25].core_layer 	data[25] 	8853
scalar tree_4_3_u04_r20_network.node[25].content_store 	p_hit[25] 	0.26628543013426
scalar tree_4_3_u04_r20_network.node[25].content_store 	hits[25] 	3213
scalar tree_4_3_u04_r20_network.node[25].content_store 	misses[25] 	8853
scalar tree_4_3_u04_r20_network.node[25].content_store 	decision_yes[25] 	278
scalar tree_4_3_u04_r20_network.node[25].content_store 	decision_no[25] 	8575
scalar tree_4_3_u04_r20_network.node[25].content_store 	decision_ratio[25] 	0.031401784705749
scalar tree_4_3_u04_r20_network.node[26].core_layer 	interests[26] 	12099
scalar tree_4_3_u04_r20_network.node[26].core_layer 	data[26] 	8910
scalar tree_4_3_u04_r20_network.node[26].content_store 	p_hit[26] 	0.26349285064881
scalar tree_4_3_u04_r20_network.node[26].content_store 	hits[26] 	3188
scalar tree_4_3_u04_r20_network.node[26].content_store 	misses[26] 	8911
scalar tree_4_3_u04_r20_network.node[26].content_store 	decision_yes[26] 	303
scalar tree_4_3_u04_r20_network.node[26].content_store 	decision_no[26] 	8607
scalar tree_4_3_u04_r20_network.node[26].content_store 	decision_ratio[26] 	0.034006734006734
scalar tree_4_3_u04_r20_network.node[27].core_layer 	interests[27] 	11923
scalar tree_4_3_u04_r20_network.node[27].core_layer 	data[27] 	8835
scalar tree_4_3_u04_r20_network.node[27].content_store 	p_hit[27] 	0.25891134781515
scalar tree_4_3_u04_r20_network.node[27].content_store 	hits[27] 	3087
scalar tree_4_3_u04_r20_network.node[27].content_store 	misses[27] 	8836
scalar tree_4_3_u04_r20_network.node[27].content_store 	decision_yes[27] 	325
scalar tree_4_3_u04_r20_network.node[27].content_store 	decision_no[27] 	8510
scalar tree_4_3_u04_r20_network.node[27].content_store 	decision_ratio[27] 	0.036785512167516
scalar tree_4_3_u04_r20_network.node[28].core_layer 	interests[28] 	11810
scalar tree_4_3_u04_r20_network.node[28].core_layer 	data[28] 	8588
scalar tree_4_3_u04_r20_network.node[28].content_store 	p_hit[28] 	0.27281964436918
scalar tree_4_3_u04_r20_network.node[28].content_store 	hits[28] 	3222
scalar tree_4_3_u04_r20_network.node[28].content_store 	misses[28] 	8588
scalar tree_4_3_u04_r20_network.node[28].content_store 	decision_yes[28] 	275
scalar tree_4_3_u04_r20_network.node[28].content_store 	decision_no[28] 	8313
scalar tree_4_3_u04_r20_network.node[28].content_store 	decision_ratio[28] 	0.032021425244527
scalar tree_4_3_u04_r20_network.node[29].core_layer 	interests[29] 	11934
scalar tree_4_3_u04_r20_network.node[29].core_layer 	data[29] 	8749
scalar tree_4_3_u04_r20_network.node[29].content_store 	p_hit[29] 	0.2670521199933
scalar tree_4_3_u04_r20_network.node[29].content_store 	hits[29] 	3187
scalar tree_4_3_u04_r20_network.node[29].content_store 	misses[29] 	8747
scalar tree_4_3_u04_r20_network.node[29].content_store 	decision_yes[29] 	288
scalar tree_4_3_u04_r20_network.node[29].content_store 	decision_no[29] 	8461
scalar tree_4_3_u04_r20_network.node[29].content_store 	decision_ratio[29] 	0.032918047776889
scalar tree_4_3_u04_r20_network.node[30].core_layer 	interests[30] 	12119
scalar tree_4_3_u04_r20_network.node[30].core_layer 	data[30] 	8859
scalar tree_4_3_u04_r20_network.node[30].content_store 	p_hit[30] 	0.26899909233435
scalar tree_4_3_u04_r20_network.node[30].content_store 	hits[30] 	3260
scalar tree_4_3_u04_r20_network.node[30].content_store 	misses[30] 	8859
scalar tree_4_3_u04_r20_network.node[30].content_store 	decision_yes[30] 	258
scalar tree_4_3_u04_r20_network.node[30].content_store 	decision_no[30] 	8601
scalar tree_4_3_u04_r20_network.node[30].content_store 	decision_ratio[30] 	0.029122925838131
scalar tree_4_3_u04_r20_network.node[31].core_layer 	interests[31] 	12092
scalar tree_4_3_u04_r20_network.node[31].core_layer 	data[31] 	8926
scalar tree_4_3_u04_r20_network.node[31].content_store 	p_hit[31] 	0.26182600066159
scalar tree_4_3_u04_r20_network.node[31].content_store 	hits[31] 	3166
scalar tree_4_3_u04_r20_network.node[31].content_store 	misses[31] 	8926
scalar tree_4_3_u04_r20_network.node[31].content_store 	decision_yes[31] 	246
scalar tree_4_3_u04_r20_network.node[31].content_store 	decision_no[31] 	8680
scalar tree_4_3_u04_r20_network.node[31].content_store 	decision_ratio[31] 	0.027559937261931
scalar tree_4_3_u04_r20_network.node[32].core_layer 	interests[32] 	12042
scalar tree_4_3_u04_r20_network.node[32].core_layer 	data[32] 	8811
scalar tree_4_3_u04_r20_network.node[32].content_store 	p_hit[32] 	0.26831091180867
scalar tree_4_3_u04_r20_network.node[32].content_store 	hits[32] 	3231
scalar tree_4_3_u04_r20_network.node[32].content_store 	misses[32] 	8811
scalar tree_4_3_u04_r20_network.node[32].content_store 	decision_yes[32] 	239
scalar tree_4_3_u04_r20_network.node[32].content_store 	decision_no[32] 	8572
scalar tree_4_3_u04_r20_network.node[32].content_store 	decision_ratio[32] 	0.027125184428555
scalar tree_4_3_u04_r20_network.node[33].core_layer 	interests[33] 	12026
scalar tree_4_3_u04_r20_network.node[33].core_layer 	data[33] 	8829
scalar tree_4_3_u04_r20_network.node[33].content_store 	p_hit[33] 	0.26575752536172
scalar tree_4_3_u04_r20_network.node[33].content_store 	hits[33] 	3196
scalar tree_4_3_u04_r20_network.node[33].content_store 	misses[33] 	8830
scalar tree_4_3_u04_r20_network.node[33].content_store 	decision_yes[33] 	271
scalar tree_4_3_u04_r20_network.node[33].content_store 	decision_no[33] 	8558
scalar tree_4_3_u04_r20_network.node[33].content_store 	decision_ratio[33] 	0.030694302865557
scalar tree_4_3_u04_r20_network.node[34].core_layer 	interests[34] 	11960
scalar tree_4_3_u04_r20_network.node[34].core_layer 	data[34] 	8822
scalar tree_4_3_u04_r20_network.node[34].content_store 	p_hit[34] 	0.2623745819398
scalar tree_4_3_u04_r20_network.node[34].content_store 	hits[34] 	3138
scalar tree_4_3_u04_r20_network.node[34].content_store 	misses[34] 	8822
scalar tree_4_3_u04_r20_network.node[34].content_store 	decision_yes[34] 	305
scalar tree_4_3_u04_r20_network.node[34].content_store 	decision_no[34] 	8517
scalar tree_4_3_u04_r20_network.node[34].content_store 	decision_ratio[34] 	0.034572659260939
scalar tree_4_3_u04_r20_network.node[35].core_layer 	interests[35] 	11972
scalar tree_4_3_u04_r20_network.node[35].core_layer 	data[35] 	8823
scalar tree_4_3_u04_r20_network.node[35].content_store 	p_hit[35] 	0.26303040427665
scalar tree_4_3_u04_r20_network.node[35].content_store 	hits[35] 	3149
scalar tree_4_3_u04_r20_network.node[35].content_store 	misses[35] 	8823
scalar tree_4_3_u04_r20_network.node[35].content_store 	decision_yes[35] 	301
scalar tree_4_3_u04_r20_network.node[35].content_store 	decision_no[35] 	8522
scalar tree_4_3_u04_r20_network.node[35].content_store 	decision_ratio[35] 	0.034115380256149
scalar tree_4_3_u04_r20_network.node[36].core_layer 	interests[36] 	11955
scalar tree_4_3_u04_r20_network.node[36].core_layer 	data[36] 	8783
scalar tree_4_3_u04_r20_network.node[36].content_store 	p_hit[36] 	0.26532831451276
scalar tree_4_3_u04_r20_network.node[36].content_store 	hits[36] 	3172
scalar tree_4_3_u04_r20_network.node[36].content_store 	misses[36] 	8783
scalar tree_4_3_u04_r20_network.node[36].content_store 	decision_yes[36] 	297
scalar tree_4_3_u04_r20_network.node[36].content_store 	decision_no[36] 	8486
scalar tree_4_3_u04_r20_network.node[36].content_store 	decision_ratio[36] 	0.033815325059775
scalar tree_4_3_u04_r20_network.node[37].core_layer 	interests[37] 	12134
scalar tree_4_3_u04_r20_network.node[37].core_layer 	data[37] 	8926
scalar tree_4_3_u04_r20_network.node[37].content_store 	p_hit[37] 	0.26438107796275
scalar tree_4_3_u04_r20_network.node[37].content_store 	hits[37] 	3208
scalar tree_4_3_u04_r20_network.node[37].content_store 	misses[37] 	8926
scalar tree_4_3_u04_r20_network.node[37].content_store 	decision_yes[37] 	259
scalar tree_4_3_u04_r20_network.node[37].content_store 	decision_no[37] 	8667
scalar tree_4_3_u04_r20_network.node[37].content_store 	decision_ratio[37] 	0.029016356710733
scalar tree_4_3_u04_r20_network.node[38].core_layer 	interests[38] 	12121
scalar tree_4_3_u04_r20_network.node[38].core_layer 	data[38] 	8922
scalar tree_4_3_u04_r20_network.node[38].content_store 	p_hit[38] 	0.26392211863708
scalar tree_4_3_u04_r20_network.node[38].content_store 	hits[38] 	3199
scalar tree_4_3_u04_r20_network.node[38].content_store 	misses[38] 	8922
scalar tree_4_3_u04_r20_network.node[38].content_store 	decision_yes[38] 	255
scalar tree_4_3_u04_r20_network.node[38].content_store 	decision_no[38] 	8667
scalar tree_4_3_u04_r20_network.node[38].content_store 	decision_ratio[38] 	0.028581035642233
scalar tree_4_3_u04_r20_network.node[39].core_layer 	interests[39] 	11908
scalar tree_4_3_u04_r20_network.node[39].core_layer 	data[39] 	8776
scalar tree_4_3_u04_r20_network.node[39].content_store 	p_hit[39] 	0.26301645952301
scalar tree_4_3_u04_r20_network.node[39].content_store 	hits[39] 	3132
scalar tree_4_3_u04_r20_network.node[39].content_store 	misses[39] 	8776
scalar tree_4_3_u04_r20_network.node[39].content_store 	decision_yes[39] 	249
scalar tree_4_3_u04_r20_network.node[39].content_store 	decision_no[39] 	8527
scalar tree_4_3_u04_r20_network.node[39].content_store 	decision_ratio[39] 	0.028372835004558
scalar tree_4_3_u04_r20_network.client[13] 	hdistance[13] 	2.8388715249219
scalar tree_4_3_u04_r20_network.client[13] 	downloads[13] 	12158
scalar tree_4_3_u04_r20_network.client[13] 	avg_time[13] 	0.004289847266
scalar tree_4_3_u04_r20_network.client[14] 	hdistance[14] 	2.8109582144655
scalar tree_4_3_u04_r20_network.client[14] 	downloads[14] 	11918
scalar tree_4_3_u04_r20_network.client[14] 	avg_time[14] 	0.004250374593
scalar tree_4_3_u04_r20_network.client[15] 	hdistance[15] 	2.8650793650794
scalar tree_4_3_u04_r20_network.client[15] 	downloads[15] 	11970
scalar tree_4_3_u04_r20_network.client[15] 	avg_time[15] 	0.004332996155
scalar tree_4_3_u04_r20_network.client[16] 	hdistance[16] 	2.8236472945892
scalar tree_4_3_u04_r20_network.client[16] 	downloads[16] 	11976
scalar tree_4_3_u04_r20_network.client[16] 	avg_time[16] 	0.004267755746
scalar tree_4_3_u04_r20_network.client[17] 	hdistance[17] 	2.836899747262
scalar tree_4_3_u04_r20_network.client[17] 	downloads[17] 	11870
scalar tree_4_3_u04_r20_network.client[17] 	avg_time[17] 	0.004287612861
scalar tree_4_3_u04_r20_network.client[18] 	hdistance[18] 	2.8574064754236
scalar tree_4_3_u04_r20_network.client[18] 	downloads[18] 	11922
scalar tree_4_3_u04_r20_network.client[18] 	avg_time[18] 	0.004321419589
scalar tree_4_3_u04_r20_network.client[19] 	hdistance[19] 	2.8372999419521
scalar tree_4_3_u04_r20_network.client[19] 	downloads[19] 	12059
scalar tree_4_3_u04_r20_network.client[19] 	avg_time[19] 	0.004292890237
scalar tree_4_3_u04_r20_network.client[20] 	hdistance[20] 	2.8565081454665
scalar tree_4_3_u04_r20_network.client[20] 	downloads[20] 	12154
scalar tree_4_3_u04_r20_network.client[20] 	avg_time[20] 	0.004314955035
scalar tree_4_3_u04_r20_network.client[21] 	hdistance[21] 	2.7814833250373
scalar tree_4_3_u04_r20_network.client[21] 	downloads[21] 	12054
scalar tree_4_3_u04_r20_network.client[21] 	avg_time[21] 	0.004208352631
scalar tree_4_3_u04_r20_network.client[22] 	hdistance[22] 	2.8545562230307
scalar tree_4_3_u04_r20_network.client[22] 	downloads[22] 	11819
scalar tree_4_3_u04_r20_network.client[22] 	avg_time[22] 	0.004313390748
scalar tree_4_3_u04_r20_network.client[23] 	hdistance[23] 	2.7904633982539
scalar tree_4_3_u04_r20_network.client[23] 	downloads[23] 	11912
scalar tree_4_3_u04_r20_network.client[23] 	avg_time[23] 	0.004220447012
scalar tree_4_3_u04_r20_network.client[24] 	hdistance[24] 	2.8613992862478
scalar tree_4_3_u04_r20_network.client[24] 	downloads[24] 	12049
scalar tree_4_3_u04_r20_network.client[24] 	avg_time[24] 	0.004327065876
scalar tree_4_3_u04_r20_network.client[25] 	hdistance[25] 	2.8355710260235
scalar tree_4_3_u04_r20_network.client[25] 	downloads[25] 	12066
scalar tree_4_3_u04_r20_network.client[25] 	avg_time[25] 	0.004285864705
scalar tree_4_3_u04_r20_network.client[26] 	hdistance[26] 	2.8300545544718
scalar tree_4_3_u04_r20_network.client[26] 	downloads[26] 	12098
scalar tree_4_3_u04_r20_network.client[26] 	avg_time[26] 	0.004285664016
scalar tree_4_3_u04_r20_network.client[27] 	hdistance[27] 	2.8445730582117
scalar tree_4_3_u04_r20_network.client[27] 	downloads[27] 	11922
scalar tree_4_3_u04_r20_network.client[27] 	avg_time[27] 	0.004307785966
scalar tree_4_3_u04_r20_network.client[28] 	hdistance[28] 	2.8079593564776
scalar tree_4_3_u04_r20_network.client[28] 	downloads[28] 	11810
scalar tree_4_3_u04_r20_network.client[28] 	avg_time[28] 	0.004246398394
scalar tree_4_3_u04_r20_network.client[29] 	hdistance[29] 	2.8223022788204
scalar tree_4_3_u04_r20_network.client[29] 	downloads[29] 	11936
scalar tree_4_3_u04_r20_network.client[29] 	avg_time[29] 	0.004272114978
scalar tree_4_3_u04_r20_network.client[30] 	hdistance[30] 	2.8184668702038
scalar tree_4_3_u04_r20_network.client[30] 	downloads[30] 	12119
scalar tree_4_3_u04_r20_network.client[30] 	avg_time[30] 	0.00426569547
scalar tree_4_3_u04_r20_network.client[31] 	hdistance[31] 	2.8655309295402
scalar tree_4_3_u04_r20_network.client[31] 	downloads[31] 	12092
scalar tree_4_3_u04_r20_network.client[31] 	avg_time[31] 	0.004329305601
scalar tree_4_3_u04_r20_network.client[32] 	hdistance[32] 	2.8428832419864
scalar tree_4_3_u04_r20_network.client[32] 	downloads[32] 	12042
scalar tree_4_3_u04_r20_network.client[32] 	avg_time[32] 	0.004293635918
scalar tree_4_3_u04_r20_network.client[33] 	hdistance[33] 	2.8468191268191
scalar tree_4_3_u04_r20_network.client[33] 	downloads[33] 	12025
scalar tree_4_3_u04_r20_network.client[33] 	avg_time[33] 	0.004299373281
scalar tree_4_3_u04_r20_network.client[34] 	hdistance[34] 	2.8377090301003
scalar tree_4_3_u04_r20_network.client[34] 	downloads[34] 	11960
scalar tree_4_3_u04_r20_network.client[34] 	avg_time[34] 	0.004294813068
scalar tree_4_3_u04_r20_network.client[35] 	hdistance[35] 	2.8368693618443
scalar tree_4_3_u04_r20_network.client[35] 	downloads[35] 	11972
scalar tree_4_3_u04_r20_network.client[35] 	avg_time[35] 	0.004291844648
scalar tree_4_3_u04_r20_network.client[36] 	hdistance[36] 	2.8306984525303
scalar tree_4_3_u04_r20_network.client[36] 	downloads[36] 	11955
scalar tree_4_3_u04_r20_network.client[36] 	avg_time[36] 	0.004282054752
scalar tree_4_3_u04_r20_network.client[37] 	hdistance[37] 	2.8569309378606
scalar tree_4_3_u04_r20_network.client[37] 	downloads[37] 	12134
scalar tree_4_3_u04_r20_network.client[37] 	avg_time[37] 	0.004313825854
scalar tree_4_3_u04_r20_network.client[38] 	hdistance[38] 	2.853889943074
scalar tree_4_3_u04_r20_network.client[38] 	downloads[38] 	12121
scalar tree_4_3_u04_r20_network.client[38] 	avg_time[38] 	0.004310862385
scalar tree_4_3_u04_r20_network.client[39] 	hdistance[39] 	2.8500167954316
scalar tree_4_3_u04_r20_network.client[39] 	downloads[39] 	11908
scalar tree_4_3_u04_r20_network.client[39] 	avg_time[39] 	0.004310208619
