version 2
run General-95-20160820-08:27:44-856
attr a 0.9
attr cd lcd
attr configname General
attr cr lru
attr datetime 20160820-08:27:44
attr experiment General
attr fsize 1
attr inifile hw5115/scenario_A/SPR-LCD.ini
attr iterationvars "$name=tree_4_3, $un=04, $rep=16, $cd=lcd, $cr=lru, $fsize=1, $a=0.9, $sl=spr, $ttl=1000, $variance=0.05"
attr iterationvars2 "$name=tree_4_3, $un=04, $rep=16, $cd=lcd, $cr=lru, $fsize=1, $a=0.9, $sl=spr, $ttl=1000, $variance=0.05, $repetition=0"
attr measurement "$name=tree_4_3, $un=04, $rep=16, $cd=lcd, $cr=lru, $fsize=1, $a=0.9, $sl=spr, $ttl=1000, $variance=0.05"
attr name tree_4_3
attr network networks.${name}_u${un}_r${rep}_network
attr processid 856
attr rep 16
attr repetition 0
attr replication #0
attr resultdir results
attr runnumber 95
attr seedset 16
attr sl spr
attr ttl 1000
attr un 04
attr variance 0.05

scalar . 	a 	0.9
scalar . 	fsize 	1
scalar . 	rep 	16
scalar . 	ttl 	1000
scalar . 	un 	04
scalar . 	variance 	0.05
scalar tree_4_3_u04_r16_network.content_distribution 	repo-0 	0
scalar tree_4_3_u04_r16_network.content_distribution 	client-0 	13
scalar tree_4_3_u04_r16_network.content_distribution 	client-1 	14
scalar tree_4_3_u04_r16_network.content_distribution 	client-2 	15
scalar tree_4_3_u04_r16_network.content_distribution 	client-3 	16
scalar tree_4_3_u04_r16_network.content_distribution 	client-4 	17
scalar tree_4_3_u04_r16_network.content_distribution 	client-5 	18
scalar tree_4_3_u04_r16_network.content_distribution 	client-6 	19
scalar tree_4_3_u04_r16_network.content_distribution 	client-7 	20
scalar tree_4_3_u04_r16_network.content_distribution 	client-8 	21
scalar tree_4_3_u04_r16_network.content_distribution 	client-9 	22
scalar tree_4_3_u04_r16_network.content_distribution 	client-10 	23
scalar tree_4_3_u04_r16_network.content_distribution 	client-11 	24
scalar tree_4_3_u04_r16_network.content_distribution 	client-12 	25
scalar tree_4_3_u04_r16_network.content_distribution 	client-13 	26
scalar tree_4_3_u04_r16_network.content_distribution 	client-14 	27
scalar tree_4_3_u04_r16_network.content_distribution 	client-15 	28
scalar tree_4_3_u04_r16_network.content_distribution 	client-16 	29
scalar tree_4_3_u04_r16_network.content_distribution 	client-17 	30
scalar tree_4_3_u04_r16_network.content_distribution 	client-18 	31
scalar tree_4_3_u04_r16_network.content_distribution 	client-19 	32
scalar tree_4_3_u04_r16_network.content_distribution 	client-20 	33
scalar tree_4_3_u04_r16_network.content_distribution 	client-21 	34
scalar tree_4_3_u04_r16_network.content_distribution 	client-22 	35
scalar tree_4_3_u04_r16_network.content_distribution 	client-23 	36
scalar tree_4_3_u04_r16_network.content_distribution 	client-24 	37
scalar tree_4_3_u04_r16_network.content_distribution 	client-25 	38
scalar tree_4_3_u04_r16_network.content_distribution 	client-26 	39
scalar tree_4_3_u04_r16_network.content_distribution 	repo-0_card 	100000
scalar tree_4_3_u04_r16_network.content_distribution 	repo-0_price 	0
scalar tree_4_3_u04_r16_network.statistics 	stabilization_time 	1054.6
scalar tree_4_3_u04_r16_network.statistics 	p_hit 	0.18722218105609
scalar tree_4_3_u04_r16_network.statistics 	interests 	25491.025
scalar tree_4_3_u04_r16_network.statistics 	data 	17389.375
scalar tree_4_3_u04_r16_network.statistics 	hdistance 	2.8389155000228
scalar tree_4_3_u04_r16_network.statistics 	avg_time 	0.004292861341
scalar tree_4_3_u04_r16_network.statistics 	downloads 	324058
scalar tree_4_3_u04_r16_network.statistics 	total_cost 	0
scalar tree_4_3_u04_r16_network.statistics 	total_replicas 	100000
scalar tree_4_3_u04_r16_network.statistics 	inner_hit 	0.3075683982497
scalar tree_4_3_u04_r16_network.node[0].core_layer 	interests[0] 	226578
scalar tree_4_3_u04_r16_network.node[0].core_layer 	repo_load[0] 	224388
scalar tree_4_3_u04_r16_network.node[0].core_layer 	data[0] 	0
scalar tree_4_3_u04_r16_network.node[0].core_layer 	repo_int[0] 	224388
scalar tree_4_3_u04_r16_network.node[0].content_store 	p_hit[0] 	0.0096655456399121
scalar tree_4_3_u04_r16_network.node[0].content_store 	hits[0] 	2190
scalar tree_4_3_u04_r16_network.node[0].content_store 	misses[0] 	224388
scalar tree_4_3_u04_r16_network.node[0].content_store 	decision_yes[0] 	224388
scalar tree_4_3_u04_r16_network.node[0].content_store 	decision_no[0] 	0
scalar tree_4_3_u04_r16_network.node[0].content_store 	decision_ratio[0] 	1
scalar tree_4_3_u04_r16_network.node[1].core_layer 	interests[1] 	110593
scalar tree_4_3_u04_r16_network.node[1].core_layer 	data[1] 	108371
scalar tree_4_3_u04_r16_network.node[1].content_store 	p_hit[1] 	0.020064561048168
scalar tree_4_3_u04_r16_network.node[1].content_store 	hits[1] 	2219
scalar tree_4_3_u04_r16_network.node[1].content_store 	misses[1] 	108374
scalar tree_4_3_u04_r16_network.node[1].content_store 	decision_yes[1] 	1034
scalar tree_4_3_u04_r16_network.node[1].content_store 	decision_no[1] 	107337
scalar tree_4_3_u04_r16_network.node[1].content_store 	decision_ratio[1] 	0.0095412979487132
scalar tree_4_3_u04_r16_network.node[2].core_layer 	interests[2] 	77463
scalar tree_4_3_u04_r16_network.node[2].core_layer 	data[2] 	76136
scalar tree_4_3_u04_r16_network.node[2].content_store 	p_hit[2] 	0.01710494042317
scalar tree_4_3_u04_r16_network.node[2].content_store 	hits[2] 	1325
scalar tree_4_3_u04_r16_network.node[2].content_store 	misses[2] 	76138
scalar tree_4_3_u04_r16_network.node[2].content_store 	decision_yes[2] 	735
scalar tree_4_3_u04_r16_network.node[2].content_store 	decision_no[2] 	75401
scalar tree_4_3_u04_r16_network.node[2].content_store 	decision_ratio[2] 	0.0096537774508774
scalar tree_4_3_u04_r16_network.node[3].core_layer 	interests[3] 	42660
scalar tree_4_3_u04_r16_network.node[3].core_layer 	data[3] 	42072
scalar tree_4_3_u04_r16_network.node[3].content_store 	p_hit[3] 	0.01375996249414
scalar tree_4_3_u04_r16_network.node[3].content_store 	hits[3] 	587
scalar tree_4_3_u04_r16_network.node[3].content_store 	misses[3] 	42073
scalar tree_4_3_u04_r16_network.node[3].content_store 	decision_yes[3] 	421
scalar tree_4_3_u04_r16_network.node[3].content_store 	decision_no[3] 	41651
scalar tree_4_3_u04_r16_network.node[3].content_store 	decision_ratio[3] 	0.010006655257654
scalar tree_4_3_u04_r16_network.node[4].core_layer 	interests[4] 	35329
scalar tree_4_3_u04_r16_network.node[4].core_layer 	data[4] 	34052
scalar tree_4_3_u04_r16_network.node[4].content_store 	p_hit[4] 	0.036117637068697
scalar tree_4_3_u04_r16_network.node[4].content_store 	hits[4] 	1276
scalar tree_4_3_u04_r16_network.node[4].content_store 	misses[4] 	34053
scalar tree_4_3_u04_r16_network.node[4].content_store 	decision_yes[4] 	611
scalar tree_4_3_u04_r16_network.node[4].content_store 	decision_no[4] 	33441
scalar tree_4_3_u04_r16_network.node[4].content_store 	decision_ratio[4] 	0.017943145777047
scalar tree_4_3_u04_r16_network.node[5].core_layer 	interests[5] 	17626
scalar tree_4_3_u04_r16_network.node[5].core_layer 	data[5] 	17082
scalar tree_4_3_u04_r16_network.node[5].content_store 	p_hit[5] 	0.030863497106547
scalar tree_4_3_u04_r16_network.node[5].content_store 	hits[5] 	544
scalar tree_4_3_u04_r16_network.node[5].content_store 	misses[5] 	17082
scalar tree_4_3_u04_r16_network.node[5].content_store 	decision_yes[5] 	429
scalar tree_4_3_u04_r16_network.node[5].content_store 	decision_no[5] 	16653
scalar tree_4_3_u04_r16_network.node[5].content_store 	decision_ratio[5] 	0.025114155251142
scalar tree_4_3_u04_r16_network.node[6].core_layer 	interests[6] 	26452
scalar tree_4_3_u04_r16_network.node[6].core_layer 	data[6] 	25555
scalar tree_4_3_u04_r16_network.node[6].content_store 	p_hit[6] 	0.033910479358839
scalar tree_4_3_u04_r16_network.node[6].content_store 	hits[6] 	897
scalar tree_4_3_u04_r16_network.node[6].content_store 	misses[6] 	25555
scalar tree_4_3_u04_r16_network.node[6].content_store 	decision_yes[6] 	540
scalar tree_4_3_u04_r16_network.node[6].content_store 	decision_no[6] 	25015
scalar tree_4_3_u04_r16_network.node[6].content_store 	decision_ratio[6] 	0.021130894149873
scalar tree_4_3_u04_r16_network.node[7].core_layer 	interests[7] 	35102
scalar tree_4_3_u04_r16_network.node[7].core_layer 	data[7] 	33903
scalar tree_4_3_u04_r16_network.node[7].content_store 	p_hit[7] 	0.034157597857672
scalar tree_4_3_u04_r16_network.node[7].content_store 	hits[7] 	1199
scalar tree_4_3_u04_r16_network.node[7].content_store 	misses[7] 	33903
scalar tree_4_3_u04_r16_network.node[7].content_store 	decision_yes[7] 	639
scalar tree_4_3_u04_r16_network.node[7].content_store 	decision_no[7] 	33264
scalar tree_4_3_u04_r16_network.node[7].content_store 	decision_ratio[7] 	0.018847889567295
scalar tree_4_3_u04_r16_network.node[8].core_layer 	interests[8] 	26711
scalar tree_4_3_u04_r16_network.node[8].core_layer 	data[8] 	25879
scalar tree_4_3_u04_r16_network.node[8].content_store 	p_hit[8] 	0.031148216090749
scalar tree_4_3_u04_r16_network.node[8].content_store 	hits[8] 	832
scalar tree_4_3_u04_r16_network.node[8].content_store 	misses[8] 	25879
scalar tree_4_3_u04_r16_network.node[8].content_store 	decision_yes[8] 	456
scalar tree_4_3_u04_r16_network.node[8].content_store 	decision_no[8] 	25423
scalar tree_4_3_u04_r16_network.node[8].content_store 	decision_ratio[8] 	0.017620464469261
scalar tree_4_3_u04_r16_network.node[9].core_layer 	interests[9] 	17639
scalar tree_4_3_u04_r16_network.node[9].core_layer 	data[9] 	17101
scalar tree_4_3_u04_r16_network.node[9].content_store 	p_hit[9] 	0.030500595271841
scalar tree_4_3_u04_r16_network.node[9].content_store 	hits[9] 	538
scalar tree_4_3_u04_r16_network.node[9].content_store 	misses[9] 	17101
scalar tree_4_3_u04_r16_network.node[9].content_store 	decision_yes[9] 	354
scalar tree_4_3_u04_r16_network.node[9].content_store 	decision_no[9] 	16747
scalar tree_4_3_u04_r16_network.node[9].content_store 	decision_ratio[9] 	0.020700543827846
scalar tree_4_3_u04_r16_network.node[10].core_layer 	interests[10] 	26478
scalar tree_4_3_u04_r16_network.node[10].core_layer 	data[10] 	25776
scalar tree_4_3_u04_r16_network.node[10].content_store 	p_hit[10] 	0.026474809275625
scalar tree_4_3_u04_r16_network.node[10].content_store 	hits[10] 	701
scalar tree_4_3_u04_r16_network.node[10].content_store 	misses[10] 	25777
scalar tree_4_3_u04_r16_network.node[10].content_store 	decision_yes[10] 	322
scalar tree_4_3_u04_r16_network.node[10].content_store 	decision_no[10] 	25454
scalar tree_4_3_u04_r16_network.node[10].content_store 	decision_ratio[10] 	0.012492240844196
scalar tree_4_3_u04_r16_network.node[11].core_layer 	interests[11] 	35587
scalar tree_4_3_u04_r16_network.node[11].core_layer 	data[11] 	34483
scalar tree_4_3_u04_r16_network.node[11].content_store 	p_hit[11] 	0.030994464270661
scalar tree_4_3_u04_r16_network.node[11].content_store 	hits[11] 	1103
scalar tree_4_3_u04_r16_network.node[11].content_store 	misses[11] 	34484
scalar tree_4_3_u04_r16_network.node[11].content_store 	decision_yes[11] 	515
scalar tree_4_3_u04_r16_network.node[11].content_store 	decision_no[11] 	33968
scalar tree_4_3_u04_r16_network.node[11].content_store 	decision_ratio[11] 	0.014934895455732
scalar tree_4_3_u04_r16_network.node[12].core_layer 	interests[12] 	17358
scalar tree_4_3_u04_r16_network.node[12].core_layer 	data[12] 	16884
scalar tree_4_3_u04_r16_network.node[12].content_store 	p_hit[12] 	0.027307293466989
scalar tree_4_3_u04_r16_network.node[12].content_store 	hits[12] 	474
scalar tree_4_3_u04_r16_network.node[12].content_store 	misses[12] 	16884
scalar tree_4_3_u04_r16_network.node[12].content_store 	decision_yes[12] 	265
scalar tree_4_3_u04_r16_network.node[12].content_store 	decision_no[12] 	16619
scalar tree_4_3_u04_r16_network.node[12].content_store 	decision_ratio[12] 	0.015695332859512
scalar tree_4_3_u04_r16_network.node[13].core_layer 	interests[13] 	12041
scalar tree_4_3_u04_r16_network.node[13].core_layer 	data[13] 	8801
scalar tree_4_3_u04_r16_network.node[13].content_store 	p_hit[13] 	0.26908064114276
scalar tree_4_3_u04_r16_network.node[13].content_store 	hits[13] 	3240
scalar tree_4_3_u04_r16_network.node[13].content_store 	misses[13] 	8801
scalar tree_4_3_u04_r16_network.node[13].content_store 	decision_yes[13] 	319
scalar tree_4_3_u04_r16_network.node[13].content_store 	decision_no[13] 	8482
scalar tree_4_3_u04_r16_network.node[13].content_store 	decision_ratio[13] 	0.036245881149869
scalar tree_4_3_u04_r16_network.node[14].core_layer 	interests[14] 	12033
scalar tree_4_3_u04_r16_network.node[14].core_layer 	data[14] 	8906
scalar tree_4_3_u04_r16_network.node[14].content_store 	p_hit[14] 	0.25978558962852
scalar tree_4_3_u04_r16_network.node[14].content_store 	hits[14] 	3126
scalar tree_4_3_u04_r16_network.node[14].content_store 	misses[14] 	8907
scalar tree_4_3_u04_r16_network.node[14].content_store 	decision_yes[14] 	336
scalar tree_4_3_u04_r16_network.node[14].content_store 	decision_no[14] 	8570
scalar tree_4_3_u04_r16_network.node[14].content_store 	decision_ratio[14] 	0.037727374803503
scalar tree_4_3_u04_r16_network.node[15].core_layer 	interests[15] 	12049
scalar tree_4_3_u04_r16_network.node[15].core_layer 	data[15] 	8828
scalar tree_4_3_u04_r16_network.node[15].content_store 	p_hit[15] 	0.26724209477965
scalar tree_4_3_u04_r16_network.node[15].content_store 	hits[15] 	3220
scalar tree_4_3_u04_r16_network.node[15].content_store 	misses[15] 	8829
scalar tree_4_3_u04_r16_network.node[15].content_store 	decision_yes[15] 	314
scalar tree_4_3_u04_r16_network.node[15].content_store 	decision_no[15] 	8514
scalar tree_4_3_u04_r16_network.node[15].content_store 	decision_ratio[15] 	0.035568645219755
scalar tree_4_3_u04_r16_network.node[16].core_layer 	interests[16] 	12001
scalar tree_4_3_u04_r16_network.node[16].core_layer 	data[16] 	8793
scalar tree_4_3_u04_r16_network.node[16].content_store 	p_hit[16] 	0.26731105741188
scalar tree_4_3_u04_r16_network.node[16].content_store 	hits[16] 	3208
scalar tree_4_3_u04_r16_network.node[16].content_store 	misses[16] 	8793
scalar tree_4_3_u04_r16_network.node[16].content_store 	decision_yes[16] 	307
scalar tree_4_3_u04_r16_network.node[16].content_store 	decision_no[16] 	8486
scalar tree_4_3_u04_r16_network.node[16].content_store 	decision_ratio[16] 	0.03491413624474
scalar tree_4_3_u04_r16_network.node[17].core_layer 	interests[17] 	11970
scalar tree_4_3_u04_r16_network.node[17].core_layer 	data[17] 	8864
scalar tree_4_3_u04_r16_network.node[17].content_store 	p_hit[17] 	0.25948203842941
scalar tree_4_3_u04_r16_network.node[17].content_store 	hits[17] 	3106
scalar tree_4_3_u04_r16_network.node[17].content_store 	misses[17] 	8864
scalar tree_4_3_u04_r16_network.node[17].content_store 	decision_yes[17] 	276
scalar tree_4_3_u04_r16_network.node[17].content_store 	decision_no[17] 	8588
scalar tree_4_3_u04_r16_network.node[17].content_store 	decision_ratio[17] 	0.031137184115523
scalar tree_4_3_u04_r16_network.node[18].core_layer 	interests[18] 	11935
scalar tree_4_3_u04_r16_network.node[18].core_layer 	data[18] 	8762
scalar tree_4_3_u04_r16_network.node[18].content_store 	p_hit[18] 	0.26585672392124
scalar tree_4_3_u04_r16_network.node[18].content_store 	hits[18] 	3173
scalar tree_4_3_u04_r16_network.node[18].content_store 	misses[18] 	8762
scalar tree_4_3_u04_r16_network.node[18].content_store 	decision_yes[18] 	268
scalar tree_4_3_u04_r16_network.node[18].content_store 	decision_no[18] 	8494
scalar tree_4_3_u04_r16_network.node[18].content_store 	decision_ratio[18] 	0.030586624058434
scalar tree_4_3_u04_r16_network.node[19].core_layer 	interests[19] 	11933
scalar tree_4_3_u04_r16_network.node[19].core_layer 	data[19] 	8734
scalar tree_4_3_u04_r16_network.node[19].content_store 	p_hit[19] 	0.26808011396966
scalar tree_4_3_u04_r16_network.node[19].content_store 	hits[19] 	3199
scalar tree_4_3_u04_r16_network.node[19].content_store 	misses[19] 	8734
scalar tree_4_3_u04_r16_network.node[19].content_store 	decision_yes[19] 	280
scalar tree_4_3_u04_r16_network.node[19].content_store 	decision_no[19] 	8454
scalar tree_4_3_u04_r16_network.node[19].content_store 	decision_ratio[19] 	0.032058621479276
scalar tree_4_3_u04_r16_network.node[20].core_layer 	interests[20] 	11901
scalar tree_4_3_u04_r16_network.node[20].core_layer 	data[20] 	8742
scalar tree_4_3_u04_r16_network.node[20].content_store 	p_hit[20] 	0.26543987900176
scalar tree_4_3_u04_r16_network.node[20].content_store 	hits[20] 	3159
scalar tree_4_3_u04_r16_network.node[20].content_store 	misses[20] 	8742
scalar tree_4_3_u04_r16_network.node[20].content_store 	decision_yes[20] 	309
scalar tree_4_3_u04_r16_network.node[20].content_store 	decision_no[20] 	8433
scalar tree_4_3_u04_r16_network.node[20].content_store 	decision_ratio[20] 	0.035346602608099
scalar tree_4_3_u04_r16_network.node[21].core_layer 	interests[21] 	12173
scalar tree_4_3_u04_r16_network.node[21].core_layer 	data[21] 	8976
scalar tree_4_3_u04_r16_network.node[21].content_store 	p_hit[21] 	0.26263041156658
scalar tree_4_3_u04_r16_network.node[21].content_store 	hits[21] 	3197
scalar tree_4_3_u04_r16_network.node[21].content_store 	misses[21] 	8976
scalar tree_4_3_u04_r16_network.node[21].content_store 	decision_yes[21] 	308
scalar tree_4_3_u04_r16_network.node[21].content_store 	decision_no[21] 	8668
scalar tree_4_3_u04_r16_network.node[21].content_store 	decision_ratio[21] 	0.034313725490196
scalar tree_4_3_u04_r16_network.node[22].core_layer 	interests[22] 	11995
scalar tree_4_3_u04_r16_network.node[22].core_layer 	data[22] 	8823
scalar tree_4_3_u04_r16_network.node[22].content_store 	p_hit[22] 	0.26444351813256
scalar tree_4_3_u04_r16_network.node[22].content_store 	hits[22] 	3172
scalar tree_4_3_u04_r16_network.node[22].content_store 	misses[22] 	8823
scalar tree_4_3_u04_r16_network.node[22].content_store 	decision_yes[22] 	325
scalar tree_4_3_u04_r16_network.node[22].content_store 	decision_no[22] 	8498
scalar tree_4_3_u04_r16_network.node[22].content_store 	decision_ratio[22] 	0.036835543465941
scalar tree_4_3_u04_r16_network.node[23].core_layer 	interests[23] 	12114
scalar tree_4_3_u04_r16_network.node[23].core_layer 	data[23] 	8822
scalar tree_4_3_u04_r16_network.node[23].content_store 	p_hit[23] 	0.27166914314017
scalar tree_4_3_u04_r16_network.node[23].content_store 	hits[23] 	3291
scalar tree_4_3_u04_r16_network.node[23].content_store 	misses[23] 	8823
scalar tree_4_3_u04_r16_network.node[23].content_store 	decision_yes[23] 	288
scalar tree_4_3_u04_r16_network.node[23].content_store 	decision_no[23] 	8534
scalar tree_4_3_u04_r16_network.node[23].content_store 	decision_ratio[23] 	0.032645658580821
scalar tree_4_3_u04_r16_network.node[24].core_layer 	interests[24] 	11861
scalar tree_4_3_u04_r16_network.node[24].core_layer 	data[24] 	8597
scalar tree_4_3_u04_r16_network.node[24].content_store 	p_hit[24] 	0.27518758957929
scalar tree_4_3_u04_r16_network.node[24].content_store 	hits[24] 	3264
scalar tree_4_3_u04_r16_network.node[24].content_store 	misses[24] 	8597
scalar tree_4_3_u04_r16_network.node[24].content_store 	decision_yes[24] 	287
scalar tree_4_3_u04_r16_network.node[24].content_store 	decision_no[24] 	8310
scalar tree_4_3_u04_r16_network.node[24].content_store 	decision_ratio[24] 	0.033383738513435
scalar tree_4_3_u04_r16_network.node[25].core_layer 	interests[25] 	12012
scalar tree_4_3_u04_r16_network.node[25].core_layer 	data[25] 	8860
scalar tree_4_3_u04_r16_network.node[25].content_store 	p_hit[25] 	0.26232101232101
scalar tree_4_3_u04_r16_network.node[25].content_store 	hits[25] 	3151
scalar tree_4_3_u04_r16_network.node[25].content_store 	misses[25] 	8861
scalar tree_4_3_u04_r16_network.node[25].content_store 	decision_yes[25] 	299
scalar tree_4_3_u04_r16_network.node[25].content_store 	decision_no[25] 	8561
scalar tree_4_3_u04_r16_network.node[25].content_store 	decision_ratio[25] 	0.033747178329571
scalar tree_4_3_u04_r16_network.node[26].core_layer 	interests[26] 	11928
scalar tree_4_3_u04_r16_network.node[26].core_layer 	data[26] 	8804
scalar tree_4_3_u04_r16_network.node[26].content_store 	p_hit[26] 	0.26190476190476
scalar tree_4_3_u04_r16_network.node[26].content_store 	hits[26] 	3124
scalar tree_4_3_u04_r16_network.node[26].content_store 	misses[26] 	8804
scalar tree_4_3_u04_r16_network.node[26].content_store 	decision_yes[26] 	285
scalar tree_4_3_u04_r16_network.node[26].content_store 	decision_no[26] 	8519
scalar tree_4_3_u04_r16_network.node[26].content_store 	decision_ratio[26] 	0.032371649250341
scalar tree_4_3_u04_r16_network.node[27].core_layer 	interests[27] 	11993
scalar tree_4_3_u04_r16_network.node[27].core_layer 	data[27] 	8791
scalar tree_4_3_u04_r16_network.node[27].content_store 	p_hit[27] 	0.26698907696156
scalar tree_4_3_u04_r16_network.node[27].content_store 	hits[27] 	3202
scalar tree_4_3_u04_r16_network.node[27].content_store 	misses[27] 	8791
scalar tree_4_3_u04_r16_network.node[27].content_store 	decision_yes[27] 	272
scalar tree_4_3_u04_r16_network.node[27].content_store 	decision_no[27] 	8519
scalar tree_4_3_u04_r16_network.node[27].content_store 	decision_ratio[27] 	0.030940734842453
scalar tree_4_3_u04_r16_network.node[28].core_layer 	interests[28] 	12049
scalar tree_4_3_u04_r16_network.node[28].core_layer 	data[28] 	8903
scalar tree_4_3_u04_r16_network.node[28].content_store 	p_hit[28] 	0.26110050626608
scalar tree_4_3_u04_r16_network.node[28].content_store 	hits[28] 	3146
scalar tree_4_3_u04_r16_network.node[28].content_store 	misses[28] 	8903
scalar tree_4_3_u04_r16_network.node[28].content_store 	decision_yes[28] 	275
scalar tree_4_3_u04_r16_network.node[28].content_store 	decision_no[28] 	8628
scalar tree_4_3_u04_r16_network.node[28].content_store 	decision_ratio[28] 	0.030888464562507
scalar tree_4_3_u04_r16_network.node[29].core_layer 	interests[29] 	12241
scalar tree_4_3_u04_r16_network.node[29].core_layer 	data[29] 	9116
scalar tree_4_3_u04_r16_network.node[29].content_store 	p_hit[29] 	0.25528960052283
scalar tree_4_3_u04_r16_network.node[29].content_store 	hits[29] 	3125
scalar tree_4_3_u04_r16_network.node[29].content_store 	misses[29] 	9116
scalar tree_4_3_u04_r16_network.node[29].content_store 	decision_yes[29] 	275
scalar tree_4_3_u04_r16_network.node[29].content_store 	decision_no[29] 	8841
scalar tree_4_3_u04_r16_network.node[29].content_store 	decision_ratio[29] 	0.030166739798157
scalar tree_4_3_u04_r16_network.node[30].core_layer 	interests[30] 	11785
scalar tree_4_3_u04_r16_network.node[30].core_layer 	data[30] 	8736
scalar tree_4_3_u04_r16_network.node[30].content_store 	p_hit[30] 	0.25871871022486
scalar tree_4_3_u04_r16_network.node[30].content_store 	hits[30] 	3049
scalar tree_4_3_u04_r16_network.node[30].content_store 	misses[30] 	8736
scalar tree_4_3_u04_r16_network.node[30].content_store 	decision_yes[30] 	263
scalar tree_4_3_u04_r16_network.node[30].content_store 	decision_no[30] 	8473
scalar tree_4_3_u04_r16_network.node[30].content_store 	decision_ratio[30] 	0.030105311355311
scalar tree_4_3_u04_r16_network.node[31].core_layer 	interests[31] 	11895
scalar tree_4_3_u04_r16_network.node[31].core_layer 	data[31] 	8765
scalar tree_4_3_u04_r16_network.node[31].content_store 	p_hit[31] 	0.26313577133249
scalar tree_4_3_u04_r16_network.node[31].content_store 	hits[31] 	3130
scalar tree_4_3_u04_r16_network.node[31].content_store 	misses[31] 	8765
scalar tree_4_3_u04_r16_network.node[31].content_store 	decision_yes[31] 	236
scalar tree_4_3_u04_r16_network.node[31].content_store 	decision_no[31] 	8529
scalar tree_4_3_u04_r16_network.node[31].content_store 	decision_ratio[31] 	0.026925270964062
scalar tree_4_3_u04_r16_network.node[32].core_layer 	interests[32] 	12074
scalar tree_4_3_u04_r16_network.node[32].core_layer 	data[32] 	8882
scalar tree_4_3_u04_r16_network.node[32].content_store 	p_hit[32] 	0.26436972005963
scalar tree_4_3_u04_r16_network.node[32].content_store 	hits[32] 	3192
scalar tree_4_3_u04_r16_network.node[32].content_store 	misses[32] 	8882
scalar tree_4_3_u04_r16_network.node[32].content_store 	decision_yes[32] 	234
scalar tree_4_3_u04_r16_network.node[32].content_store 	decision_no[32] 	8648
scalar tree_4_3_u04_r16_network.node[32].content_store 	decision_ratio[32] 	0.026345417698717
scalar tree_4_3_u04_r16_network.node[33].core_layer 	interests[33] 	11998
scalar tree_4_3_u04_r16_network.node[33].core_layer 	data[33] 	8831
scalar tree_4_3_u04_r16_network.node[33].content_store 	p_hit[33] 	0.26396066011002
scalar tree_4_3_u04_r16_network.node[33].content_store 	hits[33] 	3167
scalar tree_4_3_u04_r16_network.node[33].content_store 	misses[33] 	8831
scalar tree_4_3_u04_r16_network.node[33].content_store 	decision_yes[33] 	231
scalar tree_4_3_u04_r16_network.node[33].content_store 	decision_no[33] 	8600
scalar tree_4_3_u04_r16_network.node[33].content_store 	decision_ratio[33] 	0.026157853017778
scalar tree_4_3_u04_r16_network.node[34].core_layer 	interests[34] 	11946
scalar tree_4_3_u04_r16_network.node[34].core_layer 	data[34] 	8860
scalar tree_4_3_u04_r16_network.node[34].content_store 	p_hit[34] 	0.25832914783191
scalar tree_4_3_u04_r16_network.node[34].content_store 	hits[34] 	3086
scalar tree_4_3_u04_r16_network.node[34].content_store 	misses[34] 	8860
scalar tree_4_3_u04_r16_network.node[34].content_store 	decision_yes[34] 	285
scalar tree_4_3_u04_r16_network.node[34].content_store 	decision_no[34] 	8575
scalar tree_4_3_u04_r16_network.node[34].content_store 	decision_ratio[34] 	0.032167042889391
scalar tree_4_3_u04_r16_network.node[35].core_layer 	interests[35] 	11992
scalar tree_4_3_u04_r16_network.node[35].core_layer 	data[35] 	8864
scalar tree_4_3_u04_r16_network.node[35].content_store 	p_hit[35] 	0.26059039359573
scalar tree_4_3_u04_r16_network.node[35].content_store 	hits[35] 	3125
scalar tree_4_3_u04_r16_network.node[35].content_store 	misses[35] 	8867
scalar tree_4_3_u04_r16_network.node[35].content_store 	decision_yes[35] 	275
scalar tree_4_3_u04_r16_network.node[35].content_store 	decision_no[35] 	8589
scalar tree_4_3_u04_r16_network.node[35].content_store 	decision_ratio[35] 	0.031024368231047
scalar tree_4_3_u04_r16_network.node[36].core_layer 	interests[36] 	12201
scalar tree_4_3_u04_r16_network.node[36].core_layer 	data[36] 	8936
scalar tree_4_3_u04_r16_network.node[36].content_store 	p_hit[36] 	0.26760101631014
scalar tree_4_3_u04_r16_network.node[36].content_store 	hits[36] 	3265
scalar tree_4_3_u04_r16_network.node[36].content_store 	misses[36] 	8936
scalar tree_4_3_u04_r16_network.node[36].content_store 	decision_yes[36] 	271
scalar tree_4_3_u04_r16_network.node[36].content_store 	decision_no[36] 	8665
scalar tree_4_3_u04_r16_network.node[36].content_store 	decision_ratio[36] 	0.030326768128917
scalar tree_4_3_u04_r16_network.node[37].core_layer 	interests[37] 	11961
scalar tree_4_3_u04_r16_network.node[37].core_layer 	data[37] 	8639
scalar tree_4_3_u04_r16_network.node[37].content_store 	p_hit[37] 	0.27773597525291
scalar tree_4_3_u04_r16_network.node[37].content_store 	hits[37] 	3322
scalar tree_4_3_u04_r16_network.node[37].content_store 	misses[37] 	8639
scalar tree_4_3_u04_r16_network.node[37].content_store 	decision_yes[37] 	238
scalar tree_4_3_u04_r16_network.node[37].content_store 	decision_no[37] 	8401
scalar tree_4_3_u04_r16_network.node[37].content_store 	decision_ratio[37] 	0.027549484894085
scalar tree_4_3_u04_r16_network.node[38].core_layer 	interests[38] 	12090
scalar tree_4_3_u04_r16_network.node[38].core_layer 	data[38] 	8927
scalar tree_4_3_u04_r16_network.node[38].content_store 	p_hit[38] 	0.2616211745244
scalar tree_4_3_u04_r16_network.node[38].content_store 	hits[38] 	3163
scalar tree_4_3_u04_r16_network.node[38].content_store 	misses[38] 	8927
scalar tree_4_3_u04_r16_network.node[38].content_store 	decision_yes[38] 	272
scalar tree_4_3_u04_r16_network.node[38].content_store 	decision_no[38] 	8655
scalar tree_4_3_u04_r16_network.node[38].content_store 	decision_ratio[38] 	0.030469362607819
scalar tree_4_3_u04_r16_network.node[39].core_layer 	interests[39] 	11894
scalar tree_4_3_u04_r16_network.node[39].core_layer 	data[39] 	8719
scalar tree_4_3_u04_r16_network.node[39].content_store 	p_hit[39] 	0.26694131494871
scalar tree_4_3_u04_r16_network.node[39].content_store 	hits[39] 	3175
scalar tree_4_3_u04_r16_network.node[39].content_store 	misses[39] 	8719
scalar tree_4_3_u04_r16_network.node[39].content_store 	decision_yes[39] 	236
scalar tree_4_3_u04_r16_network.node[39].content_store 	decision_no[39] 	8483
scalar tree_4_3_u04_r16_network.node[39].content_store 	decision_ratio[39] 	0.027067324234431
scalar tree_4_3_u04_r16_network.client[13] 	hdistance[13] 	2.8100656091687
scalar tree_4_3_u04_r16_network.client[13] 	downloads[13] 	12041
scalar tree_4_3_u04_r16_network.client[13] 	avg_time[13] 	0.004252633818
scalar tree_4_3_u04_r16_network.client[14] 	hdistance[14] 	2.8423371010638
scalar tree_4_3_u04_r16_network.client[14] 	downloads[14] 	12032
scalar tree_4_3_u04_r16_network.client[14] 	avg_time[14] 	0.004301360035
scalar tree_4_3_u04_r16_network.client[15] 	hdistance[15] 	2.8210491367862
scalar tree_4_3_u04_r16_network.client[15] 	downloads[15] 	12048
scalar tree_4_3_u04_r16_network.client[15] 	avg_time[15] 	0.004267593283
scalar tree_4_3_u04_r16_network.client[16] 	hdistance[16] 	2.8258478460128
scalar tree_4_3_u04_r16_network.client[16] 	downloads[16] 	12001
scalar tree_4_3_u04_r16_network.client[16] 	avg_time[16] 	0.004271807676
scalar tree_4_3_u04_r16_network.client[17] 	hdistance[17] 	2.8526315789474
scalar tree_4_3_u04_r16_network.client[17] 	downloads[17] 	11970
scalar tree_4_3_u04_r16_network.client[17] 	avg_time[17] 	0.004316932908
scalar tree_4_3_u04_r16_network.client[18] 	hdistance[18] 	2.8256388772518
scalar tree_4_3_u04_r16_network.client[18] 	downloads[18] 	11935
scalar tree_4_3_u04_r16_network.client[18] 	avg_time[18] 	0.004277165009
scalar tree_4_3_u04_r16_network.client[19] 	hdistance[19] 	2.8164753205397
scalar tree_4_3_u04_r16_network.client[19] 	downloads[19] 	11933
scalar tree_4_3_u04_r16_network.client[19] 	avg_time[19] 	0.004264641286
scalar tree_4_3_u04_r16_network.client[20] 	hdistance[20] 	2.8249726913705
scalar tree_4_3_u04_r16_network.client[20] 	downloads[20] 	11901
scalar tree_4_3_u04_r16_network.client[20] 	avg_time[20] 	0.004275298129
scalar tree_4_3_u04_r16_network.client[21] 	hdistance[21] 	2.8376735398012
scalar tree_4_3_u04_r16_network.client[21] 	downloads[21] 	12173
scalar tree_4_3_u04_r16_network.client[21] 	avg_time[21] 	0.004294090417
scalar tree_4_3_u04_r16_network.client[22] 	hdistance[22] 	2.8266777824093
scalar tree_4_3_u04_r16_network.client[22] 	downloads[22] 	11995
scalar tree_4_3_u04_r16_network.client[22] 	avg_time[22] 	0.004278446316
scalar tree_4_3_u04_r16_network.client[23] 	hdistance[23] 	2.8109469165359
scalar tree_4_3_u04_r16_network.client[23] 	downloads[23] 	12113
scalar tree_4_3_u04_r16_network.client[23] 	avg_time[23] 	0.004250201098
scalar tree_4_3_u04_r16_network.client[24] 	hdistance[24] 	2.7930191383526
scalar tree_4_3_u04_r16_network.client[24] 	downloads[24] 	11861
scalar tree_4_3_u04_r16_network.client[24] 	avg_time[24] 	0.004223896771
scalar tree_4_3_u04_r16_network.client[25] 	hdistance[25] 	2.8433102988927
scalar tree_4_3_u04_r16_network.client[25] 	downloads[25] 	12011
scalar tree_4_3_u04_r16_network.client[25] 	avg_time[25] 	0.004298574004
scalar tree_4_3_u04_r16_network.client[26] 	hdistance[26] 	2.8502682763246
scalar tree_4_3_u04_r16_network.client[26] 	downloads[26] 	11928
scalar tree_4_3_u04_r16_network.client[26] 	avg_time[26] 	0.004310023863
scalar tree_4_3_u04_r16_network.client[27] 	hdistance[27] 	2.832819144501
scalar tree_4_3_u04_r16_network.client[27] 	downloads[27] 	11993
scalar tree_4_3_u04_r16_network.client[27] 	avg_time[27] 	0.004283662496
scalar tree_4_3_u04_r16_network.client[28] 	hdistance[28] 	2.8497800647357
scalar tree_4_3_u04_r16_network.client[28] 	downloads[28] 	12049
scalar tree_4_3_u04_r16_network.client[28] 	avg_time[28] 	0.004311060154
scalar tree_4_3_u04_r16_network.client[29] 	hdistance[29] 	2.874029899518
scalar tree_4_3_u04_r16_network.client[29] 	downloads[29] 	12241
scalar tree_4_3_u04_r16_network.client[29] 	avg_time[29] 	0.004349478182
scalar tree_4_3_u04_r16_network.client[30] 	hdistance[30] 	2.8639796351294
scalar tree_4_3_u04_r16_network.client[30] 	downloads[30] 	11785
scalar tree_4_3_u04_r16_network.client[30] 	avg_time[30] 	0.004330077669
scalar tree_4_3_u04_r16_network.client[31] 	hdistance[31] 	2.8633039092055
scalar tree_4_3_u04_r16_network.client[31] 	downloads[31] 	11895
scalar tree_4_3_u04_r16_network.client[31] 	avg_time[31] 	0.00432546984
scalar tree_4_3_u04_r16_network.client[32] 	hdistance[32] 	2.8617690906079
scalar tree_4_3_u04_r16_network.client[32] 	downloads[32] 	12074
scalar tree_4_3_u04_r16_network.client[32] 	avg_time[32] 	0.00431985781
scalar tree_4_3_u04_r16_network.client[33] 	hdistance[33] 	2.8588098016336
scalar tree_4_3_u04_r16_network.client[33] 	downloads[33] 	11998
scalar tree_4_3_u04_r16_network.client[33] 	avg_time[33] 	0.004318050001
scalar tree_4_3_u04_r16_network.client[34] 	hdistance[34] 	2.8679892851164
scalar tree_4_3_u04_r16_network.client[34] 	downloads[34] 	11946
scalar tree_4_3_u04_r16_network.client[34] 	avg_time[34] 	0.004333330325
scalar tree_4_3_u04_r16_network.client[35] 	hdistance[35] 	2.8612895153891
scalar tree_4_3_u04_r16_network.client[35] 	downloads[35] 	11989
scalar tree_4_3_u04_r16_network.client[35] 	avg_time[35] 	0.004322221417
scalar tree_4_3_u04_r16_network.client[36] 	hdistance[36] 	2.8359150889271
scalar tree_4_3_u04_r16_network.client[36] 	downloads[36] 	12201
scalar tree_4_3_u04_r16_network.client[36] 	avg_time[36] 	0.004284868524
scalar tree_4_3_u04_r16_network.client[37] 	hdistance[37] 	2.8014380068556
scalar tree_4_3_u04_r16_network.client[37] 	downloads[37] 	11961
scalar tree_4_3_u04_r16_network.client[37] 	avg_time[37] 	0.004233804739
scalar tree_4_3_u04_r16_network.client[38] 	hdistance[38] 	2.8565756823821
scalar tree_4_3_u04_r16_network.client[38] 	downloads[38] 	12090
scalar tree_4_3_u04_r16_network.client[38] 	avg_time[38] 	0.004318111118
scalar tree_4_3_u04_r16_network.client[39] 	hdistance[39] 	2.8421052631579
scalar tree_4_3_u04_r16_network.client[39] 	downloads[39] 	11894
scalar tree_4_3_u04_r16_network.client[39] 	avg_time[39] 	0.004294599344
