version 2
run General-87-20160820-08:15:02-856
attr a 0.9
attr cd lcd
attr configname General
attr cr lru
attr datetime 20160820-08:15:02
attr experiment General
attr fsize 1
attr inifile hw5115/scenario_A/SPR-LCD.ini
attr iterationvars "$name=tree_4_3, $un=04, $rep=8, $cd=lcd, $cr=lru, $fsize=1, $a=0.9, $sl=spr, $ttl=1000, $variance=0.05"
attr iterationvars2 "$name=tree_4_3, $un=04, $rep=8, $cd=lcd, $cr=lru, $fsize=1, $a=0.9, $sl=spr, $ttl=1000, $variance=0.05, $repetition=0"
attr measurement "$name=tree_4_3, $un=04, $rep=8, $cd=lcd, $cr=lru, $fsize=1, $a=0.9, $sl=spr, $ttl=1000, $variance=0.05"
attr name tree_4_3
attr network networks.${name}_u${un}_r${rep}_network
attr processid 856
attr rep 8
attr repetition 0
attr replication #0
attr resultdir results
attr runnumber 87
attr seedset 8
attr sl spr
attr ttl 1000
attr un 04
attr variance 0.05

scalar . 	a 	0.9
scalar . 	fsize 	1
scalar . 	rep 	8
scalar . 	ttl 	1000
scalar . 	un 	04
scalar . 	variance 	0.05
scalar tree_4_3_u04_r8_network.content_distribution 	repo-0 	0
scalar tree_4_3_u04_r8_network.content_distribution 	client-0 	13
scalar tree_4_3_u04_r8_network.content_distribution 	client-1 	14
scalar tree_4_3_u04_r8_network.content_distribution 	client-2 	15
scalar tree_4_3_u04_r8_network.content_distribution 	client-3 	16
scalar tree_4_3_u04_r8_network.content_distribution 	client-4 	17
scalar tree_4_3_u04_r8_network.content_distribution 	client-5 	18
scalar tree_4_3_u04_r8_network.content_distribution 	client-6 	19
scalar tree_4_3_u04_r8_network.content_distribution 	client-7 	20
scalar tree_4_3_u04_r8_network.content_distribution 	client-8 	21
scalar tree_4_3_u04_r8_network.content_distribution 	client-9 	22
scalar tree_4_3_u04_r8_network.content_distribution 	client-10 	23
scalar tree_4_3_u04_r8_network.content_distribution 	client-11 	24
scalar tree_4_3_u04_r8_network.content_distribution 	client-12 	25
scalar tree_4_3_u04_r8_network.content_distribution 	client-13 	26
scalar tree_4_3_u04_r8_network.content_distribution 	client-14 	27
scalar tree_4_3_u04_r8_network.content_distribution 	client-15 	28
scalar tree_4_3_u04_r8_network.content_distribution 	client-16 	29
scalar tree_4_3_u04_r8_network.content_distribution 	client-17 	30
scalar tree_4_3_u04_r8_network.content_distribution 	client-18 	31
scalar tree_4_3_u04_r8_network.content_distribution 	client-19 	32
scalar tree_4_3_u04_r8_network.content_distribution 	client-20 	33
scalar tree_4_3_u04_r8_network.content_distribution 	client-21 	34
scalar tree_4_3_u04_r8_network.content_distribution 	client-22 	35
scalar tree_4_3_u04_r8_network.content_distribution 	client-23 	36
scalar tree_4_3_u04_r8_network.content_distribution 	client-24 	37
scalar tree_4_3_u04_r8_network.content_distribution 	client-25 	38
scalar tree_4_3_u04_r8_network.content_distribution 	client-26 	39
scalar tree_4_3_u04_r8_network.content_distribution 	repo-0_card 	100000
scalar tree_4_3_u04_r8_network.content_distribution 	repo-0_price 	0
scalar tree_4_3_u04_r8_network.statistics 	stabilization_time 	1862.8
scalar tree_4_3_u04_r8_network.statistics 	p_hit 	0.18864345064372
scalar tree_4_3_u04_r8_network.statistics 	interests 	25421.175
scalar tree_4_3_u04_r8_network.statistics 	data 	17326.875
scalar tree_4_3_u04_r8_network.statistics 	hdistance 	2.8315103573608
scalar tree_4_3_u04_r8_network.statistics 	avg_time 	0.004281378376
scalar tree_4_3_u04_r8_network.statistics 	downloads 	323766
scalar tree_4_3_u04_r8_network.statistics 	total_cost 	0
scalar tree_4_3_u04_r8_network.statistics 	total_replicas 	100000
scalar tree_4_3_u04_r8_network.statistics 	inner_hit 	0.3092449485122
scalar tree_4_3_u04_r8_network.node[0].core_layer 	interests[0] 	225885
scalar tree_4_3_u04_r8_network.node[0].core_layer 	repo_load[0] 	223643
scalar tree_4_3_u04_r8_network.node[0].core_layer 	data[0] 	0
scalar tree_4_3_u04_r8_network.node[0].core_layer 	repo_int[0] 	223643
scalar tree_4_3_u04_r8_network.node[0].content_store 	p_hit[0] 	0.0099254045199991
scalar tree_4_3_u04_r8_network.node[0].content_store 	hits[0] 	2242
scalar tree_4_3_u04_r8_network.node[0].content_store 	misses[0] 	223643
scalar tree_4_3_u04_r8_network.node[0].content_store 	decision_yes[0] 	223643
scalar tree_4_3_u04_r8_network.node[0].content_store 	decision_no[0] 	0
scalar tree_4_3_u04_r8_network.node[0].content_store 	decision_ratio[0] 	1
scalar tree_4_3_u04_r8_network.node[1].core_layer 	interests[1] 	110085
scalar tree_4_3_u04_r8_network.node[1].core_layer 	data[1] 	107949
scalar tree_4_3_u04_r8_network.node[1].content_store 	p_hit[1] 	0.019348685106963
scalar tree_4_3_u04_r8_network.node[1].content_store 	hits[1] 	2130
scalar tree_4_3_u04_r8_network.node[1].content_store 	misses[1] 	107955
scalar tree_4_3_u04_r8_network.node[1].content_store 	decision_yes[1] 	1077
scalar tree_4_3_u04_r8_network.node[1].content_store 	decision_no[1] 	106872
scalar tree_4_3_u04_r8_network.node[1].content_store 	decision_ratio[1] 	0.0099769335519551
scalar tree_4_3_u04_r8_network.node[2].core_layer 	interests[2] 	42993
scalar tree_4_3_u04_r8_network.node[2].core_layer 	data[2] 	42398
scalar tree_4_3_u04_r8_network.node[2].content_store 	p_hit[2] 	0.013816202637639
scalar tree_4_3_u04_r8_network.node[2].content_store 	hits[2] 	594
scalar tree_4_3_u04_r8_network.node[2].content_store 	misses[2] 	42399
scalar tree_4_3_u04_r8_network.node[2].content_store 	decision_yes[2] 	416
scalar tree_4_3_u04_r8_network.node[2].content_store 	decision_no[2] 	41982
scalar tree_4_3_u04_r8_network.node[2].content_store 	decision_ratio[2] 	0.0098117835746969
scalar tree_4_3_u04_r8_network.node[3].core_layer 	interests[3] 	76753
scalar tree_4_3_u04_r8_network.node[3].core_layer 	data[3] 	75536
scalar tree_4_3_u04_r8_network.node[3].content_store 	p_hit[3] 	0.01584302893698
scalar tree_4_3_u04_r8_network.node[3].content_store 	hits[3] 	1216
scalar tree_4_3_u04_r8_network.node[3].content_store 	misses[3] 	75537
scalar tree_4_3_u04_r8_network.node[3].content_store 	decision_yes[3] 	749
scalar tree_4_3_u04_r8_network.node[3].content_store 	decision_no[3] 	74787
scalar tree_4_3_u04_r8_network.node[3].content_store 	decision_ratio[3] 	0.0099158017369201
scalar tree_4_3_u04_r8_network.node[4].core_layer 	interests[4] 	35258
scalar tree_4_3_u04_r8_network.node[4].core_layer 	data[4] 	34058
scalar tree_4_3_u04_r8_network.node[4].content_store 	p_hit[4] 	0.034034828974984
scalar tree_4_3_u04_r8_network.node[4].content_store 	hits[4] 	1200
scalar tree_4_3_u04_r8_network.node[4].content_store 	misses[4] 	34058
scalar tree_4_3_u04_r8_network.node[4].content_store 	decision_yes[4] 	597
scalar tree_4_3_u04_r8_network.node[4].content_store 	decision_no[4] 	33461
scalar tree_4_3_u04_r8_network.node[4].content_store 	decision_ratio[4] 	0.017528921251982
scalar tree_4_3_u04_r8_network.node[5].core_layer 	interests[5] 	17513
scalar tree_4_3_u04_r8_network.node[5].core_layer 	data[5] 	16946
scalar tree_4_3_u04_r8_network.node[5].content_store 	p_hit[5] 	0.03237594929481
scalar tree_4_3_u04_r8_network.node[5].content_store 	hits[5] 	567
scalar tree_4_3_u04_r8_network.node[5].content_store 	misses[5] 	16946
scalar tree_4_3_u04_r8_network.node[5].content_store 	decision_yes[5] 	394
scalar tree_4_3_u04_r8_network.node[5].content_store 	decision_no[5] 	16552
scalar tree_4_3_u04_r8_network.node[5].content_store 	decision_ratio[5] 	0.023250324560368
scalar tree_4_3_u04_r8_network.node[6].core_layer 	interests[6] 	26177
scalar tree_4_3_u04_r8_network.node[6].core_layer 	data[6] 	25309
scalar tree_4_3_u04_r8_network.node[6].content_store 	p_hit[6] 	0.033120678458188
scalar tree_4_3_u04_r8_network.node[6].content_store 	hits[6] 	867
scalar tree_4_3_u04_r8_network.node[6].content_store 	misses[6] 	25310
scalar tree_4_3_u04_r8_network.node[6].content_store 	decision_yes[6] 	524
scalar tree_4_3_u04_r8_network.node[6].content_store 	decision_no[6] 	24785
scalar tree_4_3_u04_r8_network.node[6].content_store 	decision_ratio[6] 	0.020704097356672
scalar tree_4_3_u04_r8_network.node[7].core_layer 	interests[7] 	34971
scalar tree_4_3_u04_r8_network.node[7].core_layer 	data[7] 	33773
scalar tree_4_3_u04_r8_network.node[7].content_store 	p_hit[7] 	0.034256955763347
scalar tree_4_3_u04_r8_network.node[7].content_store 	hits[7] 	1198
scalar tree_4_3_u04_r8_network.node[7].content_store 	misses[7] 	33773
scalar tree_4_3_u04_r8_network.node[7].content_store 	decision_yes[7] 	615
scalar tree_4_3_u04_r8_network.node[7].content_store 	decision_no[7] 	33158
scalar tree_4_3_u04_r8_network.node[7].content_store 	decision_ratio[7] 	0.018209812572173
scalar tree_4_3_u04_r8_network.node[8].core_layer 	interests[8] 	26504
scalar tree_4_3_u04_r8_network.node[8].core_layer 	data[8] 	25777
scalar tree_4_3_u04_r8_network.node[8].content_store 	p_hit[8] 	0.027429821913673
scalar tree_4_3_u04_r8_network.node[8].content_store 	hits[8] 	727
scalar tree_4_3_u04_r8_network.node[8].content_store 	misses[8] 	25777
scalar tree_4_3_u04_r8_network.node[8].content_store 	decision_yes[8] 	323
scalar tree_4_3_u04_r8_network.node[8].content_store 	decision_no[8] 	25454
scalar tree_4_3_u04_r8_network.node[8].content_store 	decision_ratio[8] 	0.012530550490748
scalar tree_4_3_u04_r8_network.node[9].core_layer 	interests[9] 	17698
scalar tree_4_3_u04_r8_network.node[9].core_layer 	data[9] 	17215
scalar tree_4_3_u04_r8_network.node[9].content_store 	p_hit[9] 	0.027234715787095
scalar tree_4_3_u04_r8_network.node[9].content_store 	hits[9] 	482
scalar tree_4_3_u04_r8_network.node[9].content_store 	misses[9] 	17216
scalar tree_4_3_u04_r8_network.node[9].content_store 	decision_yes[9] 	271
scalar tree_4_3_u04_r8_network.node[9].content_store 	decision_no[9] 	16944
scalar tree_4_3_u04_r8_network.node[9].content_store 	decision_ratio[9] 	0.015742085390648
scalar tree_4_3_u04_r8_network.node[10].core_layer 	interests[10] 	35226
scalar tree_4_3_u04_r8_network.node[10].core_layer 	data[10] 	34136
scalar tree_4_3_u04_r8_network.node[10].content_store 	p_hit[10] 	0.030914665304037
scalar tree_4_3_u04_r8_network.node[10].content_store 	hits[10] 	1089
scalar tree_4_3_u04_r8_network.node[10].content_store 	misses[10] 	34137
scalar tree_4_3_u04_r8_network.node[10].content_store 	decision_yes[10] 	499
scalar tree_4_3_u04_r8_network.node[10].content_store 	decision_no[10] 	33637
scalar tree_4_3_u04_r8_network.node[10].content_store 	decision_ratio[10] 	0.01461799859386
scalar tree_4_3_u04_r8_network.node[11].core_layer 	interests[11] 	35348
scalar tree_4_3_u04_r8_network.node[11].core_layer 	data[11] 	34212
scalar tree_4_3_u04_r8_network.node[11].content_store 	p_hit[11] 	0.032137603259025
scalar tree_4_3_u04_r8_network.node[11].content_store 	hits[11] 	1136
scalar tree_4_3_u04_r8_network.node[11].content_store 	misses[11] 	34212
scalar tree_4_3_u04_r8_network.node[11].content_store 	decision_yes[11] 	503
scalar tree_4_3_u04_r8_network.node[11].content_store 	decision_no[11] 	33709
scalar tree_4_3_u04_r8_network.node[11].content_store 	decision_ratio[11] 	0.014702443587045
scalar tree_4_3_u04_r8_network.node[12].core_layer 	interests[12] 	8666
scalar tree_4_3_u04_r8_network.node[12].core_layer 	data[12] 	8405
scalar tree_4_3_u04_r8_network.node[12].content_store 	p_hit[12] 	0.030117701361643
scalar tree_4_3_u04_r8_network.node[12].content_store 	hits[12] 	261
scalar tree_4_3_u04_r8_network.node[12].content_store 	misses[12] 	8405
scalar tree_4_3_u04_r8_network.node[12].content_store 	decision_yes[12] 	214
scalar tree_4_3_u04_r8_network.node[12].content_store 	decision_no[12] 	8191
scalar tree_4_3_u04_r8_network.node[12].content_store 	decision_ratio[12] 	0.025461035098156
scalar tree_4_3_u04_r8_network.node[13].core_layer 	interests[13] 	12137
scalar tree_4_3_u04_r8_network.node[13].core_layer 	data[13] 	8832
scalar tree_4_3_u04_r8_network.node[13].content_store 	p_hit[13] 	0.27230781906567
scalar tree_4_3_u04_r8_network.node[13].content_store 	hits[13] 	3305
scalar tree_4_3_u04_r8_network.node[13].content_store 	misses[13] 	8832
scalar tree_4_3_u04_r8_network.node[13].content_store 	decision_yes[13] 	296
scalar tree_4_3_u04_r8_network.node[13].content_store 	decision_no[13] 	8536
scalar tree_4_3_u04_r8_network.node[13].content_store 	decision_ratio[13] 	0.033514492753623
scalar tree_4_3_u04_r8_network.node[14].core_layer 	interests[14] 	11965
scalar tree_4_3_u04_r8_network.node[14].core_layer 	data[14] 	8842
scalar tree_4_3_u04_r8_network.node[14].content_store 	p_hit[14] 	0.26101128290848
scalar tree_4_3_u04_r8_network.node[14].content_store 	hits[14] 	3123
scalar tree_4_3_u04_r8_network.node[14].content_store 	misses[14] 	8842
scalar tree_4_3_u04_r8_network.node[14].content_store 	decision_yes[14] 	298
scalar tree_4_3_u04_r8_network.node[14].content_store 	decision_no[14] 	8544
scalar tree_4_3_u04_r8_network.node[14].content_store 	decision_ratio[14] 	0.033702782175978
scalar tree_4_3_u04_r8_network.node[15].core_layer 	interests[15] 	12066
scalar tree_4_3_u04_r8_network.node[15].core_layer 	data[15] 	8862
scalar tree_4_3_u04_r8_network.node[15].content_store 	p_hit[15] 	0.26553953257086
scalar tree_4_3_u04_r8_network.node[15].content_store 	hits[15] 	3204
scalar tree_4_3_u04_r8_network.node[15].content_store 	misses[15] 	8862
scalar tree_4_3_u04_r8_network.node[15].content_store 	decision_yes[15] 	297
scalar tree_4_3_u04_r8_network.node[15].content_store 	decision_no[15] 	8565
scalar tree_4_3_u04_r8_network.node[15].content_store 	decision_ratio[15] 	0.033513879485443
scalar tree_4_3_u04_r8_network.node[16].core_layer 	interests[16] 	11883
scalar tree_4_3_u04_r8_network.node[16].core_layer 	data[16] 	8723
scalar tree_4_3_u04_r8_network.node[16].content_store 	p_hit[16] 	0.26601026676765
scalar tree_4_3_u04_r8_network.node[16].content_store 	hits[16] 	3161
scalar tree_4_3_u04_r8_network.node[16].content_store 	misses[16] 	8722
scalar tree_4_3_u04_r8_network.node[16].content_store 	decision_yes[16] 	309
scalar tree_4_3_u04_r8_network.node[16].content_store 	decision_no[16] 	8414
scalar tree_4_3_u04_r8_network.node[16].content_store 	decision_ratio[16] 	0.035423592800642
scalar tree_4_3_u04_r8_network.node[17].core_layer 	interests[17] 	11965
scalar tree_4_3_u04_r8_network.node[17].core_layer 	data[17] 	8814
scalar tree_4_3_u04_r8_network.node[17].content_store 	p_hit[17] 	0.26335144170497
scalar tree_4_3_u04_r8_network.node[17].content_store 	hits[17] 	3151
scalar tree_4_3_u04_r8_network.node[17].content_store 	misses[17] 	8814
scalar tree_4_3_u04_r8_network.node[17].content_store 	decision_yes[17] 	287
scalar tree_4_3_u04_r8_network.node[17].content_store 	decision_no[17] 	8527
scalar tree_4_3_u04_r8_network.node[17].content_store 	decision_ratio[17] 	0.032561833446789
scalar tree_4_3_u04_r8_network.node[18].core_layer 	interests[18] 	11955
scalar tree_4_3_u04_r8_network.node[18].core_layer 	data[18] 	8699
scalar tree_4_3_u04_r8_network.node[18].content_store 	p_hit[18] 	0.27235466332079
scalar tree_4_3_u04_r8_network.node[18].content_store 	hits[18] 	3256
scalar tree_4_3_u04_r8_network.node[18].content_store 	misses[18] 	8699
scalar tree_4_3_u04_r8_network.node[18].content_store 	decision_yes[18] 	280
scalar tree_4_3_u04_r8_network.node[18].content_store 	decision_no[18] 	8419
scalar tree_4_3_u04_r8_network.node[18].content_store 	decision_ratio[18] 	0.032187607771008
scalar tree_4_3_u04_r8_network.node[19].core_layer 	interests[19] 	11984
scalar tree_4_3_u04_r8_network.node[19].core_layer 	data[19] 	8666
scalar tree_4_3_u04_r8_network.node[19].content_store 	p_hit[19] 	0.2768691588785
scalar tree_4_3_u04_r8_network.node[19].content_store 	hits[19] 	3318
scalar tree_4_3_u04_r8_network.node[19].content_store 	misses[19] 	8666
scalar tree_4_3_u04_r8_network.node[19].content_store 	decision_yes[19] 	295
scalar tree_4_3_u04_r8_network.node[19].content_store 	decision_no[19] 	8371
scalar tree_4_3_u04_r8_network.node[19].content_store 	decision_ratio[19] 	0.034041080083083
scalar tree_4_3_u04_r8_network.node[20].core_layer 	interests[20] 	12041
scalar tree_4_3_u04_r8_network.node[20].core_layer 	data[20] 	8764
scalar tree_4_3_u04_r8_network.node[20].content_store 	p_hit[20] 	0.27215347562495
scalar tree_4_3_u04_r8_network.node[20].content_store 	hits[20] 	3277
scalar tree_4_3_u04_r8_network.node[20].content_store 	misses[20] 	8764
scalar tree_4_3_u04_r8_network.node[20].content_store 	decision_yes[20] 	288
scalar tree_4_3_u04_r8_network.node[20].content_store 	decision_no[20] 	8476
scalar tree_4_3_u04_r8_network.node[20].content_store 	decision_ratio[20] 	0.032861706983113
scalar tree_4_3_u04_r8_network.node[21].core_layer 	interests[21] 	11928
scalar tree_4_3_u04_r8_network.node[21].core_layer 	data[21] 	8747
scalar tree_4_3_u04_r8_network.node[21].content_store 	p_hit[21] 	0.26668343393696
scalar tree_4_3_u04_r8_network.node[21].content_store 	hits[21] 	3181
scalar tree_4_3_u04_r8_network.node[21].content_store 	misses[21] 	8747
scalar tree_4_3_u04_r8_network.node[21].content_store 	decision_yes[21] 	284
scalar tree_4_3_u04_r8_network.node[21].content_store 	decision_no[21] 	8463
scalar tree_4_3_u04_r8_network.node[21].content_store 	decision_ratio[21] 	0.032468274837087
scalar tree_4_3_u04_r8_network.node[22].core_layer 	interests[22] 	11934
scalar tree_4_3_u04_r8_network.node[22].core_layer 	data[22] 	8743
scalar tree_4_3_u04_r8_network.node[22].content_store 	p_hit[22] 	0.26730350259762
scalar tree_4_3_u04_r8_network.node[22].content_store 	hits[22] 	3190
scalar tree_4_3_u04_r8_network.node[22].content_store 	misses[22] 	8744
scalar tree_4_3_u04_r8_network.node[22].content_store 	decision_yes[22] 	291
scalar tree_4_3_u04_r8_network.node[22].content_store 	decision_no[22] 	8452
scalar tree_4_3_u04_r8_network.node[22].content_store 	decision_ratio[22] 	0.033283769873041
scalar tree_4_3_u04_r8_network.node[23].core_layer 	interests[23] 	11976
scalar tree_4_3_u04_r8_network.node[23].core_layer 	data[23] 	8820
scalar tree_4_3_u04_r8_network.node[23].content_store 	p_hit[23] 	0.26352705410822
scalar tree_4_3_u04_r8_network.node[23].content_store 	hits[23] 	3156
scalar tree_4_3_u04_r8_network.node[23].content_store 	misses[23] 	8820
scalar tree_4_3_u04_r8_network.node[23].content_store 	decision_yes[23] 	291
scalar tree_4_3_u04_r8_network.node[23].content_store 	decision_no[23] 	8529
scalar tree_4_3_u04_r8_network.node[23].content_store 	decision_ratio[23] 	0.032993197278912
scalar tree_4_3_u04_r8_network.node[24].core_layer 	interests[24] 	11855
scalar tree_4_3_u04_r8_network.node[24].core_layer 	data[24] 	8648
scalar tree_4_3_u04_r8_network.node[24].content_store 	p_hit[24] 	0.27051876845213
scalar tree_4_3_u04_r8_network.node[24].content_store 	hits[24] 	3207
scalar tree_4_3_u04_r8_network.node[24].content_store 	misses[24] 	8648
scalar tree_4_3_u04_r8_network.node[24].content_store 	decision_yes[24] 	311
scalar tree_4_3_u04_r8_network.node[24].content_store 	decision_no[24] 	8337
scalar tree_4_3_u04_r8_network.node[24].content_store 	decision_ratio[24] 	0.035962072155412
scalar tree_4_3_u04_r8_network.node[25].core_layer 	interests[25] 	11876
scalar tree_4_3_u04_r8_network.node[25].core_layer 	data[25] 	8682
scalar tree_4_3_u04_r8_network.node[25].content_store 	p_hit[25] 	0.26894577298754
scalar tree_4_3_u04_r8_network.node[25].content_store 	hits[25] 	3194
scalar tree_4_3_u04_r8_network.node[25].content_store 	misses[25] 	8682
scalar tree_4_3_u04_r8_network.node[25].content_store 	decision_yes[25] 	232
scalar tree_4_3_u04_r8_network.node[25].content_store 	decision_no[25] 	8450
scalar tree_4_3_u04_r8_network.node[25].content_store 	decision_ratio[25] 	0.026721953466943
scalar tree_4_3_u04_r8_network.node[26].core_layer 	interests[26] 	11987
scalar tree_4_3_u04_r8_network.node[26].core_layer 	data[26] 	8893
scalar tree_4_3_u04_r8_network.node[26].content_store 	p_hit[26] 	0.25819637941103
scalar tree_4_3_u04_r8_network.node[26].content_store 	hits[26] 	3095
scalar tree_4_3_u04_r8_network.node[26].content_store 	misses[26] 	8892
scalar tree_4_3_u04_r8_network.node[26].content_store 	decision_yes[26] 	239
scalar tree_4_3_u04_r8_network.node[26].content_store 	decision_no[26] 	8654
scalar tree_4_3_u04_r8_network.node[26].content_store 	decision_ratio[26] 	0.026875070279996
scalar tree_4_3_u04_r8_network.node[27].core_layer 	interests[27] 	12195
scalar tree_4_3_u04_r8_network.node[27].core_layer 	data[27] 	8929
scalar tree_4_3_u04_r8_network.node[27].content_store 	p_hit[27] 	0.26765067650677
scalar tree_4_3_u04_r8_network.node[27].content_store 	hits[27] 	3264
scalar tree_4_3_u04_r8_network.node[27].content_store 	misses[27] 	8931
scalar tree_4_3_u04_r8_network.node[27].content_store 	decision_yes[27] 	256
scalar tree_4_3_u04_r8_network.node[27].content_store 	decision_no[27] 	8673
scalar tree_4_3_u04_r8_network.node[27].content_store 	decision_ratio[27] 	0.028670623810057
scalar tree_4_3_u04_r8_network.node[28].core_layer 	interests[28] 	11934
scalar tree_4_3_u04_r8_network.node[28].core_layer 	data[28] 	8760
scalar tree_4_3_u04_r8_network.node[28].content_store 	p_hit[28] 	0.26596279537456
scalar tree_4_3_u04_r8_network.node[28].content_store 	hits[28] 	3174
scalar tree_4_3_u04_r8_network.node[28].content_store 	misses[28] 	8760
scalar tree_4_3_u04_r8_network.node[28].content_store 	decision_yes[28] 	305
scalar tree_4_3_u04_r8_network.node[28].content_store 	decision_no[28] 	8455
scalar tree_4_3_u04_r8_network.node[28].content_store 	decision_ratio[28] 	0.034817351598174
scalar tree_4_3_u04_r8_network.node[29].core_layer 	interests[29] 	12191
scalar tree_4_3_u04_r8_network.node[29].core_layer 	data[29] 	8890
scalar tree_4_3_u04_r8_network.node[29].content_store 	p_hit[29] 	0.27077352145025
scalar tree_4_3_u04_r8_network.node[29].content_store 	hits[29] 	3301
scalar tree_4_3_u04_r8_network.node[29].content_store 	misses[29] 	8890
scalar tree_4_3_u04_r8_network.node[29].content_store 	decision_yes[29] 	239
scalar tree_4_3_u04_r8_network.node[29].content_store 	decision_no[29] 	8651
scalar tree_4_3_u04_r8_network.node[29].content_store 	decision_ratio[29] 	0.026884139482565
scalar tree_4_3_u04_r8_network.node[30].core_layer 	interests[30] 	12043
scalar tree_4_3_u04_r8_network.node[30].core_layer 	data[30] 	8807
scalar tree_4_3_u04_r8_network.node[30].content_store 	p_hit[30] 	0.26862077555426
scalar tree_4_3_u04_r8_network.node[30].content_store 	hits[30] 	3235
scalar tree_4_3_u04_r8_network.node[30].content_store 	misses[30] 	8808
scalar tree_4_3_u04_r8_network.node[30].content_store 	decision_yes[30] 	243
scalar tree_4_3_u04_r8_network.node[30].content_store 	decision_no[30] 	8564
scalar tree_4_3_u04_r8_network.node[30].content_store 	decision_ratio[30] 	0.027591688429658
scalar tree_4_3_u04_r8_network.node[31].core_layer 	interests[31] 	11847
scalar tree_4_3_u04_r8_network.node[31].core_layer 	data[31] 	8747
scalar tree_4_3_u04_r8_network.node[31].content_store 	p_hit[31] 	0.2616696210011
scalar tree_4_3_u04_r8_network.node[31].content_store 	hits[31] 	3100
scalar tree_4_3_u04_r8_network.node[31].content_store 	misses[31] 	8747
scalar tree_4_3_u04_r8_network.node[31].content_store 	decision_yes[31] 	291
scalar tree_4_3_u04_r8_network.node[31].content_store 	decision_no[31] 	8456
scalar tree_4_3_u04_r8_network.node[31].content_store 	decision_ratio[31] 	0.033268549216874
scalar tree_4_3_u04_r8_network.node[32].core_layer 	interests[32] 	11996
scalar tree_4_3_u04_r8_network.node[32].core_layer 	data[32] 	8767
scalar tree_4_3_u04_r8_network.node[32].content_store 	p_hit[32] 	0.2691730576859
scalar tree_4_3_u04_r8_network.node[32].content_store 	hits[32] 	3229
scalar tree_4_3_u04_r8_network.node[32].content_store 	misses[32] 	8767
scalar tree_4_3_u04_r8_network.node[32].content_store 	decision_yes[32] 	257
scalar tree_4_3_u04_r8_network.node[32].content_store 	decision_no[32] 	8510
scalar tree_4_3_u04_r8_network.node[32].content_store 	decision_ratio[32] 	0.029314474734801
scalar tree_4_3_u04_r8_network.node[33].core_layer 	interests[33] 	12191
scalar tree_4_3_u04_r8_network.node[33].core_layer 	data[33] 	8864
scalar tree_4_3_u04_r8_network.node[33].content_store 	p_hit[33] 	0.2729062423099
scalar tree_4_3_u04_r8_network.node[33].content_store 	hits[33] 	3327
scalar tree_4_3_u04_r8_network.node[33].content_store 	misses[33] 	8864
scalar tree_4_3_u04_r8_network.node[33].content_store 	decision_yes[33] 	271
scalar tree_4_3_u04_r8_network.node[33].content_store 	decision_no[33] 	8593
scalar tree_4_3_u04_r8_network.node[33].content_store 	decision_ratio[33] 	0.030573104693141
scalar tree_4_3_u04_r8_network.node[34].core_layer 	interests[34] 	12055
scalar tree_4_3_u04_r8_network.node[34].core_layer 	data[34] 	8905
scalar tree_4_3_u04_r8_network.node[34].content_store 	p_hit[34] 	0.26130236416425
scalar tree_4_3_u04_r8_network.node[34].content_store 	hits[34] 	3150
scalar tree_4_3_u04_r8_network.node[34].content_store 	misses[34] 	8905
scalar tree_4_3_u04_r8_network.node[34].content_store 	decision_yes[34] 	287
scalar tree_4_3_u04_r8_network.node[34].content_store 	decision_no[34] 	8618
scalar tree_4_3_u04_r8_network.node[34].content_store 	decision_ratio[34] 	0.032229084783829
scalar tree_4_3_u04_r8_network.node[35].core_layer 	interests[35] 	12128
scalar tree_4_3_u04_r8_network.node[35].core_layer 	data[35] 	8911
scalar tree_4_3_u04_r8_network.node[35].content_store 	p_hit[35] 	0.26525395778364
scalar tree_4_3_u04_r8_network.node[35].content_store 	hits[35] 	3217
scalar tree_4_3_u04_r8_network.node[35].content_store 	misses[35] 	8911
scalar tree_4_3_u04_r8_network.node[35].content_store 	decision_yes[35] 	292
scalar tree_4_3_u04_r8_network.node[35].content_store 	decision_no[35] 	8619
scalar tree_4_3_u04_r8_network.node[35].content_store 	decision_ratio[35] 	0.032768488385142
scalar tree_4_3_u04_r8_network.node[36].core_layer 	interests[36] 	11917
scalar tree_4_3_u04_r8_network.node[36].core_layer 	data[36] 	8672
scalar tree_4_3_u04_r8_network.node[36].content_store 	p_hit[36] 	0.27230007552236
scalar tree_4_3_u04_r8_network.node[36].content_store 	hits[36] 	3245
scalar tree_4_3_u04_r8_network.node[36].content_store 	misses[36] 	8672
scalar tree_4_3_u04_r8_network.node[36].content_store 	decision_yes[36] 	274
scalar tree_4_3_u04_r8_network.node[36].content_store 	decision_no[36] 	8398
scalar tree_4_3_u04_r8_network.node[36].content_store 	decision_ratio[36] 	0.03159594095941
scalar tree_4_3_u04_r8_network.node[37].core_layer 	interests[37] 	12040
scalar tree_4_3_u04_r8_network.node[37].core_layer 	data[37] 	8848
scalar tree_4_3_u04_r8_network.node[37].content_store 	p_hit[37] 	0.26495016611296
scalar tree_4_3_u04_r8_network.node[37].content_store 	hits[37] 	3190
scalar tree_4_3_u04_r8_network.node[37].content_store 	misses[37] 	8850
scalar tree_4_3_u04_r8_network.node[37].content_store 	decision_yes[37] 	270
scalar tree_4_3_u04_r8_network.node[37].content_store 	decision_no[37] 	8578
scalar tree_4_3_u04_r8_network.node[37].content_store 	decision_ratio[37] 	0.030515370705244
scalar tree_4_3_u04_r8_network.node[38].core_layer 	interests[38] 	11857
scalar tree_4_3_u04_r8_network.node[38].core_layer 	data[38] 	8860
scalar tree_4_3_u04_r8_network.node[38].content_store 	p_hit[38] 	0.25276208147086
scalar tree_4_3_u04_r8_network.node[38].content_store 	hits[38] 	2997
scalar tree_4_3_u04_r8_network.node[38].content_store 	misses[38] 	8860
scalar tree_4_3_u04_r8_network.node[38].content_store 	decision_yes[38] 	283
scalar tree_4_3_u04_r8_network.node[38].content_store 	decision_no[38] 	8577
scalar tree_4_3_u04_r8_network.node[38].content_store 	decision_ratio[38] 	0.031941309255079
scalar tree_4_3_u04_r8_network.node[39].core_layer 	interests[39] 	11824
scalar tree_4_3_u04_r8_network.node[39].core_layer 	data[39] 	8666
scalar tree_4_3_u04_r8_network.node[39].content_store 	p_hit[39] 	0.26708389715832
scalar tree_4_3_u04_r8_network.node[39].content_store 	hits[39] 	3158
scalar tree_4_3_u04_r8_network.node[39].content_store 	misses[39] 	8666
scalar tree_4_3_u04_r8_network.node[39].content_store 	decision_yes[39] 	261
scalar tree_4_3_u04_r8_network.node[39].content_store 	decision_no[39] 	8405
scalar tree_4_3_u04_r8_network.node[39].content_store 	decision_ratio[39] 	0.030117701361643
scalar tree_4_3_u04_r8_network.client[13] 	hdistance[13] 	2.8062948010217
scalar tree_4_3_u04_r8_network.client[13] 	downloads[13] 	12137
scalar tree_4_3_u04_r8_network.client[13] 	avg_time[13] 	0.004244079431
scalar tree_4_3_u04_r8_network.client[14] 	hdistance[14] 	2.8517342248224
scalar tree_4_3_u04_r8_network.client[14] 	downloads[14] 	11965
scalar tree_4_3_u04_r8_network.client[14] 	avg_time[14] 	0.004311405299
scalar tree_4_3_u04_r8_network.client[15] 	hdistance[15] 	2.8320072932206
scalar tree_4_3_u04_r8_network.client[15] 	downloads[15] 	12066
scalar tree_4_3_u04_r8_network.client[15] 	avg_time[15] 	0.00428288624
scalar tree_4_3_u04_r8_network.client[16] 	hdistance[16] 	2.8240491417031
scalar tree_4_3_u04_r8_network.client[16] 	downloads[16] 	11884
scalar tree_4_3_u04_r8_network.client[16] 	avg_time[16] 	0.004273137389
scalar tree_4_3_u04_r8_network.client[17] 	hdistance[17] 	2.8365231926452
scalar tree_4_3_u04_r8_network.client[17] 	downloads[17] 	11965
scalar tree_4_3_u04_r8_network.client[17] 	avg_time[17] 	0.004291883681
scalar tree_4_3_u04_r8_network.client[18] 	hdistance[18] 	2.7999163529904
scalar tree_4_3_u04_r8_network.client[18] 	downloads[18] 	11955
scalar tree_4_3_u04_r8_network.client[18] 	avg_time[18] 	0.004237931944
scalar tree_4_3_u04_r8_network.client[19] 	hdistance[19] 	2.7803738317757
scalar tree_4_3_u04_r8_network.client[19] 	downloads[19] 	11984
scalar tree_4_3_u04_r8_network.client[19] 	avg_time[19] 	0.00420927604
scalar tree_4_3_u04_r8_network.client[20] 	hdistance[20] 	2.8049995847521
scalar tree_4_3_u04_r8_network.client[20] 	downloads[20] 	12041
scalar tree_4_3_u04_r8_network.client[20] 	avg_time[20] 	0.004242667874
scalar tree_4_3_u04_r8_network.client[21] 	hdistance[21] 	2.8267940979209
scalar tree_4_3_u04_r8_network.client[21] 	downloads[21] 	11928
scalar tree_4_3_u04_r8_network.client[21] 	avg_time[21] 	0.004276720043
scalar tree_4_3_u04_r8_network.client[22] 	hdistance[22] 	2.823598424537
scalar tree_4_3_u04_r8_network.client[22] 	downloads[22] 	11933
scalar tree_4_3_u04_r8_network.client[22] 	avg_time[22] 	0.00427144946
scalar tree_4_3_u04_r8_network.client[23] 	hdistance[23] 	2.8393453573814
scalar tree_4_3_u04_r8_network.client[23] 	downloads[23] 	11976
scalar tree_4_3_u04_r8_network.client[23] 	avg_time[23] 	0.004294753183
scalar tree_4_3_u04_r8_network.client[24] 	hdistance[24] 	2.804808097849
scalar tree_4_3_u04_r8_network.client[24] 	downloads[24] 	11855
scalar tree_4_3_u04_r8_network.client[24] 	avg_time[24] 	0.004245387751
scalar tree_4_3_u04_r8_network.client[25] 	hdistance[25] 	2.8420343550017
scalar tree_4_3_u04_r8_network.client[25] 	downloads[25] 	11876
scalar tree_4_3_u04_r8_network.client[25] 	avg_time[25] 	0.004290835687
scalar tree_4_3_u04_r8_network.client[26] 	hdistance[26] 	2.8822155488822
scalar tree_4_3_u04_r8_network.client[26] 	downloads[26] 	11988
scalar tree_4_3_u04_r8_network.client[26] 	avg_time[26] 	0.004353183517
scalar tree_4_3_u04_r8_network.client[27] 	hdistance[27] 	2.8413844008857
scalar tree_4_3_u04_r8_network.client[27] 	downloads[27] 	12193
scalar tree_4_3_u04_r8_network.client[27] 	avg_time[27] 	0.004291229992
scalar tree_4_3_u04_r8_network.client[28] 	hdistance[28] 	2.8288922406569
scalar tree_4_3_u04_r8_network.client[28] 	downloads[28] 	11934
scalar tree_4_3_u04_r8_network.client[28] 	avg_time[28] 	0.004279031716
scalar tree_4_3_u04_r8_network.client[29] 	hdistance[29] 	2.8279878598966
scalar tree_4_3_u04_r8_network.client[29] 	downloads[29] 	12191
scalar tree_4_3_u04_r8_network.client[29] 	avg_time[29] 	0.004273805504
scalar tree_4_3_u04_r8_network.client[30] 	hdistance[30] 	2.8357415711676
scalar tree_4_3_u04_r8_network.client[30] 	downloads[30] 	12042
scalar tree_4_3_u04_r8_network.client[30] 	avg_time[30] 	0.004285829926
scalar tree_4_3_u04_r8_network.client[31] 	hdistance[31] 	2.8502574491432
scalar tree_4_3_u04_r8_network.client[31] 	downloads[31] 	11847
scalar tree_4_3_u04_r8_network.client[31] 	avg_time[31] 	0.004308591474
scalar tree_4_3_u04_r8_network.client[32] 	hdistance[32] 	2.8314438146049
scalar tree_4_3_u04_r8_network.client[32] 	downloads[32] 	11996
scalar tree_4_3_u04_r8_network.client[32] 	avg_time[32] 	0.004278589874
scalar tree_4_3_u04_r8_network.client[33] 	hdistance[33] 	2.8169961446969
scalar tree_4_3_u04_r8_network.client[33] 	downloads[33] 	12191
scalar tree_4_3_u04_r8_network.client[33] 	avg_time[33] 	0.00425657966
scalar tree_4_3_u04_r8_network.client[34] 	hdistance[34] 	2.8543343011199
scalar tree_4_3_u04_r8_network.client[34] 	downloads[34] 	12055
scalar tree_4_3_u04_r8_network.client[34] 	avg_time[34] 	0.004314389357
scalar tree_4_3_u04_r8_network.client[35] 	hdistance[35] 	2.840864116095
scalar tree_4_3_u04_r8_network.client[35] 	downloads[35] 	12128
scalar tree_4_3_u04_r8_network.client[35] 	avg_time[35] 	0.004293428687
scalar tree_4_3_u04_r8_network.client[36] 	hdistance[36] 	2.81404715952
scalar tree_4_3_u04_r8_network.client[36] 	downloads[36] 	11917
scalar tree_4_3_u04_r8_network.client[36] 	avg_time[36] 	0.004253584334
scalar tree_4_3_u04_r8_network.client[37] 	hdistance[37] 	2.8439109486626
scalar tree_4_3_u04_r8_network.client[37] 	downloads[37] 	12038
scalar tree_4_3_u04_r8_network.client[37] 	avg_time[37] 	0.004297700152
scalar tree_4_3_u04_r8_network.client[38] 	hdistance[38] 	2.8877456354896
scalar tree_4_3_u04_r8_network.client[38] 	downloads[38] 	11857
scalar tree_4_3_u04_r8_network.client[38] 	avg_time[38] 	0.004365856876
scalar tree_4_3_u04_r8_network.client[39] 	hdistance[39] 	2.8224797023004
scalar tree_4_3_u04_r8_network.client[39] 	downloads[39] 	11824
scalar tree_4_3_u04_r8_network.client[39] 	avg_time[39] 	0.004273001084
