version 2
run General-63-20160819-02:00:18-14109
attr a 0.9
attr cd fix0.01
attr configname General
attr cr lru
attr datetime 20160819-02:00:18
attr experiment General
attr fsize 1
attr inifile hw5115/scenario_A/NRR-FIX0.01.ini
attr iterationvars "$name=tree_4_3, $un=03, $rep=4, $cd=fix0.01, $cr=lru, $fsize=1, $a=0.9, $sl=nrr, $ttl=1000, $variance=0.05"
attr iterationvars2 "$name=tree_4_3, $un=03, $rep=4, $cd=fix0.01, $cr=lru, $fsize=1, $a=0.9, $sl=nrr, $ttl=1000, $variance=0.05, $repetition=0"
attr measurement "$name=tree_4_3, $un=03, $rep=4, $cd=fix0.01, $cr=lru, $fsize=1, $a=0.9, $sl=nrr, $ttl=1000, $variance=0.05"
attr name tree_4_3
attr network networks.${name}_u${un}_r${rep}_network
attr processid 14109
attr rep 4
attr repetition 0
attr replication #0
attr resultdir results
attr runnumber 63
attr seedset 4
attr sl nrr
attr ttl 1000
attr un 03
attr variance 0.05

scalar . 	a 	0.9
scalar . 	fsize 	1
scalar . 	rep 	4
scalar . 	ttl 	1000
scalar . 	un 	03
scalar . 	variance 	0.05
scalar tree_4_3_u03_r4_network.content_distribution 	repo-0 	0
scalar tree_4_3_u03_r4_network.content_distribution 	client-0 	13
scalar tree_4_3_u03_r4_network.content_distribution 	client-1 	14
scalar tree_4_3_u03_r4_network.content_distribution 	client-2 	15
scalar tree_4_3_u03_r4_network.content_distribution 	client-3 	16
scalar tree_4_3_u03_r4_network.content_distribution 	client-4 	17
scalar tree_4_3_u03_r4_network.content_distribution 	client-5 	18
scalar tree_4_3_u03_r4_network.content_distribution 	client-6 	19
scalar tree_4_3_u03_r4_network.content_distribution 	client-7 	20
scalar tree_4_3_u03_r4_network.content_distribution 	client-8 	21
scalar tree_4_3_u03_r4_network.content_distribution 	client-9 	22
scalar tree_4_3_u03_r4_network.content_distribution 	client-10 	23
scalar tree_4_3_u03_r4_network.content_distribution 	client-11 	24
scalar tree_4_3_u03_r4_network.content_distribution 	client-12 	25
scalar tree_4_3_u03_r4_network.content_distribution 	client-13 	26
scalar tree_4_3_u03_r4_network.content_distribution 	client-14 	27
scalar tree_4_3_u03_r4_network.content_distribution 	client-15 	28
scalar tree_4_3_u03_r4_network.content_distribution 	client-16 	29
scalar tree_4_3_u03_r4_network.content_distribution 	client-17 	30
scalar tree_4_3_u03_r4_network.content_distribution 	client-18 	31
scalar tree_4_3_u03_r4_network.content_distribution 	client-19 	32
scalar tree_4_3_u03_r4_network.content_distribution 	client-20 	33
scalar tree_4_3_u03_r4_network.content_distribution 	client-21 	34
scalar tree_4_3_u03_r4_network.content_distribution 	client-22 	35
scalar tree_4_3_u03_r4_network.content_distribution 	client-23 	36
scalar tree_4_3_u03_r4_network.content_distribution 	client-24 	37
scalar tree_4_3_u03_r4_network.content_distribution 	client-25 	38
scalar tree_4_3_u03_r4_network.content_distribution 	client-26 	39
scalar tree_4_3_u03_r4_network.content_distribution 	repo-0_card 	100000
scalar tree_4_3_u03_r4_network.content_distribution 	repo-0_price 	0
scalar tree_4_3_u03_r4_network.statistics 	stabilization_time 	1821.1
scalar tree_4_3_u03_r4_network.statistics 	p_hit 	0.22352924475964
scalar tree_4_3_u03_r4_network.statistics 	interests 	25855.75
scalar tree_4_3_u03_r4_network.statistics 	data 	17715.8
scalar tree_4_3_u03_r4_network.statistics 	hdistance 	2.7368471689006
scalar tree_4_3_u03_r4_network.statistics 	avg_time 	0.004353031249
scalar tree_4_3_u03_r4_network.statistics 	downloads 	325593
scalar tree_4_3_u03_r4_network.statistics 	total_cost 	0
scalar tree_4_3_u03_r4_network.statistics 	total_replicas 	100000
scalar tree_4_3_u03_r4_network.statistics 	inner_hit 	0.43970232775275
scalar tree_4_3_u03_r4_network.node[0].core_layer 	interests[0] 	184033
scalar tree_4_3_u03_r4_network.node[0].core_layer 	repo_load[0] 	182429
scalar tree_4_3_u03_r4_network.node[0].core_layer 	data[0] 	0
scalar tree_4_3_u03_r4_network.node[0].core_layer 	repo_int[0] 	182429
scalar tree_4_3_u03_r4_network.node[0].content_store 	p_hit[0] 	0.0087158281395185
scalar tree_4_3_u03_r4_network.node[0].content_store 	hits[0] 	1604
scalar tree_4_3_u03_r4_network.node[0].content_store 	misses[0] 	182429
scalar tree_4_3_u03_r4_network.node[0].content_store 	decision_yes[0] 	1802
scalar tree_4_3_u03_r4_network.node[0].content_store 	decision_no[0] 	180627
scalar tree_4_3_u03_r4_network.node[0].content_store 	decision_ratio[0] 	0.0098778154788986
scalar tree_4_3_u03_r4_network.node[1].core_layer 	interests[1] 	89846
scalar tree_4_3_u03_r4_network.node[1].core_layer 	data[1] 	88148
scalar tree_4_3_u03_r4_network.node[1].content_store 	p_hit[1] 	0.018887874808005
scalar tree_4_3_u03_r4_network.node[1].content_store 	hits[1] 	1697
scalar tree_4_3_u03_r4_network.node[1].content_store 	misses[1] 	88149
scalar tree_4_3_u03_r4_network.node[1].content_store 	decision_yes[1] 	867
scalar tree_4_3_u03_r4_network.node[1].content_store 	decision_no[1] 	87281
scalar tree_4_3_u03_r4_network.node[1].content_store 	decision_ratio[1] 	0.0098357308163543
scalar tree_4_3_u03_r4_network.node[2].core_layer 	interests[2] 	84998
scalar tree_4_3_u03_r4_network.node[2].core_layer 	data[2] 	81402
scalar tree_4_3_u03_r4_network.node[2].content_store 	p_hit[2] 	0.042283347843479
scalar tree_4_3_u03_r4_network.node[2].content_store 	hits[2] 	3594
scalar tree_4_3_u03_r4_network.node[2].content_store 	misses[2] 	81404
scalar tree_4_3_u03_r4_network.node[2].content_store 	decision_yes[2] 	824
scalar tree_4_3_u03_r4_network.node[2].content_store 	decision_no[2] 	80578
scalar tree_4_3_u03_r4_network.node[2].content_store 	decision_ratio[2] 	0.010122601410285
scalar tree_4_3_u03_r4_network.node[3].core_layer 	interests[3] 	42088
scalar tree_4_3_u03_r4_network.node[3].core_layer 	data[3] 	39940
scalar tree_4_3_u03_r4_network.node[3].content_store 	p_hit[3] 	0.051035924729139
scalar tree_4_3_u03_r4_network.node[3].content_store 	hits[3] 	2148
scalar tree_4_3_u03_r4_network.node[3].content_store 	misses[3] 	39940
scalar tree_4_3_u03_r4_network.node[3].content_store 	decision_yes[3] 	393
scalar tree_4_3_u03_r4_network.node[3].content_store 	decision_no[3] 	39547
scalar tree_4_3_u03_r4_network.node[3].content_store 	decision_ratio[3] 	0.0098397596394592
scalar tree_4_3_u03_r4_network.node[4].core_layer 	interests[4] 	26825
scalar tree_4_3_u03_r4_network.node[4].core_layer 	data[4] 	24404
scalar tree_4_3_u03_r4_network.node[4].content_store 	p_hit[4] 	0.090214352283318
scalar tree_4_3_u03_r4_network.node[4].content_store 	hits[4] 	2420
scalar tree_4_3_u03_r4_network.node[4].content_store 	misses[4] 	24405
scalar tree_4_3_u03_r4_network.node[4].content_store 	decision_yes[4] 	258
scalar tree_4_3_u03_r4_network.node[4].content_store 	decision_no[4] 	24146
scalar tree_4_3_u03_r4_network.node[4].content_store 	decision_ratio[4] 	0.010572037370923
scalar tree_4_3_u03_r4_network.node[5].core_layer 	interests[5] 	33862
scalar tree_4_3_u03_r4_network.node[5].core_layer 	data[5] 	29206
scalar tree_4_3_u03_r4_network.node[5].content_store 	p_hit[5] 	0.13749926170929
scalar tree_4_3_u03_r4_network.node[5].content_store 	hits[5] 	4656
scalar tree_4_3_u03_r4_network.node[5].content_store 	misses[5] 	29206
scalar tree_4_3_u03_r4_network.node[5].content_store 	decision_yes[5] 	287
scalar tree_4_3_u03_r4_network.node[5].content_store 	decision_no[5] 	28919
scalar tree_4_3_u03_r4_network.node[5].content_store 	decision_ratio[5] 	0.0098267479285078
scalar tree_4_3_u03_r4_network.node[6].core_layer 	interests[6] 	31704
scalar tree_4_3_u03_r4_network.node[6].core_layer 	data[6] 	27845
scalar tree_4_3_u03_r4_network.node[6].content_store 	p_hit[6] 	0.12171965682564
scalar tree_4_3_u03_r4_network.node[6].content_store 	hits[6] 	3859
scalar tree_4_3_u03_r4_network.node[6].content_store 	misses[6] 	27845
scalar tree_4_3_u03_r4_network.node[6].content_store 	decision_yes[6] 	276
scalar tree_4_3_u03_r4_network.node[6].content_store 	decision_no[6] 	27569
scalar tree_4_3_u03_r4_network.node[6].content_store 	decision_ratio[6] 	0.0099120129287125
scalar tree_4_3_u03_r4_network.node[7].core_layer 	interests[7] 	32247
scalar tree_4_3_u03_r4_network.node[7].core_layer 	data[7] 	28382
scalar tree_4_3_u03_r4_network.node[7].content_store 	p_hit[7] 	0.11985611064595
scalar tree_4_3_u03_r4_network.node[7].content_store 	hits[7] 	3865
scalar tree_4_3_u03_r4_network.node[7].content_store 	misses[7] 	28382
scalar tree_4_3_u03_r4_network.node[7].content_store 	decision_yes[7] 	285
scalar tree_4_3_u03_r4_network.node[7].content_store 	decision_no[7] 	28097
scalar tree_4_3_u03_r4_network.node[7].content_store 	decision_ratio[7] 	0.010041575646537
scalar tree_4_3_u03_r4_network.node[8].core_layer 	interests[8] 	31065
scalar tree_4_3_u03_r4_network.node[8].core_layer 	data[8] 	28012
scalar tree_4_3_u03_r4_network.node[8].content_store 	p_hit[8] 	0.098245614035088
scalar tree_4_3_u03_r4_network.node[8].content_store 	hits[8] 	3052
scalar tree_4_3_u03_r4_network.node[8].content_store 	misses[8] 	28013
scalar tree_4_3_u03_r4_network.node[8].content_store 	decision_yes[8] 	286
scalar tree_4_3_u03_r4_network.node[8].content_store 	decision_no[8] 	27726
scalar tree_4_3_u03_r4_network.node[8].content_store 	decision_ratio[8] 	0.010209910038555
scalar tree_4_3_u03_r4_network.node[9].core_layer 	interests[9] 	30522
scalar tree_4_3_u03_r4_network.node[9].core_layer 	data[9] 	27469
scalar tree_4_3_u03_r4_network.node[9].content_store 	p_hit[9] 	0.099993447349453
scalar tree_4_3_u03_r4_network.node[9].content_store 	hits[9] 	3052
scalar tree_4_3_u03_r4_network.node[9].content_store 	misses[9] 	27470
scalar tree_4_3_u03_r4_network.node[9].content_store 	decision_yes[9] 	232
scalar tree_4_3_u03_r4_network.node[9].content_store 	decision_no[9] 	27237
scalar tree_4_3_u03_r4_network.node[9].content_store 	decision_ratio[9] 	0.0084458844515636
scalar tree_4_3_u03_r4_network.node[10].core_layer 	interests[10] 	30823
scalar tree_4_3_u03_r4_network.node[10].core_layer 	data[10] 	27603
scalar tree_4_3_u03_r4_network.node[10].content_store 	p_hit[10] 	0.10449988644843
scalar tree_4_3_u03_r4_network.node[10].content_store 	hits[10] 	3221
scalar tree_4_3_u03_r4_network.node[10].content_store 	misses[10] 	27602
scalar tree_4_3_u03_r4_network.node[10].content_store 	decision_yes[10] 	281
scalar tree_4_3_u03_r4_network.node[10].content_store 	decision_no[10] 	27322
scalar tree_4_3_u03_r4_network.node[10].content_store 	decision_ratio[10] 	0.010180052892802
scalar tree_4_3_u03_r4_network.node[11].core_layer 	interests[11] 	40242
scalar tree_4_3_u03_r4_network.node[11].core_layer 	data[11] 	35941
scalar tree_4_3_u03_r4_network.node[11].content_store 	p_hit[11] 	0.10687838576612
scalar tree_4_3_u03_r4_network.node[11].content_store 	hits[11] 	4301
scalar tree_4_3_u03_r4_network.node[11].content_store 	misses[11] 	35941
scalar tree_4_3_u03_r4_network.node[11].content_store 	decision_yes[11] 	331
scalar tree_4_3_u03_r4_network.node[11].content_store 	decision_no[11] 	35610
scalar tree_4_3_u03_r4_network.node[11].content_store 	decision_ratio[11] 	0.0092095378537047
scalar tree_4_3_u03_r4_network.node[12].core_layer 	interests[12] 	20523
scalar tree_4_3_u03_r4_network.node[12].core_layer 	data[12] 	17926
scalar tree_4_3_u03_r4_network.node[12].content_store 	p_hit[12] 	0.12658967987136
scalar tree_4_3_u03_r4_network.node[12].content_store 	hits[12] 	2598
scalar tree_4_3_u03_r4_network.node[12].content_store 	misses[12] 	17925
scalar tree_4_3_u03_r4_network.node[12].content_store 	decision_yes[12] 	180
scalar tree_4_3_u03_r4_network.node[12].content_store 	decision_no[12] 	17746
scalar tree_4_3_u03_r4_network.node[12].content_store 	decision_ratio[12] 	0.010041280821154
scalar tree_4_3_u03_r4_network.node[13].core_layer 	interests[13] 	12488
scalar tree_4_3_u03_r4_network.node[13].core_layer 	data[13] 	9247
scalar tree_4_3_u03_r4_network.node[13].content_store 	p_hit[13] 	0.25944907110826
scalar tree_4_3_u03_r4_network.node[13].content_store 	hits[13] 	3240
scalar tree_4_3_u03_r4_network.node[13].content_store 	misses[13] 	9248
scalar tree_4_3_u03_r4_network.node[13].content_store 	decision_yes[13] 	88
scalar tree_4_3_u03_r4_network.node[13].content_store 	decision_no[13] 	9159
scalar tree_4_3_u03_r4_network.node[13].content_store 	decision_ratio[13] 	0.0095165999783714
scalar tree_4_3_u03_r4_network.node[14].core_layer 	interests[14] 	13654
scalar tree_4_3_u03_r4_network.node[14].core_layer 	data[14] 	9319
scalar tree_4_3_u03_r4_network.node[14].content_store 	p_hit[14] 	0.31748938040135
scalar tree_4_3_u03_r4_network.node[14].content_store 	hits[14] 	4335
scalar tree_4_3_u03_r4_network.node[14].content_store 	misses[14] 	9319
scalar tree_4_3_u03_r4_network.node[14].content_store 	decision_yes[14] 	74
scalar tree_4_3_u03_r4_network.node[14].content_store 	decision_no[14] 	9245
scalar tree_4_3_u03_r4_network.node[14].content_store 	decision_ratio[14] 	0.0079407661766284
scalar tree_4_3_u03_r4_network.node[15].core_layer 	interests[15] 	13513
scalar tree_4_3_u03_r4_network.node[15].core_layer 	data[15] 	9391
scalar tree_4_3_u03_r4_network.node[15].content_store 	p_hit[15] 	0.30503959150448
scalar tree_4_3_u03_r4_network.node[15].content_store 	hits[15] 	4122
scalar tree_4_3_u03_r4_network.node[15].content_store 	misses[15] 	9391
scalar tree_4_3_u03_r4_network.node[15].content_store 	decision_yes[15] 	96
scalar tree_4_3_u03_r4_network.node[15].content_store 	decision_no[15] 	9295
scalar tree_4_3_u03_r4_network.node[15].content_store 	decision_ratio[15] 	0.010222553508679
scalar tree_4_3_u03_r4_network.node[16].core_layer 	interests[16] 	13237
scalar tree_4_3_u03_r4_network.node[16].core_layer 	data[16] 	9492
scalar tree_4_3_u03_r4_network.node[16].content_store 	p_hit[16] 	0.28291909042834
scalar tree_4_3_u03_r4_network.node[16].content_store 	hits[16] 	3745
scalar tree_4_3_u03_r4_network.node[16].content_store 	misses[16] 	9492
scalar tree_4_3_u03_r4_network.node[16].content_store 	decision_yes[16] 	88
scalar tree_4_3_u03_r4_network.node[16].content_store 	decision_no[16] 	9404
scalar tree_4_3_u03_r4_network.node[16].content_store 	decision_ratio[16] 	0.0092709650231774
scalar tree_4_3_u03_r4_network.node[17].core_layer 	interests[17] 	13046
scalar tree_4_3_u03_r4_network.node[17].core_layer 	data[17] 	9349
scalar tree_4_3_u03_r4_network.node[17].content_store 	p_hit[17] 	0.28330522765599
scalar tree_4_3_u03_r4_network.node[17].content_store 	hits[17] 	3696
scalar tree_4_3_u03_r4_network.node[17].content_store 	misses[17] 	9350
scalar tree_4_3_u03_r4_network.node[17].content_store 	decision_yes[17] 	87
scalar tree_4_3_u03_r4_network.node[17].content_store 	decision_no[17] 	9262
scalar tree_4_3_u03_r4_network.node[17].content_store 	decision_ratio[17] 	0.009305808107819
scalar tree_4_3_u03_r4_network.node[18].core_layer 	interests[18] 	14339
scalar tree_4_3_u03_r4_network.node[18].core_layer 	data[18] 	9606
scalar tree_4_3_u03_r4_network.node[18].content_store 	p_hit[18] 	0.33007880605342
scalar tree_4_3_u03_r4_network.node[18].content_store 	hits[18] 	4733
scalar tree_4_3_u03_r4_network.node[18].content_store 	misses[18] 	9606
scalar tree_4_3_u03_r4_network.node[18].content_store 	decision_yes[18] 	91
scalar tree_4_3_u03_r4_network.node[18].content_store 	decision_no[18] 	9515
scalar tree_4_3_u03_r4_network.node[18].content_store 	decision_ratio[18] 	0.0094732458879867
scalar tree_4_3_u03_r4_network.node[19].core_layer 	interests[19] 	12956
scalar tree_4_3_u03_r4_network.node[19].core_layer 	data[19] 	9307
scalar tree_4_3_u03_r4_network.node[19].content_store 	p_hit[19] 	0.28164556962025
scalar tree_4_3_u03_r4_network.node[19].content_store 	hits[19] 	3649
scalar tree_4_3_u03_r4_network.node[19].content_store 	misses[19] 	9307
scalar tree_4_3_u03_r4_network.node[19].content_store 	decision_yes[19] 	95
scalar tree_4_3_u03_r4_network.node[19].content_store 	decision_no[19] 	9212
scalar tree_4_3_u03_r4_network.node[19].content_store 	decision_ratio[19] 	0.010207370796175
scalar tree_4_3_u03_r4_network.node[20].core_layer 	interests[20] 	12996
scalar tree_4_3_u03_r4_network.node[20].core_layer 	data[20] 	9368
scalar tree_4_3_u03_r4_network.node[20].content_store 	p_hit[20] 	0.27916281932902
scalar tree_4_3_u03_r4_network.node[20].content_store 	hits[20] 	3628
scalar tree_4_3_u03_r4_network.node[20].content_store 	misses[20] 	9368
scalar tree_4_3_u03_r4_network.node[20].content_store 	decision_yes[20] 	98
scalar tree_4_3_u03_r4_network.node[20].content_store 	decision_no[20] 	9270
scalar tree_4_3_u03_r4_network.node[20].content_store 	decision_ratio[20] 	0.010461144321093
scalar tree_4_3_u03_r4_network.node[21].core_layer 	interests[21] 	12797
scalar tree_4_3_u03_r4_network.node[21].core_layer 	data[21] 	9427
scalar tree_4_3_u03_r4_network.node[21].content_store 	p_hit[21] 	0.26334297100883
scalar tree_4_3_u03_r4_network.node[21].content_store 	hits[21] 	3370
scalar tree_4_3_u03_r4_network.node[21].content_store 	misses[21] 	9427
scalar tree_4_3_u03_r4_network.node[21].content_store 	decision_yes[21] 	99
scalar tree_4_3_u03_r4_network.node[21].content_store 	decision_no[21] 	9328
scalar tree_4_3_u03_r4_network.node[21].content_store 	decision_ratio[21] 	0.010501750291715
scalar tree_4_3_u03_r4_network.node[22].core_layer 	interests[22] 	13322
scalar tree_4_3_u03_r4_network.node[22].core_layer 	data[22] 	9496
scalar tree_4_3_u03_r4_network.node[22].content_store 	p_hit[22] 	0.28719411499775
scalar tree_4_3_u03_r4_network.node[22].content_store 	hits[22] 	3826
scalar tree_4_3_u03_r4_network.node[22].content_store 	misses[22] 	9496
scalar tree_4_3_u03_r4_network.node[22].content_store 	decision_yes[22] 	100
scalar tree_4_3_u03_r4_network.node[22].content_store 	decision_no[22] 	9396
scalar tree_4_3_u03_r4_network.node[22].content_store 	decision_ratio[22] 	0.010530749789385
scalar tree_4_3_u03_r4_network.node[23].core_layer 	interests[23] 	13032
scalar tree_4_3_u03_r4_network.node[23].core_layer 	data[23] 	9095
scalar tree_4_3_u03_r4_network.node[23].content_store 	p_hit[23] 	0.30210251688152
scalar tree_4_3_u03_r4_network.node[23].content_store 	hits[23] 	3937
scalar tree_4_3_u03_r4_network.node[23].content_store 	misses[23] 	9095
scalar tree_4_3_u03_r4_network.node[23].content_store 	decision_yes[23] 	108
scalar tree_4_3_u03_r4_network.node[23].content_store 	decision_no[23] 	8987
scalar tree_4_3_u03_r4_network.node[23].content_store 	decision_ratio[23] 	0.011874656404618
scalar tree_4_3_u03_r4_network.node[24].core_layer 	interests[24] 	13286
scalar tree_4_3_u03_r4_network.node[24].core_layer 	data[24] 	9267
scalar tree_4_3_u03_r4_network.node[24].content_store 	p_hit[24] 	0.30249887099202
scalar tree_4_3_u03_r4_network.node[24].content_store 	hits[24] 	4019
scalar tree_4_3_u03_r4_network.node[24].content_store 	misses[24] 	9267
scalar tree_4_3_u03_r4_network.node[24].content_store 	decision_yes[24] 	102
scalar tree_4_3_u03_r4_network.node[24].content_store 	decision_no[24] 	9165
scalar tree_4_3_u03_r4_network.node[24].content_store 	decision_ratio[24] 	0.011006798316607
scalar tree_4_3_u03_r4_network.node[25].core_layer 	interests[25] 	12972
scalar tree_4_3_u03_r4_network.node[25].core_layer 	data[25] 	9351
scalar tree_4_3_u03_r4_network.node[25].content_store 	p_hit[25] 	0.27913968547641
scalar tree_4_3_u03_r4_network.node[25].content_store 	hits[25] 	3621
scalar tree_4_3_u03_r4_network.node[25].content_store 	misses[25] 	9351
scalar tree_4_3_u03_r4_network.node[25].content_store 	decision_yes[25] 	84
scalar tree_4_3_u03_r4_network.node[25].content_store 	decision_no[25] 	9267
scalar tree_4_3_u03_r4_network.node[25].content_store 	decision_ratio[25] 	0.0089829964709657
scalar tree_4_3_u03_r4_network.node[26].core_layer 	interests[26] 	13258
scalar tree_4_3_u03_r4_network.node[26].core_layer 	data[26] 	9454
scalar tree_4_3_u03_r4_network.node[26].content_store 	p_hit[26] 	0.28692110423895
scalar tree_4_3_u03_r4_network.node[26].content_store 	hits[26] 	3804
scalar tree_4_3_u03_r4_network.node[26].content_store 	misses[26] 	9454
scalar tree_4_3_u03_r4_network.node[26].content_store 	decision_yes[26] 	91
scalar tree_4_3_u03_r4_network.node[26].content_store 	decision_no[26] 	9363
scalar tree_4_3_u03_r4_network.node[26].content_store 	decision_ratio[26] 	0.0096255553204993
scalar tree_4_3_u03_r4_network.node[27].core_layer 	interests[27] 	13462
scalar tree_4_3_u03_r4_network.node[27].core_layer 	data[27] 	9300
scalar tree_4_3_u03_r4_network.node[27].content_store 	p_hit[27] 	0.30901797652652
scalar tree_4_3_u03_r4_network.node[27].content_store 	hits[27] 	4160
scalar tree_4_3_u03_r4_network.node[27].content_store 	misses[27] 	9302
scalar tree_4_3_u03_r4_network.node[27].content_store 	decision_yes[27] 	96
scalar tree_4_3_u03_r4_network.node[27].content_store 	decision_no[27] 	9204
scalar tree_4_3_u03_r4_network.node[27].content_store 	decision_ratio[27] 	0.010322580645161
scalar tree_4_3_u03_r4_network.node[28].core_layer 	interests[28] 	12873
scalar tree_4_3_u03_r4_network.node[28].core_layer 	data[28] 	9117
scalar tree_4_3_u03_r4_network.node[28].content_store 	p_hit[28] 	0.29177347937544
scalar tree_4_3_u03_r4_network.node[28].content_store 	hits[28] 	3756
scalar tree_4_3_u03_r4_network.node[28].content_store 	misses[28] 	9117
scalar tree_4_3_u03_r4_network.node[28].content_store 	decision_yes[28] 	89
scalar tree_4_3_u03_r4_network.node[28].content_store 	decision_no[28] 	9028
scalar tree_4_3_u03_r4_network.node[28].content_store 	decision_ratio[28] 	0.0097619831084787
scalar tree_4_3_u03_r4_network.node[29].core_layer 	interests[29] 	12975
scalar tree_4_3_u03_r4_network.node[29].core_layer 	data[29] 	9376
scalar tree_4_3_u03_r4_network.node[29].content_store 	p_hit[29] 	0.27730250481696
scalar tree_4_3_u03_r4_network.node[29].content_store 	hits[29] 	3598
scalar tree_4_3_u03_r4_network.node[29].content_store 	misses[29] 	9377
scalar tree_4_3_u03_r4_network.node[29].content_store 	decision_yes[29] 	91
scalar tree_4_3_u03_r4_network.node[29].content_store 	decision_no[29] 	9285
scalar tree_4_3_u03_r4_network.node[29].content_store 	decision_ratio[29] 	0.0097056313993174
scalar tree_4_3_u03_r4_network.node[30].core_layer 	interests[30] 	13112
scalar tree_4_3_u03_r4_network.node[30].core_layer 	data[30] 	9405
scalar tree_4_3_u03_r4_network.node[30].content_store 	p_hit[30] 	0.28271812080537
scalar tree_4_3_u03_r4_network.node[30].content_store 	hits[30] 	3707
scalar tree_4_3_u03_r4_network.node[30].content_store 	misses[30] 	9405
scalar tree_4_3_u03_r4_network.node[30].content_store 	decision_yes[30] 	88
scalar tree_4_3_u03_r4_network.node[30].content_store 	decision_no[30] 	9317
scalar tree_4_3_u03_r4_network.node[30].content_store 	decision_ratio[30] 	0.0093567251461988
scalar tree_4_3_u03_r4_network.node[31].core_layer 	interests[31] 	12812
scalar tree_4_3_u03_r4_network.node[31].core_layer 	data[31] 	9200
scalar tree_4_3_u03_r4_network.node[31].content_store 	p_hit[31] 	0.28192319700281
scalar tree_4_3_u03_r4_network.node[31].content_store 	hits[31] 	3612
scalar tree_4_3_u03_r4_network.node[31].content_store 	misses[31] 	9200
scalar tree_4_3_u03_r4_network.node[31].content_store 	decision_yes[31] 	79
scalar tree_4_3_u03_r4_network.node[31].content_store 	decision_no[31] 	9121
scalar tree_4_3_u03_r4_network.node[31].content_store 	decision_ratio[31] 	0.0085869565217391
scalar tree_4_3_u03_r4_network.node[32].core_layer 	interests[32] 	12662
scalar tree_4_3_u03_r4_network.node[32].core_layer 	data[32] 	9446
scalar tree_4_3_u03_r4_network.node[32].content_store 	p_hit[32] 	0.25390933501816
scalar tree_4_3_u03_r4_network.node[32].content_store 	hits[32] 	3215
scalar tree_4_3_u03_r4_network.node[32].content_store 	misses[32] 	9447
scalar tree_4_3_u03_r4_network.node[32].content_store 	decision_yes[32] 	95
scalar tree_4_3_u03_r4_network.node[32].content_store 	decision_no[32] 	9351
scalar tree_4_3_u03_r4_network.node[32].content_store 	decision_ratio[32] 	0.010057167054838
scalar tree_4_3_u03_r4_network.node[33].core_layer 	interests[33] 	12932
scalar tree_4_3_u03_r4_network.node[33].core_layer 	data[33] 	9497
scalar tree_4_3_u03_r4_network.node[33].content_store 	p_hit[33] 	0.26569749458707
scalar tree_4_3_u03_r4_network.node[33].content_store 	hits[33] 	3436
scalar tree_4_3_u03_r4_network.node[33].content_store 	misses[33] 	9496
scalar tree_4_3_u03_r4_network.node[33].content_store 	decision_yes[33] 	108
scalar tree_4_3_u03_r4_network.node[33].content_store 	decision_no[33] 	9389
scalar tree_4_3_u03_r4_network.node[33].content_store 	decision_ratio[33] 	0.011372012214383
scalar tree_4_3_u03_r4_network.node[34].core_layer 	interests[34] 	14196
scalar tree_4_3_u03_r4_network.node[34].core_layer 	data[34] 	9519
scalar tree_4_3_u03_r4_network.node[34].content_store 	p_hit[34] 	0.32945900253593
scalar tree_4_3_u03_r4_network.node[34].content_store 	hits[34] 	4677
scalar tree_4_3_u03_r4_network.node[34].content_store 	misses[34] 	9519
scalar tree_4_3_u03_r4_network.node[34].content_store 	decision_yes[34] 	81
scalar tree_4_3_u03_r4_network.node[34].content_store 	decision_no[34] 	9438
scalar tree_4_3_u03_r4_network.node[34].content_store 	decision_ratio[34] 	0.0085092971950835
scalar tree_4_3_u03_r4_network.node[35].core_layer 	interests[35] 	13012
scalar tree_4_3_u03_r4_network.node[35].core_layer 	data[35] 	9127
scalar tree_4_3_u03_r4_network.node[35].content_store 	p_hit[35] 	0.2985705502613
scalar tree_4_3_u03_r4_network.node[35].content_store 	hits[35] 	3885
scalar tree_4_3_u03_r4_network.node[35].content_store 	misses[35] 	9127
scalar tree_4_3_u03_r4_network.node[35].content_store 	decision_yes[35] 	88
scalar tree_4_3_u03_r4_network.node[35].content_store 	decision_no[35] 	9039
scalar tree_4_3_u03_r4_network.node[35].content_store 	decision_ratio[35] 	0.009641722362222
scalar tree_4_3_u03_r4_network.node[36].core_layer 	interests[36] 	13461
scalar tree_4_3_u03_r4_network.node[36].core_layer 	data[36] 	9291
scalar tree_4_3_u03_r4_network.node[36].content_store 	p_hit[36] 	0.30978381992423
scalar tree_4_3_u03_r4_network.node[36].content_store 	hits[36] 	4170
scalar tree_4_3_u03_r4_network.node[36].content_store 	misses[36] 	9291
scalar tree_4_3_u03_r4_network.node[36].content_store 	decision_yes[36] 	97
scalar tree_4_3_u03_r4_network.node[36].content_store 	decision_no[36] 	9194
scalar tree_4_3_u03_r4_network.node[36].content_store 	decision_ratio[36] 	0.01044021095684
scalar tree_4_3_u03_r4_network.node[37].core_layer 	interests[37] 	12726
scalar tree_4_3_u03_r4_network.node[37].core_layer 	data[37] 	9178
scalar tree_4_3_u03_r4_network.node[37].content_store 	p_hit[37] 	0.27879930850228
scalar tree_4_3_u03_r4_network.node[37].content_store 	hits[37] 	3548
scalar tree_4_3_u03_r4_network.node[37].content_store 	misses[37] 	9178
scalar tree_4_3_u03_r4_network.node[37].content_store 	decision_yes[37] 	96
scalar tree_4_3_u03_r4_network.node[37].content_store 	decision_no[37] 	9082
scalar tree_4_3_u03_r4_network.node[37].content_store 	decision_ratio[37] 	0.010459795162345
scalar tree_4_3_u03_r4_network.node[38].core_layer 	interests[38] 	13797
scalar tree_4_3_u03_r4_network.node[38].core_layer 	data[38] 	9525
scalar tree_4_3_u03_r4_network.node[38].content_store 	p_hit[38] 	0.30963252881061
scalar tree_4_3_u03_r4_network.node[38].content_store 	hits[38] 	4272
scalar tree_4_3_u03_r4_network.node[38].content_store 	misses[38] 	9525
scalar tree_4_3_u03_r4_network.node[38].content_store 	decision_yes[38] 	128
scalar tree_4_3_u03_r4_network.node[38].content_store 	decision_no[38] 	9397
scalar tree_4_3_u03_r4_network.node[38].content_store 	decision_ratio[38] 	0.013438320209974
scalar tree_4_3_u03_r4_network.node[39].core_layer 	interests[39] 	12536
scalar tree_4_3_u03_r4_network.node[39].core_layer 	data[39] 	9204
scalar tree_4_3_u03_r4_network.node[39].content_store 	p_hit[39] 	0.26587428206765
scalar tree_4_3_u03_r4_network.node[39].content_store 	hits[39] 	3333
scalar tree_4_3_u03_r4_network.node[39].content_store 	misses[39] 	9203
scalar tree_4_3_u03_r4_network.node[39].content_store 	decision_yes[39] 	97
scalar tree_4_3_u03_r4_network.node[39].content_store 	decision_no[39] 	9107
scalar tree_4_3_u03_r4_network.node[39].content_store 	decision_ratio[39] 	0.010538896132116
scalar tree_4_3_u03_r4_network.client[13] 	hdistance[13] 	2.7775275275275
scalar tree_4_3_u03_r4_network.client[13] 	downloads[13] 	11988
scalar tree_4_3_u03_r4_network.client[13] 	avg_time[13] 	0.004394391398
scalar tree_4_3_u03_r4_network.client[14] 	hdistance[14] 	2.6494252873563
scalar tree_4_3_u03_r4_network.client[14] 	downloads[14] 	12006
scalar tree_4_3_u03_r4_network.client[14] 	avg_time[14] 	0.004237711482
scalar tree_4_3_u03_r4_network.client[15] 	hdistance[15] 	2.6804880059352
scalar tree_4_3_u03_r4_network.client[15] 	downloads[15] 	12131
scalar tree_4_3_u03_r4_network.client[15] 	avg_time[15] 	0.004206245433
scalar tree_4_3_u03_r4_network.client[16] 	hdistance[16] 	2.7645689583507
scalar tree_4_3_u03_r4_network.client[16] 	downloads[16] 	12029
scalar tree_4_3_u03_r4_network.client[16] 	avg_time[16] 	0.004436608508
scalar tree_4_3_u03_r4_network.client[17] 	hdistance[17] 	2.7532936141646
scalar tree_4_3_u03_r4_network.client[17] 	downloads[17] 	11917
scalar tree_4_3_u03_r4_network.client[17] 	avg_time[17] 	0.004416544785
scalar tree_4_3_u03_r4_network.client[18] 	hdistance[18] 	2.6503639486383
scalar tree_4_3_u03_r4_network.client[18] 	downloads[18] 	12227
scalar tree_4_3_u03_r4_network.client[18] 	avg_time[18] 	0.004230961203
scalar tree_4_3_u03_r4_network.client[19] 	hdistance[19] 	2.7263201320132
scalar tree_4_3_u03_r4_network.client[19] 	downloads[19] 	12120
scalar tree_4_3_u03_r4_network.client[19] 	avg_time[19] 	0.004297026667
scalar tree_4_3_u03_r4_network.client[20] 	hdistance[20] 	2.7728515786857
scalar tree_4_3_u03_r4_network.client[20] 	downloads[20] 	12067
scalar tree_4_3_u03_r4_network.client[20] 	avg_time[20] 	0.004367011521
scalar tree_4_3_u03_r4_network.client[21] 	hdistance[21] 	2.7577799966716
scalar tree_4_3_u03_r4_network.client[21] 	downloads[21] 	12018
scalar tree_4_3_u03_r4_network.client[21] 	avg_time[21] 	0.004369442849
scalar tree_4_3_u03_r4_network.client[22] 	hdistance[22] 	2.7861703009701
scalar tree_4_3_u03_r4_network.client[22] 	downloads[22] 	12061
scalar tree_4_3_u03_r4_network.client[22] 	avg_time[22] 	0.004478398446
scalar tree_4_3_u03_r4_network.client[23] 	hdistance[23] 	2.7399714069464
scalar tree_4_3_u03_r4_network.client[23] 	downloads[23] 	11891
scalar tree_4_3_u03_r4_network.client[23] 	avg_time[23] 	0.004389703536
scalar tree_4_3_u03_r4_network.client[24] 	hdistance[24] 	2.7311022311022
scalar tree_4_3_u03_r4_network.client[24] 	downloads[24] 	12012
scalar tree_4_3_u03_r4_network.client[24] 	avg_time[24] 	0.004395934426
scalar tree_4_3_u03_r4_network.client[25] 	hdistance[25] 	2.7707276507277
scalar tree_4_3_u03_r4_network.client[25] 	downloads[25] 	12025
scalar tree_4_3_u03_r4_network.client[25] 	avg_time[25] 	0.004428437745
scalar tree_4_3_u03_r4_network.client[26] 	hdistance[26] 	2.7749529959944
scalar tree_4_3_u03_r4_network.client[26] 	downloads[26] 	12233
scalar tree_4_3_u03_r4_network.client[26] 	avg_time[26] 	0.004429670819
scalar tree_4_3_u03_r4_network.client[27] 	hdistance[27] 	2.7424032586558
scalar tree_4_3_u03_r4_network.client[27] 	downloads[27] 	12275
scalar tree_4_3_u03_r4_network.client[27] 	avg_time[27] 	0.004378489817
scalar tree_4_3_u03_r4_network.client[28] 	hdistance[28] 	2.7461763476807
scalar tree_4_3_u03_r4_network.client[28] 	downloads[28] 	11965
scalar tree_4_3_u03_r4_network.client[28] 	avg_time[28] 	0.004379604178
scalar tree_4_3_u03_r4_network.client[29] 	hdistance[29] 	2.766158435532
scalar tree_4_3_u03_r4_network.client[29] 	downloads[29] 	12068
scalar tree_4_3_u03_r4_network.client[29] 	avg_time[29] 	0.004420282031
scalar tree_4_3_u03_r4_network.client[30] 	hdistance[30] 	2.7700760079313
scalar tree_4_3_u03_r4_network.client[30] 	downloads[30] 	12104
scalar tree_4_3_u03_r4_network.client[30] 	avg_time[30] 	0.004426446963
scalar tree_4_3_u03_r4_network.client[31] 	hdistance[31] 	2.745566563983
scalar tree_4_3_u03_r4_network.client[31] 	downloads[31] 	12011
scalar tree_4_3_u03_r4_network.client[31] 	avg_time[31] 	0.004305550267
scalar tree_4_3_u03_r4_network.client[32] 	hdistance[32] 	2.7744670135975
scalar tree_4_3_u03_r4_network.client[32] 	downloads[32] 	11914
scalar tree_4_3_u03_r4_network.client[32] 	avg_time[32] 	0.004364659285
scalar tree_4_3_u03_r4_network.client[33] 	hdistance[33] 	2.7801816680429
scalar tree_4_3_u03_r4_network.client[33] 	downloads[33] 	12110
scalar tree_4_3_u03_r4_network.client[33] 	avg_time[33] 	0.004370269454
scalar tree_4_3_u03_r4_network.client[34] 	hdistance[34] 	2.6670779861797
scalar tree_4_3_u03_r4_network.client[34] 	downloads[34] 	12156
scalar tree_4_3_u03_r4_network.client[34] 	avg_time[34] 	0.004247117732
scalar tree_4_3_u03_r4_network.client[35] 	hdistance[35] 	2.6962121212121
scalar tree_4_3_u03_r4_network.client[35] 	downloads[35] 	11880
scalar tree_4_3_u03_r4_network.client[35] 	avg_time[35] 	0.004327774804
scalar tree_4_3_u03_r4_network.client[36] 	hdistance[36] 	2.7045192149101
scalar tree_4_3_u03_r4_network.client[36] 	downloads[36] 	12126
scalar tree_4_3_u03_r4_network.client[36] 	avg_time[36] 	0.004336629007
scalar tree_4_3_u03_r4_network.client[37] 	hdistance[37] 	2.7596770165654
scalar tree_4_3_u03_r4_network.client[37] 	downloads[37] 	12013
scalar tree_4_3_u03_r4_network.client[37] 	avg_time[37] 	0.004330638795
scalar tree_4_3_u03_r4_network.client[38] 	hdistance[38] 	2.6482967572879
scalar tree_4_3_u03_r4_network.client[38] 	downloads[38] 	12212
scalar tree_4_3_u03_r4_network.client[38] 	avg_time[38] 	0.004231244899
scalar tree_4_3_u03_r4_network.client[39] 	hdistance[39] 	2.7585175336547
scalar tree_4_3_u03_r4_network.client[39] 	downloads[39] 	12034
scalar tree_4_3_u03_r4_network.client[39] 	avg_time[39] 	0.004335047685
