version 2
run General-141-20160820-05:06:19-14346
attr a 0.9
attr cd fix0.1
attr configname General
attr cr lru
attr datetime 20160820-05:06:19
attr experiment General
attr fsize 1
attr inifile hw5115/scenario_A/SPR-FIX0.1.ini
attr iterationvars "$name=tree_4_3, $un=07, $rep=2, $cd=fix0.1, $cr=lru, $fsize=1, $a=0.9, $sl=spr, $ttl=1000, $variance=0.05"
attr iterationvars2 "$name=tree_4_3, $un=07, $rep=2, $cd=fix0.1, $cr=lru, $fsize=1, $a=0.9, $sl=spr, $ttl=1000, $variance=0.05, $repetition=0"
attr measurement "$name=tree_4_3, $un=07, $rep=2, $cd=fix0.1, $cr=lru, $fsize=1, $a=0.9, $sl=spr, $ttl=1000, $variance=0.05"
attr name tree_4_3
attr network networks.${name}_u${un}_r${rep}_network
attr processid 14346
attr rep 2
attr repetition 0
attr replication #0
attr resultdir results
attr runnumber 141
attr seedset 2
attr sl spr
attr ttl 1000
attr un 07
attr variance 0.05

scalar . 	a 	0.9
scalar . 	fsize 	1
scalar . 	rep 	2
scalar . 	ttl 	1000
scalar . 	un 	07
scalar . 	variance 	0.05
scalar tree_4_3_u07_r2_network.content_distribution 	repo-0 	0
scalar tree_4_3_u07_r2_network.content_distribution 	client-0 	13
scalar tree_4_3_u07_r2_network.content_distribution 	client-1 	14
scalar tree_4_3_u07_r2_network.content_distribution 	client-2 	15
scalar tree_4_3_u07_r2_network.content_distribution 	client-3 	16
scalar tree_4_3_u07_r2_network.content_distribution 	client-4 	17
scalar tree_4_3_u07_r2_network.content_distribution 	client-5 	18
scalar tree_4_3_u07_r2_network.content_distribution 	client-6 	19
scalar tree_4_3_u07_r2_network.content_distribution 	client-7 	20
scalar tree_4_3_u07_r2_network.content_distribution 	client-8 	21
scalar tree_4_3_u07_r2_network.content_distribution 	client-9 	22
scalar tree_4_3_u07_r2_network.content_distribution 	client-10 	23
scalar tree_4_3_u07_r2_network.content_distribution 	client-11 	24
scalar tree_4_3_u07_r2_network.content_distribution 	client-12 	25
scalar tree_4_3_u07_r2_network.content_distribution 	client-13 	26
scalar tree_4_3_u07_r2_network.content_distribution 	client-14 	27
scalar tree_4_3_u07_r2_network.content_distribution 	client-15 	28
scalar tree_4_3_u07_r2_network.content_distribution 	client-16 	29
scalar tree_4_3_u07_r2_network.content_distribution 	client-17 	30
scalar tree_4_3_u07_r2_network.content_distribution 	client-18 	31
scalar tree_4_3_u07_r2_network.content_distribution 	client-19 	32
scalar tree_4_3_u07_r2_network.content_distribution 	client-20 	33
scalar tree_4_3_u07_r2_network.content_distribution 	client-21 	34
scalar tree_4_3_u07_r2_network.content_distribution 	client-22 	35
scalar tree_4_3_u07_r2_network.content_distribution 	client-23 	36
scalar tree_4_3_u07_r2_network.content_distribution 	client-24 	37
scalar tree_4_3_u07_r2_network.content_distribution 	client-25 	38
scalar tree_4_3_u07_r2_network.content_distribution 	client-26 	39
scalar tree_4_3_u07_r2_network.content_distribution 	repo-0_card 	100000
scalar tree_4_3_u07_r2_network.content_distribution 	repo-0_price 	0
scalar tree_4_3_u07_r2_network.statistics 	stabilization_time 	885.1
scalar tree_4_3_u07_r2_network.statistics 	p_hit 	0.15148560778832
scalar tree_4_3_u07_r2_network.statistics 	interests 	26699.475
scalar tree_4_3_u07_r2_network.statistics 	data 	18606.6
scalar tree_4_3_u07_r2_network.statistics 	hdistance 	3.0311041720161
scalar tree_4_3_u07_r2_network.statistics 	avg_time 	0.004598326609
scalar tree_4_3_u07_r2_network.statistics 	downloads 	323719
scalar tree_4_3_u07_r2_network.statistics 	total_cost 	0
scalar tree_4_3_u07_r2_network.statistics 	total_replicas 	100000
scalar tree_4_3_u07_r2_network.statistics 	inner_hit 	0.26817394097968
scalar tree_4_3_u07_r2_network.node[0].core_layer 	interests[0] 	241356
scalar tree_4_3_u07_r2_network.node[0].core_layer 	repo_load[0] 	236906
scalar tree_4_3_u07_r2_network.node[0].core_layer 	data[0] 	0
scalar tree_4_3_u07_r2_network.node[0].core_layer 	repo_int[0] 	236906
scalar tree_4_3_u07_r2_network.node[0].content_store 	p_hit[0] 	0.018437494820928
scalar tree_4_3_u07_r2_network.node[0].content_store 	hits[0] 	4450
scalar tree_4_3_u07_r2_network.node[0].content_store 	misses[0] 	236906
scalar tree_4_3_u07_r2_network.node[0].content_store 	decision_yes[0] 	23645
scalar tree_4_3_u07_r2_network.node[0].content_store 	decision_no[0] 	213261
scalar tree_4_3_u07_r2_network.node[0].content_store 	decision_ratio[0] 	0.099807518593873
scalar tree_4_3_u07_r2_network.node[1].core_layer 	interests[1] 	154970
scalar tree_4_3_u07_r2_network.node[1].core_layer 	data[1] 	151371
scalar tree_4_3_u07_r2_network.node[1].content_store 	p_hit[1] 	0.023178679744467
scalar tree_4_3_u07_r2_network.node[1].content_store 	hits[1] 	3592
scalar tree_4_3_u07_r2_network.node[1].content_store 	misses[1] 	151378
scalar tree_4_3_u07_r2_network.node[1].content_store 	decision_yes[1] 	15095
scalar tree_4_3_u07_r2_network.node[1].content_store 	decision_no[1] 	136276
scalar tree_4_3_u07_r2_network.node[1].content_store 	decision_ratio[1] 	0.099721875392248
scalar tree_4_3_u07_r2_network.node[2].core_layer 	interests[2] 	82825
scalar tree_4_3_u07_r2_network.node[2].core_layer 	data[2] 	80864
scalar tree_4_3_u07_r2_network.node[2].content_store 	p_hit[2] 	0.023664352550558
scalar tree_4_3_u07_r2_network.node[2].content_store 	hits[2] 	1960
scalar tree_4_3_u07_r2_network.node[2].content_store 	misses[2] 	80865
scalar tree_4_3_u07_r2_network.node[2].content_store 	decision_yes[2] 	8036
scalar tree_4_3_u07_r2_network.node[2].content_store 	decision_no[2] 	72828
scalar tree_4_3_u07_r2_network.node[2].content_store 	decision_ratio[2] 	0.099376731301939
scalar tree_4_3_u07_r2_network.node[3].core_layer 	interests[3] 	9336
scalar tree_4_3_u07_r2_network.node[3].core_layer 	data[3] 	9123
scalar tree_4_3_u07_r2_network.node[3].content_store 	p_hit[3] 	0.022814910025707
scalar tree_4_3_u07_r2_network.node[3].content_store 	hits[3] 	213
scalar tree_4_3_u07_r2_network.node[3].content_store 	misses[3] 	9123
scalar tree_4_3_u07_r2_network.node[3].content_store 	decision_yes[3] 	878
scalar tree_4_3_u07_r2_network.node[3].content_store 	decision_no[3] 	8245
scalar tree_4_3_u07_r2_network.node[3].content_store 	decision_ratio[3] 	0.096240271840403
scalar tree_4_3_u07_r2_network.node[4].core_layer 	interests[4] 	37838
scalar tree_4_3_u07_r2_network.node[4].core_layer 	data[4] 	36518
scalar tree_4_3_u07_r2_network.node[4].content_store 	p_hit[4] 	0.034859136317987
scalar tree_4_3_u07_r2_network.node[4].content_store 	hits[4] 	1319
scalar tree_4_3_u07_r2_network.node[4].content_store 	misses[4] 	36519
scalar tree_4_3_u07_r2_network.node[4].content_store 	decision_yes[4] 	3658
scalar tree_4_3_u07_r2_network.node[4].content_store 	decision_no[4] 	32860
scalar tree_4_3_u07_r2_network.node[4].content_store 	decision_ratio[4] 	0.10016977928693
scalar tree_4_3_u07_r2_network.node[5].core_layer 	interests[5] 	37598
scalar tree_4_3_u07_r2_network.node[5].core_layer 	data[5] 	36375
scalar tree_4_3_u07_r2_network.node[5].content_store 	p_hit[5] 	0.032448534496516
scalar tree_4_3_u07_r2_network.node[5].content_store 	hits[5] 	1220
scalar tree_4_3_u07_r2_network.node[5].content_store 	misses[5] 	36378
scalar tree_4_3_u07_r2_network.node[5].content_store 	decision_yes[5] 	3649
scalar tree_4_3_u07_r2_network.node[5].content_store 	decision_no[5] 	32726
scalar tree_4_3_u07_r2_network.node[5].content_store 	decision_ratio[5] 	0.10031615120275
scalar tree_4_3_u07_r2_network.node[6].core_layer 	interests[6] 	9329
scalar tree_4_3_u07_r2_network.node[6].core_layer 	data[6] 	9012
scalar tree_4_3_u07_r2_network.node[6].content_store 	p_hit[6] 	0.033980062171723
scalar tree_4_3_u07_r2_network.node[6].content_store 	hits[6] 	317
scalar tree_4_3_u07_r2_network.node[6].content_store 	misses[6] 	9012
scalar tree_4_3_u07_r2_network.node[6].content_store 	decision_yes[6] 	876
scalar tree_4_3_u07_r2_network.node[6].content_store 	decision_no[6] 	8136
scalar tree_4_3_u07_r2_network.node[6].content_store 	decision_ratio[6] 	0.097203728362184
scalar tree_4_3_u07_r2_network.node[7].core_layer 	interests[7] 	28241
scalar tree_4_3_u07_r2_network.node[7].core_layer 	data[7] 	27232
scalar tree_4_3_u07_r2_network.node[7].content_store 	p_hit[7] 	0.035799015615594
scalar tree_4_3_u07_r2_network.node[7].content_store 	hits[7] 	1011
scalar tree_4_3_u07_r2_network.node[7].content_store 	misses[7] 	27230
scalar tree_4_3_u07_r2_network.node[7].content_store 	decision_yes[7] 	2753
scalar tree_4_3_u07_r2_network.node[7].content_store 	decision_no[7] 	24479
scalar tree_4_3_u07_r2_network.node[7].content_store 	decision_ratio[7] 	0.10109430082256
scalar tree_4_3_u07_r2_network.node[8].core_layer 	interests[8] 	38186
scalar tree_4_3_u07_r2_network.node[8].core_layer 	data[8] 	36966
scalar tree_4_3_u07_r2_network.node[8].content_store 	p_hit[8] 	0.031948881789137
scalar tree_4_3_u07_r2_network.node[8].content_store 	hits[8] 	1220
scalar tree_4_3_u07_r2_network.node[8].content_store 	misses[8] 	36966
scalar tree_4_3_u07_r2_network.node[8].content_store 	decision_yes[8] 	3679
scalar tree_4_3_u07_r2_network.node[8].content_store 	decision_no[8] 	33287
scalar tree_4_3_u07_r2_network.node[8].content_store 	decision_ratio[8] 	0.099523886814911
scalar tree_4_3_u07_r2_network.node[9].core_layer 	interests[9] 	18909
scalar tree_4_3_u07_r2_network.node[9].core_layer 	data[9] 	18308
scalar tree_4_3_u07_r2_network.node[9].content_store 	p_hit[9] 	0.031783806652917
scalar tree_4_3_u07_r2_network.node[9].content_store 	hits[9] 	601
scalar tree_4_3_u07_r2_network.node[9].content_store 	misses[9] 	18308
scalar tree_4_3_u07_r2_network.node[9].content_store 	decision_yes[9] 	1838
scalar tree_4_3_u07_r2_network.node[9].content_store 	decision_no[9] 	16470
scalar tree_4_3_u07_r2_network.node[9].content_store 	decision_ratio[9] 	0.10039327070133
scalar tree_4_3_u07_r2_network.node[10].core_layer 	interests[10] 	47524
scalar tree_4_3_u07_r2_network.node[10].core_layer 	data[10] 	45835
scalar tree_4_3_u07_r2_network.node[10].content_store 	p_hit[10] 	0.035455769716354
scalar tree_4_3_u07_r2_network.node[10].content_store 	hits[10] 	1685
scalar tree_4_3_u07_r2_network.node[10].content_store 	misses[10] 	45839
scalar tree_4_3_u07_r2_network.node[10].content_store 	decision_yes[10] 	4607
scalar tree_4_3_u07_r2_network.node[10].content_store 	decision_no[10] 	41228
scalar tree_4_3_u07_r2_network.node[10].content_store 	decision_ratio[10] 	0.10051270862878
scalar tree_4_3_u07_r2_network.node[11].core_layer 	interests[11] 	28457
scalar tree_4_3_u07_r2_network.node[11].core_layer 	data[11] 	27551
scalar tree_4_3_u07_r2_network.node[11].content_store 	p_hit[11] 	0.031837509224444
scalar tree_4_3_u07_r2_network.node[11].content_store 	hits[11] 	906
scalar tree_4_3_u07_r2_network.node[11].content_store 	misses[11] 	27551
scalar tree_4_3_u07_r2_network.node[11].content_store 	decision_yes[11] 	2759
scalar tree_4_3_u07_r2_network.node[11].content_store 	decision_no[11] 	24792
scalar tree_4_3_u07_r2_network.node[11].content_store 	decision_ratio[11] 	0.10014155566041
scalar tree_4_3_u07_r2_network.node[12].core_layer 	interests[12] 	9690
scalar tree_4_3_u07_r2_network.node[12].core_layer 	data[12] 	9336
scalar tree_4_3_u07_r2_network.node[12].content_store 	p_hit[12] 	0.036532507739938
scalar tree_4_3_u07_r2_network.node[12].content_store 	hits[12] 	354
scalar tree_4_3_u07_r2_network.node[12].content_store 	misses[12] 	9336
scalar tree_4_3_u07_r2_network.node[12].content_store 	decision_yes[12] 	915
scalar tree_4_3_u07_r2_network.node[12].content_store 	decision_no[12] 	8421
scalar tree_4_3_u07_r2_network.node[12].content_store 	decision_ratio[12] 	0.098007712082262
scalar tree_4_3_u07_r2_network.node[13].core_layer 	interests[13] 	11947
scalar tree_4_3_u07_r2_network.node[13].core_layer 	data[13] 	9429
scalar tree_4_3_u07_r2_network.node[13].content_store 	p_hit[13] 	0.21068050556625
scalar tree_4_3_u07_r2_network.node[13].content_store 	hits[13] 	2517
scalar tree_4_3_u07_r2_network.node[13].content_store 	misses[13] 	9430
scalar tree_4_3_u07_r2_network.node[13].content_store 	decision_yes[13] 	921
scalar tree_4_3_u07_r2_network.node[13].content_store 	decision_no[13] 	8508
scalar tree_4_3_u07_r2_network.node[13].content_store 	decision_ratio[13] 	0.097677378300986
scalar tree_4_3_u07_r2_network.node[14].core_layer 	interests[14] 	12018
scalar tree_4_3_u07_r2_network.node[14].core_layer 	data[14] 	9528
scalar tree_4_3_u07_r2_network.node[14].content_store 	p_hit[14] 	0.20718921617574
scalar tree_4_3_u07_r2_network.node[14].content_store 	hits[14] 	2490
scalar tree_4_3_u07_r2_network.node[14].content_store 	misses[14] 	9528
scalar tree_4_3_u07_r2_network.node[14].content_store 	decision_yes[14] 	986
scalar tree_4_3_u07_r2_network.node[14].content_store 	decision_no[14] 	8542
scalar tree_4_3_u07_r2_network.node[14].content_store 	decision_ratio[14] 	0.10348446683459
scalar tree_4_3_u07_r2_network.node[15].core_layer 	interests[15] 	12026
scalar tree_4_3_u07_r2_network.node[15].core_layer 	data[15] 	9483
scalar tree_4_3_u07_r2_network.node[15].content_store 	p_hit[15] 	0.2114585065691
scalar tree_4_3_u07_r2_network.node[15].content_store 	hits[15] 	2543
scalar tree_4_3_u07_r2_network.node[15].content_store 	misses[15] 	9483
scalar tree_4_3_u07_r2_network.node[15].content_store 	decision_yes[15] 	926
scalar tree_4_3_u07_r2_network.node[15].content_store 	decision_no[15] 	8557
scalar tree_4_3_u07_r2_network.node[15].content_store 	decision_ratio[15] 	0.097648423494675
scalar tree_4_3_u07_r2_network.node[16].core_layer 	interests[16] 	11765
scalar tree_4_3_u07_r2_network.node[16].core_layer 	data[16] 	9390
scalar tree_4_3_u07_r2_network.node[16].content_store 	p_hit[16] 	0.20186995325117
scalar tree_4_3_u07_r2_network.node[16].content_store 	hits[16] 	2375
scalar tree_4_3_u07_r2_network.node[16].content_store 	misses[16] 	9390
scalar tree_4_3_u07_r2_network.node[16].content_store 	decision_yes[16] 	945
scalar tree_4_3_u07_r2_network.node[16].content_store 	decision_no[16] 	8445
scalar tree_4_3_u07_r2_network.node[16].content_store 	decision_ratio[16] 	0.10063897763578
scalar tree_4_3_u07_r2_network.node[17].core_layer 	interests[17] 	11966
scalar tree_4_3_u07_r2_network.node[17].core_layer 	data[17] 	9389
scalar tree_4_3_u07_r2_network.node[17].content_store 	p_hit[17] 	0.21536018719706
scalar tree_4_3_u07_r2_network.node[17].content_store 	hits[17] 	2577
scalar tree_4_3_u07_r2_network.node[17].content_store 	misses[17] 	9389
scalar tree_4_3_u07_r2_network.node[17].content_store 	decision_yes[17] 	926
scalar tree_4_3_u07_r2_network.node[17].content_store 	decision_no[17] 	8463
scalar tree_4_3_u07_r2_network.node[17].content_store 	decision_ratio[17] 	0.098626051762701
scalar tree_4_3_u07_r2_network.node[18].core_layer 	interests[18] 	11910
scalar tree_4_3_u07_r2_network.node[18].core_layer 	data[18] 	9318
scalar tree_4_3_u07_r2_network.node[18].content_store 	p_hit[18] 	0.2176322418136
scalar tree_4_3_u07_r2_network.node[18].content_store 	hits[18] 	2592
scalar tree_4_3_u07_r2_network.node[18].content_store 	misses[18] 	9318
scalar tree_4_3_u07_r2_network.node[18].content_store 	decision_yes[18] 	892
scalar tree_4_3_u07_r2_network.node[18].content_store 	decision_no[18] 	8426
scalar tree_4_3_u07_r2_network.node[18].content_store 	decision_ratio[18] 	0.09572869714531
scalar tree_4_3_u07_r2_network.node[19].core_layer 	interests[19] 	11869
scalar tree_4_3_u07_r2_network.node[19].core_layer 	data[19] 	9397
scalar tree_4_3_u07_r2_network.node[19].content_store 	p_hit[19] 	0.20827365405679
scalar tree_4_3_u07_r2_network.node[19].content_store 	hits[19] 	2472
scalar tree_4_3_u07_r2_network.node[19].content_store 	misses[19] 	9397
scalar tree_4_3_u07_r2_network.node[19].content_store 	decision_yes[19] 	925
scalar tree_4_3_u07_r2_network.node[19].content_store 	decision_no[19] 	8472
scalar tree_4_3_u07_r2_network.node[19].content_store 	decision_ratio[19] 	0.098435670958817
scalar tree_4_3_u07_r2_network.node[20].core_layer 	interests[20] 	12028
scalar tree_4_3_u07_r2_network.node[20].core_layer 	data[20] 	9501
scalar tree_4_3_u07_r2_network.node[20].content_store 	p_hit[20] 	0.21000997672098
scalar tree_4_3_u07_r2_network.node[20].content_store 	hits[20] 	2526
scalar tree_4_3_u07_r2_network.node[20].content_store 	misses[20] 	9502
scalar tree_4_3_u07_r2_network.node[20].content_store 	decision_yes[20] 	932
scalar tree_4_3_u07_r2_network.node[20].content_store 	decision_no[20] 	8569
scalar tree_4_3_u07_r2_network.node[20].content_store 	decision_ratio[20] 	0.098094937375013
scalar tree_4_3_u07_r2_network.node[21].core_layer 	interests[21] 	11951
scalar tree_4_3_u07_r2_network.node[21].core_layer 	data[21] 	9329
scalar tree_4_3_u07_r2_network.node[21].content_store 	p_hit[21] 	0.21947954146097
scalar tree_4_3_u07_r2_network.node[21].content_store 	hits[21] 	2623
scalar tree_4_3_u07_r2_network.node[21].content_store 	misses[21] 	9328
scalar tree_4_3_u07_r2_network.node[21].content_store 	decision_yes[21] 	977
scalar tree_4_3_u07_r2_network.node[21].content_store 	decision_no[21] 	8352
scalar tree_4_3_u07_r2_network.node[21].content_store 	decision_ratio[21] 	0.104727194769
scalar tree_4_3_u07_r2_network.node[22].core_layer 	interests[22] 	12038
scalar tree_4_3_u07_r2_network.node[22].core_layer 	data[22] 	9535
scalar tree_4_3_u07_r2_network.node[22].content_store 	p_hit[22] 	0.20800797474664
scalar tree_4_3_u07_r2_network.node[22].content_store 	hits[22] 	2504
scalar tree_4_3_u07_r2_network.node[22].content_store 	misses[22] 	9534
scalar tree_4_3_u07_r2_network.node[22].content_store 	decision_yes[22] 	923
scalar tree_4_3_u07_r2_network.node[22].content_store 	decision_no[22] 	8612
scalar tree_4_3_u07_r2_network.node[22].content_store 	decision_ratio[22] 	0.096801258521238
scalar tree_4_3_u07_r2_network.node[23].core_layer 	interests[23] 	11941
scalar tree_4_3_u07_r2_network.node[23].core_layer 	data[23] 	9368
scalar tree_4_3_u07_r2_network.node[23].content_store 	p_hit[23] 	0.21547609077967
scalar tree_4_3_u07_r2_network.node[23].content_store 	hits[23] 	2573
scalar tree_4_3_u07_r2_network.node[23].content_store 	misses[23] 	9368
scalar tree_4_3_u07_r2_network.node[23].content_store 	decision_yes[23] 	1014
scalar tree_4_3_u07_r2_network.node[23].content_store 	decision_no[23] 	8354
scalar tree_4_3_u07_r2_network.node[23].content_store 	decision_ratio[23] 	0.10824081981213
scalar tree_4_3_u07_r2_network.node[24].core_layer 	interests[24] 	11803
scalar tree_4_3_u07_r2_network.node[24].core_layer 	data[24] 	9340
scalar tree_4_3_u07_r2_network.node[24].content_store 	p_hit[24] 	0.20876048462255
scalar tree_4_3_u07_r2_network.node[24].content_store 	hits[24] 	2464
scalar tree_4_3_u07_r2_network.node[24].content_store 	misses[24] 	9339
scalar tree_4_3_u07_r2_network.node[24].content_store 	decision_yes[24] 	947
scalar tree_4_3_u07_r2_network.node[24].content_store 	decision_no[24] 	8393
scalar tree_4_3_u07_r2_network.node[24].content_store 	decision_ratio[24] 	0.10139186295503
scalar tree_4_3_u07_r2_network.node[25].core_layer 	interests[25] 	11906
scalar tree_4_3_u07_r2_network.node[25].core_layer 	data[25] 	9443
scalar tree_4_3_u07_r2_network.node[25].content_store 	p_hit[25] 	0.20687048546951
scalar tree_4_3_u07_r2_network.node[25].content_store 	hits[25] 	2463
scalar tree_4_3_u07_r2_network.node[25].content_store 	misses[25] 	9443
scalar tree_4_3_u07_r2_network.node[25].content_store 	decision_yes[25] 	946
scalar tree_4_3_u07_r2_network.node[25].content_store 	decision_no[25] 	8497
scalar tree_4_3_u07_r2_network.node[25].content_store 	decision_ratio[25] 	0.10018002753362
scalar tree_4_3_u07_r2_network.node[26].core_layer 	interests[26] 	12178
scalar tree_4_3_u07_r2_network.node[26].core_layer 	data[26] 	9542
scalar tree_4_3_u07_r2_network.node[26].content_store 	p_hit[26] 	0.21645590408934
scalar tree_4_3_u07_r2_network.node[26].content_store 	hits[26] 	2636
scalar tree_4_3_u07_r2_network.node[26].content_store 	misses[26] 	9542
scalar tree_4_3_u07_r2_network.node[26].content_store 	decision_yes[26] 	933
scalar tree_4_3_u07_r2_network.node[26].content_store 	decision_no[26] 	8609
scalar tree_4_3_u07_r2_network.node[26].content_store 	decision_ratio[26] 	0.09777824355481
scalar tree_4_3_u07_r2_network.node[27].core_layer 	interests[27] 	12278
scalar tree_4_3_u07_r2_network.node[27].core_layer 	data[27] 	9645
scalar tree_4_3_u07_r2_network.node[27].content_store 	p_hit[27] 	0.21444860726503
scalar tree_4_3_u07_r2_network.node[27].content_store 	hits[27] 	2633
scalar tree_4_3_u07_r2_network.node[27].content_store 	misses[27] 	9645
scalar tree_4_3_u07_r2_network.node[27].content_store 	decision_yes[27] 	975
scalar tree_4_3_u07_r2_network.node[27].content_store 	decision_no[27] 	8670
scalar tree_4_3_u07_r2_network.node[27].content_store 	decision_ratio[27] 	0.10108864696734
scalar tree_4_3_u07_r2_network.node[28].core_layer 	interests[28] 	12056
scalar tree_4_3_u07_r2_network.node[28].core_layer 	data[28] 	9491
scalar tree_4_3_u07_r2_network.node[28].content_store 	p_hit[28] 	0.21275713337757
scalar tree_4_3_u07_r2_network.node[28].content_store 	hits[28] 	2565
scalar tree_4_3_u07_r2_network.node[28].content_store 	misses[28] 	9491
scalar tree_4_3_u07_r2_network.node[28].content_store 	decision_yes[28] 	948
scalar tree_4_3_u07_r2_network.node[28].content_store 	decision_no[28] 	8543
scalar tree_4_3_u07_r2_network.node[28].content_store 	decision_ratio[28] 	0.099884100727005
scalar tree_4_3_u07_r2_network.node[29].core_layer 	interests[29] 	12145
scalar tree_4_3_u07_r2_network.node[29].core_layer 	data[29] 	9556
scalar tree_4_3_u07_r2_network.node[29].content_store 	p_hit[29] 	0.21317414573899
scalar tree_4_3_u07_r2_network.node[29].content_store 	hits[29] 	2589
scalar tree_4_3_u07_r2_network.node[29].content_store 	misses[29] 	9556
scalar tree_4_3_u07_r2_network.node[29].content_store 	decision_yes[29] 	962
scalar tree_4_3_u07_r2_network.node[29].content_store 	decision_no[29] 	8594
scalar tree_4_3_u07_r2_network.node[29].content_store 	decision_ratio[29] 	0.10066973629134
scalar tree_4_3_u07_r2_network.node[30].core_layer 	interests[30] 	11864
scalar tree_4_3_u07_r2_network.node[30].core_layer 	data[30] 	9418
scalar tree_4_3_u07_r2_network.node[30].content_store 	p_hit[30] 	0.20616992582603
scalar tree_4_3_u07_r2_network.node[30].content_store 	hits[30] 	2446
scalar tree_4_3_u07_r2_network.node[30].content_store 	misses[30] 	9418
scalar tree_4_3_u07_r2_network.node[30].content_store 	decision_yes[30] 	952
scalar tree_4_3_u07_r2_network.node[30].content_store 	decision_no[30] 	8466
scalar tree_4_3_u07_r2_network.node[30].content_store 	decision_ratio[30] 	0.10108303249097
scalar tree_4_3_u07_r2_network.node[31].core_layer 	interests[31] 	12095
scalar tree_4_3_u07_r2_network.node[31].core_layer 	data[31] 	9586
scalar tree_4_3_u07_r2_network.node[31].content_store 	p_hit[31] 	0.20744109136007
scalar tree_4_3_u07_r2_network.node[31].content_store 	hits[31] 	2509
scalar tree_4_3_u07_r2_network.node[31].content_store 	misses[31] 	9586
scalar tree_4_3_u07_r2_network.node[31].content_store 	decision_yes[31] 	965
scalar tree_4_3_u07_r2_network.node[31].content_store 	decision_no[31] 	8621
scalar tree_4_3_u07_r2_network.node[31].content_store 	decision_ratio[31] 	0.10066764030878
scalar tree_4_3_u07_r2_network.node[32].core_layer 	interests[32] 	12053
scalar tree_4_3_u07_r2_network.node[32].core_layer 	data[32] 	9542
scalar tree_4_3_u07_r2_network.node[32].content_store 	p_hit[32] 	0.20824690948312
scalar tree_4_3_u07_r2_network.node[32].content_store 	hits[32] 	2510
scalar tree_4_3_u07_r2_network.node[32].content_store 	misses[32] 	9543
scalar tree_4_3_u07_r2_network.node[32].content_store 	decision_yes[32] 	993
scalar tree_4_3_u07_r2_network.node[32].content_store 	decision_no[32] 	8549
scalar tree_4_3_u07_r2_network.node[32].content_store 	decision_ratio[32] 	0.10406623349403
scalar tree_4_3_u07_r2_network.node[33].core_layer 	interests[33] 	11937
scalar tree_4_3_u07_r2_network.node[33].core_layer 	data[33] 	9417
scalar tree_4_3_u07_r2_network.node[33].content_store 	p_hit[33] 	0.21110831867303
scalar tree_4_3_u07_r2_network.node[33].content_store 	hits[33] 	2520
scalar tree_4_3_u07_r2_network.node[33].content_store 	misses[33] 	9417
scalar tree_4_3_u07_r2_network.node[33].content_store 	decision_yes[33] 	984
scalar tree_4_3_u07_r2_network.node[33].content_store 	decision_no[33] 	8433
scalar tree_4_3_u07_r2_network.node[33].content_store 	decision_ratio[33] 	0.10449187639376
scalar tree_4_3_u07_r2_network.node[34].core_layer 	interests[34] 	12143
scalar tree_4_3_u07_r2_network.node[34].core_layer 	data[34] 	9570
scalar tree_4_3_u07_r2_network.node[34].content_store 	p_hit[34] 	0.21189162480441
scalar tree_4_3_u07_r2_network.node[34].content_store 	hits[34] 	2573
scalar tree_4_3_u07_r2_network.node[34].content_store 	misses[34] 	9570
scalar tree_4_3_u07_r2_network.node[34].content_store 	decision_yes[34] 	918
scalar tree_4_3_u07_r2_network.node[34].content_store 	decision_no[34] 	8652
scalar tree_4_3_u07_r2_network.node[34].content_store 	decision_ratio[34] 	0.095924764890282
scalar tree_4_3_u07_r2_network.node[35].core_layer 	interests[35] 	11991
scalar tree_4_3_u07_r2_network.node[35].core_layer 	data[35] 	9566
scalar tree_4_3_u07_r2_network.node[35].content_store 	p_hit[35] 	0.20223500959053
scalar tree_4_3_u07_r2_network.node[35].content_store 	hits[35] 	2425
scalar tree_4_3_u07_r2_network.node[35].content_store 	misses[35] 	9566
scalar tree_4_3_u07_r2_network.node[35].content_store 	decision_yes[35] 	961
scalar tree_4_3_u07_r2_network.node[35].content_store 	decision_no[35] 	8605
scalar tree_4_3_u07_r2_network.node[35].content_store 	decision_ratio[35] 	0.10045996236672
scalar tree_4_3_u07_r2_network.node[36].core_layer 	interests[36] 	11875
scalar tree_4_3_u07_r2_network.node[36].core_layer 	data[36] 	9494
scalar tree_4_3_u07_r2_network.node[36].content_store 	p_hit[36] 	0.20050526315789
scalar tree_4_3_u07_r2_network.node[36].content_store 	hits[36] 	2381
scalar tree_4_3_u07_r2_network.node[36].content_store 	misses[36] 	9494
scalar tree_4_3_u07_r2_network.node[36].content_store 	decision_yes[36] 	976
scalar tree_4_3_u07_r2_network.node[36].content_store 	decision_no[36] 	8518
scalar tree_4_3_u07_r2_network.node[36].content_store 	decision_ratio[36] 	0.10280176953866
scalar tree_4_3_u07_r2_network.node[37].core_layer 	interests[37] 	11869
scalar tree_4_3_u07_r2_network.node[37].core_layer 	data[37] 	9409
scalar tree_4_3_u07_r2_network.node[37].content_store 	p_hit[37] 	0.20726261690117
scalar tree_4_3_u07_r2_network.node[37].content_store 	hits[37] 	2460
scalar tree_4_3_u07_r2_network.node[37].content_store 	misses[37] 	9409
scalar tree_4_3_u07_r2_network.node[37].content_store 	decision_yes[37] 	954
scalar tree_4_3_u07_r2_network.node[37].content_store 	decision_no[37] 	8455
scalar tree_4_3_u07_r2_network.node[37].content_store 	decision_ratio[37] 	0.10139228398342
scalar tree_4_3_u07_r2_network.node[38].core_layer 	interests[38] 	11924
scalar tree_4_3_u07_r2_network.node[38].core_layer 	data[38] 	9397
scalar tree_4_3_u07_r2_network.node[38].content_store 	p_hit[38] 	0.21192552834619
scalar tree_4_3_u07_r2_network.node[38].content_store 	hits[38] 	2527
scalar tree_4_3_u07_r2_network.node[38].content_store 	misses[38] 	9397
scalar tree_4_3_u07_r2_network.node[38].content_store 	decision_yes[38] 	942
scalar tree_4_3_u07_r2_network.node[38].content_store 	decision_no[38] 	8455
scalar tree_4_3_u07_r2_network.node[38].content_store 	decision_ratio[38] 	0.10024475896563
scalar tree_4_3_u07_r2_network.node[39].core_layer 	interests[39] 	12144
scalar tree_4_3_u07_r2_network.node[39].core_layer 	data[39] 	9690
scalar tree_4_3_u07_r2_network.node[39].content_store 	p_hit[39] 	0.20199275362319
scalar tree_4_3_u07_r2_network.node[39].content_store 	hits[39] 	2453
scalar tree_4_3_u07_r2_network.node[39].content_store 	misses[39] 	9691
scalar tree_4_3_u07_r2_network.node[39].content_store 	decision_yes[39] 	937
scalar tree_4_3_u07_r2_network.node[39].content_store 	decision_no[39] 	8753
scalar tree_4_3_u07_r2_network.node[39].content_store 	decision_ratio[39] 	0.096697626418989
scalar tree_4_3_u07_r2_network.client[13] 	hdistance[13] 	3.0256989787377
scalar tree_4_3_u07_r2_network.client[13] 	downloads[13] 	11946
scalar tree_4_3_u07_r2_network.client[13] 	avg_time[13] 	0.00458877225
scalar tree_4_3_u07_r2_network.client[14] 	hdistance[14] 	3.0327841570977
scalar tree_4_3_u07_r2_network.client[14] 	downloads[14] 	12018
scalar tree_4_3_u07_r2_network.client[14] 	avg_time[14] 	0.004602093877
scalar tree_4_3_u07_r2_network.client[15] 	hdistance[15] 	3.0295193746882
scalar tree_4_3_u07_r2_network.client[15] 	downloads[15] 	12026
scalar tree_4_3_u07_r2_network.client[15] 	avg_time[15] 	0.00459287907
scalar tree_4_3_u07_r2_network.client[16] 	hdistance[16] 	3.0567785805355
scalar tree_4_3_u07_r2_network.client[16] 	downloads[16] 	11765
scalar tree_4_3_u07_r2_network.client[16] 	avg_time[16] 	0.00463859772
scalar tree_4_3_u07_r2_network.client[17] 	hdistance[17] 	3.0073541701488
scalar tree_4_3_u07_r2_network.client[17] 	downloads[17] 	11966
scalar tree_4_3_u07_r2_network.client[17] 	avg_time[17] 	0.004563754521
scalar tree_4_3_u07_r2_network.client[18] 	hdistance[18] 	3.0089000839631
scalar tree_4_3_u07_r2_network.client[18] 	downloads[18] 	11910
scalar tree_4_3_u07_r2_network.client[18] 	avg_time[18] 	0.004561541952
scalar tree_4_3_u07_r2_network.client[19] 	hdistance[19] 	3.0364815906985
scalar tree_4_3_u07_r2_network.client[19] 	downloads[19] 	11869
scalar tree_4_3_u07_r2_network.client[19] 	avg_time[19] 	0.004610326467
scalar tree_4_3_u07_r2_network.client[20] 	hdistance[20] 	3.0468113411491
scalar tree_4_3_u07_r2_network.client[20] 	downloads[20] 	12027
scalar tree_4_3_u07_r2_network.client[20] 	avg_time[20] 	0.004617435998
scalar tree_4_3_u07_r2_network.client[21] 	hdistance[21] 	2.9949799196787
scalar tree_4_3_u07_r2_network.client[21] 	downloads[21] 	11952
scalar tree_4_3_u07_r2_network.client[21] 	avg_time[21] 	0.004544020853
scalar tree_4_3_u07_r2_network.client[22] 	hdistance[22] 	3.0276601046599
scalar tree_4_3_u07_r2_network.client[22] 	downloads[22] 	12039
scalar tree_4_3_u07_r2_network.client[22] 	avg_time[22] 	0.004593598038
scalar tree_4_3_u07_r2_network.client[23] 	hdistance[23] 	3.0165815258354
scalar tree_4_3_u07_r2_network.client[23] 	downloads[23] 	11941
scalar tree_4_3_u07_r2_network.client[23] 	avg_time[23] 	0.004577335592
scalar tree_4_3_u07_r2_network.client[24] 	hdistance[24] 	3.0222805828533
scalar tree_4_3_u07_r2_network.client[24] 	downloads[24] 	11804
scalar tree_4_3_u07_r2_network.client[24] 	avg_time[24] 	0.004588375014
scalar tree_4_3_u07_r2_network.client[25] 	hdistance[25] 	3.044011422812
scalar tree_4_3_u07_r2_network.client[25] 	downloads[25] 	11906
scalar tree_4_3_u07_r2_network.client[25] 	avg_time[25] 	0.004621364444
scalar tree_4_3_u07_r2_network.client[26] 	hdistance[26] 	3.0120709476105
scalar tree_4_3_u07_r2_network.client[26] 	downloads[26] 	12178
scalar tree_4_3_u07_r2_network.client[26] 	avg_time[26] 	0.004566756715
scalar tree_4_3_u07_r2_network.client[27] 	hdistance[27] 	3.010669490145
scalar tree_4_3_u07_r2_network.client[27] 	downloads[27] 	12278
scalar tree_4_3_u07_r2_network.client[27] 	avg_time[27] 	0.004571751336
scalar tree_4_3_u07_r2_network.client[28] 	hdistance[28] 	3.0241373589914
scalar tree_4_3_u07_r2_network.client[28] 	downloads[28] 	12056
scalar tree_4_3_u07_r2_network.client[28] 	avg_time[28] 	0.004586758755
scalar tree_4_3_u07_r2_network.client[29] 	hdistance[29] 	3.0262659530671
scalar tree_4_3_u07_r2_network.client[29] 	downloads[29] 	12145
scalar tree_4_3_u07_r2_network.client[29] 	avg_time[29] 	0.004588551937
scalar tree_4_3_u07_r2_network.client[30] 	hdistance[30] 	3.0519217801753
scalar tree_4_3_u07_r2_network.client[30] 	downloads[30] 	11864
scalar tree_4_3_u07_r2_network.client[30] 	avg_time[30] 	0.004627609993
scalar tree_4_3_u07_r2_network.client[31] 	hdistance[31] 	3.032988838363
scalar tree_4_3_u07_r2_network.client[31] 	downloads[31] 	12095
scalar tree_4_3_u07_r2_network.client[31] 	avg_time[31] 	0.004601097371
scalar tree_4_3_u07_r2_network.client[32] 	hdistance[32] 	3.0400763358779
scalar tree_4_3_u07_r2_network.client[32] 	downloads[32] 	12052
scalar tree_4_3_u07_r2_network.client[32] 	avg_time[32] 	0.004609806497
scalar tree_4_3_u07_r2_network.client[33] 	hdistance[33] 	3.0232051604256
scalar tree_4_3_u07_r2_network.client[33] 	downloads[33] 	11937
scalar tree_4_3_u07_r2_network.client[33] 	avg_time[33] 	0.004588084485
scalar tree_4_3_u07_r2_network.client[34] 	hdistance[34] 	3.0102939965412
scalar tree_4_3_u07_r2_network.client[34] 	downloads[34] 	12143
scalar tree_4_3_u07_r2_network.client[34] 	avg_time[34] 	0.004572626182
scalar tree_4_3_u07_r2_network.client[35] 	hdistance[35] 	3.0724710199316
scalar tree_4_3_u07_r2_network.client[35] 	downloads[35] 	11991
scalar tree_4_3_u07_r2_network.client[35] 	avg_time[35] 	0.00465899126
scalar tree_4_3_u07_r2_network.client[36] 	hdistance[36] 	3.0590315789474
scalar tree_4_3_u07_r2_network.client[36] 	downloads[36] 	11875
scalar tree_4_3_u07_r2_network.client[36] 	avg_time[36] 	0.004643272144
scalar tree_4_3_u07_r2_network.client[37] 	hdistance[37] 	3.0381666526245
scalar tree_4_3_u07_r2_network.client[37] 	downloads[37] 	11869
scalar tree_4_3_u07_r2_network.client[37] 	avg_time[37] 	0.004609028782
scalar tree_4_3_u07_r2_network.client[38] 	hdistance[38] 	3.0307782623281
scalar tree_4_3_u07_r2_network.client[38] 	downloads[38] 	11924
scalar tree_4_3_u07_r2_network.client[38] 	avg_time[38] 	0.004594260663
scalar tree_4_3_u07_r2_network.client[39] 	hdistance[39] 	3.0578934365478
scalar tree_4_3_u07_r2_network.client[39] 	downloads[39] 	12143
scalar tree_4_3_u07_r2_network.client[39] 	avg_time[39] 	0.004636126535
