version 2
run General-74-20160825-22:56:11-3010
attr D fix0.005
attr F nrr
attr R lru
attr a 0.9
attr configname General
attr datetime 20160825-22:56:11
attr experiment General
attr inifile hw5115/scenario_C/omnetp.ini
attr iterationvars "$net=level3, $rep=9, $a=0.9, $F=nrr, $D=fix0.005, $R=lru, $window=60, $variance=0.05, $mytime=600"
attr iterationvars2 "$net=level3, $rep=9, $a=0.9, $F=nrr, $D=fix0.005, $R=lru, $window=60, $variance=0.05, $mytime=600, $repetition=0"
attr measurement "$net=level3, $rep=9, $a=0.9, $F=nrr, $D=fix0.005, $R=lru, $window=60, $variance=0.05, $mytime=600"
attr mytime 600
attr net level3
attr network networks.${net=level3}_network
attr processid 3010
attr rep 9
attr repetition 0
attr replication #0
attr resultdir results
attr runnumber 74
attr seedset 9
attr variance 0.05
attr window 60

scalar . 	a 	0.9
scalar . 	mytime 	600
scalar . 	rep 	9
scalar . 	variance 	0.05
scalar . 	window 	60
scalar level3_network.content_distribution 	repo-0 	1
scalar level3_network.content_distribution 	repo-1 	5
scalar level3_network.content_distribution 	repo-2 	22
scalar level3_network.content_distribution 	repo-3 	32
scalar level3_network.content_distribution 	repo-4 	3
scalar level3_network.content_distribution 	repo-5 	23
scalar level3_network.content_distribution 	repo-6 	12
scalar level3_network.content_distribution 	repo-7 	0
scalar level3_network.content_distribution 	repo-8 	44
scalar level3_network.content_distribution 	repo-9 	8
scalar level3_network.content_distribution 	repo-10 	24
scalar level3_network.content_distribution 	repo-11 	30
scalar level3_network.content_distribution 	repo-12 	43
scalar level3_network.content_distribution 	repo-13 	28
scalar level3_network.content_distribution 	repo-14 	7
scalar level3_network.content_distribution 	repo-15 	14
scalar level3_network.content_distribution 	client-0 	21
scalar level3_network.content_distribution 	client-1 	9
scalar level3_network.content_distribution 	client-2 	38
scalar level3_network.content_distribution 	client-3 	2
scalar level3_network.content_distribution 	client-4 	30
scalar level3_network.content_distribution 	client-5 	8
scalar level3_network.content_distribution 	client-6 	23
scalar level3_network.content_distribution 	client-7 	32
scalar level3_network.content_distribution 	client-8 	40
scalar level3_network.content_distribution 	client-9 	42
scalar level3_network.content_distribution 	client-10 	45
scalar level3_network.content_distribution 	client-11 	33
scalar level3_network.content_distribution 	client-12 	28
scalar level3_network.content_distribution 	client-13 	3
scalar level3_network.content_distribution 	client-14 	15
scalar level3_network.content_distribution 	client-15 	34
scalar level3_network.content_distribution 	client-16 	31
scalar level3_network.content_distribution 	client-17 	17
scalar level3_network.content_distribution 	client-18 	25
scalar level3_network.content_distribution 	client-19 	12
scalar level3_network.content_distribution 	client-20 	22
scalar level3_network.content_distribution 	client-21 	11
scalar level3_network.content_distribution 	client-22 	6
scalar level3_network.content_distribution 	client-23 	39
scalar level3_network.content_distribution 	client-24 	7
scalar level3_network.content_distribution 	client-25 	18
scalar level3_network.content_distribution 	client-26 	36
scalar level3_network.content_distribution 	client-27 	27
scalar level3_network.content_distribution 	client-28 	43
scalar level3_network.content_distribution 	client-29 	37
scalar level3_network.content_distribution 	client-30 	4
scalar level3_network.content_distribution 	client-31 	14
scalar level3_network.content_distribution 	repo-0_card 	6357
scalar level3_network.content_distribution 	repo-0_price 	0
scalar level3_network.content_distribution 	repo-1_card 	6265
scalar level3_network.content_distribution 	repo-1_price 	0
scalar level3_network.content_distribution 	repo-2_card 	6376
scalar level3_network.content_distribution 	repo-2_price 	0
scalar level3_network.content_distribution 	repo-3_card 	6158
scalar level3_network.content_distribution 	repo-3_price 	0
scalar level3_network.content_distribution 	repo-4_card 	6159
scalar level3_network.content_distribution 	repo-4_price 	0
scalar level3_network.content_distribution 	repo-5_card 	6389
scalar level3_network.content_distribution 	repo-5_price 	0
scalar level3_network.content_distribution 	repo-6_card 	6324
scalar level3_network.content_distribution 	repo-6_price 	0
scalar level3_network.content_distribution 	repo-7_card 	6320
scalar level3_network.content_distribution 	repo-7_price 	0
scalar level3_network.content_distribution 	repo-8_card 	6093
scalar level3_network.content_distribution 	repo-8_price 	0
scalar level3_network.content_distribution 	repo-9_card 	6151
scalar level3_network.content_distribution 	repo-9_price 	0
scalar level3_network.content_distribution 	repo-10_card 	6306
scalar level3_network.content_distribution 	repo-10_price 	0
scalar level3_network.content_distribution 	repo-11_card 	6181
scalar level3_network.content_distribution 	repo-11_price 	0
scalar level3_network.content_distribution 	repo-12_card 	6225
scalar level3_network.content_distribution 	repo-12_price 	0
scalar level3_network.content_distribution 	repo-13_card 	6286
scalar level3_network.content_distribution 	repo-13_price 	0
scalar level3_network.content_distribution 	repo-14_card 	6172
scalar level3_network.content_distribution 	repo-14_price 	0
scalar level3_network.content_distribution 	repo-15_card 	6238
scalar level3_network.content_distribution 	repo-15_price 	0
scalar level3_network.statistics 	stabilization_time 	3148.5
scalar level3_network.statistics 	p_hit 	0.24823366380797
scalar level3_network.statistics 	interests 	19547.434782609
scalar level3_network.statistics 	data 	11207.695652174
scalar level3_network.statistics 	hdistance 	1.8565384779266
scalar level3_network.statistics 	avg_time 	0.032074341683
scalar level3_network.statistics 	downloads 	383599
scalar level3_network.statistics 	total_cost 	0
scalar level3_network.statistics 	total_replicas 	100000
scalar level3_network.statistics 	inner_hit 	0.48803828998511
scalar level3_network.node[0].core_layer 	interests[0] 	13643
scalar level3_network.node[0].core_layer 	repo_load[0] 	11946
scalar level3_network.node[0].core_layer 	data[0] 	400
scalar level3_network.node[0].core_layer 	repo_int[0] 	196388
scalar level3_network.node[0].content_store 	p_hit[0] 	0.095067067360551
scalar level3_network.node[0].content_store 	hits[0] 	1297
scalar level3_network.node[0].content_store 	misses[0] 	12346
scalar level3_network.node[0].content_store 	decision_yes[0] 	66
scalar level3_network.node[0].content_store 	decision_no[0] 	12280
scalar level3_network.node[0].content_store 	decision_ratio[0] 	0.0053458610076138
scalar level3_network.node[1].core_layer 	interests[1] 	13098
scalar level3_network.node[1].core_layer 	repo_load[1] 	11842
scalar level3_network.node[1].core_layer 	data[1] 	0
scalar level3_network.node[1].content_store 	p_hit[1] 	0.095892502672164
scalar level3_network.node[1].content_store 	hits[1] 	1256
scalar level3_network.node[1].content_store 	misses[1] 	11842
scalar level3_network.node[1].content_store 	decision_yes[1] 	87
scalar level3_network.node[1].content_store 	decision_no[1] 	11755
scalar level3_network.node[1].content_store 	decision_ratio[1] 	0.0073467319709509
scalar level3_network.node[2].core_layer 	interests[2] 	50940
scalar level3_network.node[2].core_layer 	data[2] 	45360
scalar level3_network.node[2].content_store 	p_hit[2] 	0.10940321947389
scalar level3_network.node[2].content_store 	hits[2] 	5573
scalar level3_network.node[2].content_store 	misses[2] 	45367
scalar level3_network.node[2].content_store 	decision_yes[2] 	236
scalar level3_network.node[2].content_store 	decision_no[2] 	45124
scalar level3_network.node[2].content_store 	decision_ratio[2] 	0.0052028218694885
scalar level3_network.node[3].core_layer 	interests[3] 	46886
scalar level3_network.node[3].core_layer 	repo_load[3] 	12979
scalar level3_network.node[3].core_layer 	data[3] 	27478
scalar level3_network.node[3].content_store 	p_hit[3] 	0.13697052425031
scalar level3_network.node[3].content_store 	hits[3] 	6422
scalar level3_network.node[3].content_store 	misses[3] 	40464
scalar level3_network.node[3].content_store 	decision_yes[3] 	185
scalar level3_network.node[3].content_store 	decision_no[3] 	40272
scalar level3_network.node[3].content_store 	decision_ratio[3] 	0.0045727562597326
scalar level3_network.node[4].core_layer 	interests[4] 	14077
scalar level3_network.node[4].core_layer 	data[4] 	9470
scalar level3_network.node[4].content_store 	p_hit[4] 	0.32720039781203
scalar level3_network.node[4].content_store 	hits[4] 	4606
scalar level3_network.node[4].content_store 	misses[4] 	9471
scalar level3_network.node[4].content_store 	decision_yes[4] 	39
scalar level3_network.node[4].content_store 	decision_no[4] 	9431
scalar level3_network.node[4].content_store 	decision_ratio[4] 	0.0041182682154171
scalar level3_network.node[5].core_layer 	interests[5] 	17505
scalar level3_network.node[5].core_layer 	repo_load[5] 	11685
scalar level3_network.node[5].core_layer 	data[5] 	3313
scalar level3_network.node[5].content_store 	p_hit[5] 	0.14321622393602
scalar level3_network.node[5].content_store 	hits[5] 	2507
scalar level3_network.node[5].content_store 	misses[5] 	14998
scalar level3_network.node[5].content_store 	decision_yes[5] 	77
scalar level3_network.node[5].content_store 	decision_no[5] 	14921
scalar level3_network.node[5].content_store 	decision_ratio[5] 	0.0051340178690492
scalar level3_network.node[6].core_layer 	interests[6] 	13561
scalar level3_network.node[6].core_layer 	data[6] 	9354
scalar level3_network.node[6].content_store 	p_hit[6] 	0.31008037755328
scalar level3_network.node[6].content_store 	hits[6] 	4205
scalar level3_network.node[6].content_store 	misses[6] 	9356
scalar level3_network.node[6].content_store 	decision_yes[6] 	37
scalar level3_network.node[6].content_store 	decision_no[6] 	9317
scalar level3_network.node[6].content_store 	decision_ratio[6] 	0.0039555270472525
scalar level3_network.node[7].core_layer 	interests[7] 	122222
scalar level3_network.node[7].core_layer 	repo_load[7] 	13823
scalar level3_network.node[7].core_layer 	data[7] 	100388
scalar level3_network.node[7].content_store 	p_hit[7] 	0.065299209634927
scalar level3_network.node[7].content_store 	hits[7] 	7981
scalar level3_network.node[7].content_store 	misses[7] 	114241
scalar level3_network.node[7].content_store 	decision_yes[7] 	593
scalar level3_network.node[7].content_store 	decision_no[7] 	113618
scalar level3_network.node[7].content_store 	decision_ratio[7] 	0.0051921443643782
scalar level3_network.node[8].core_layer 	interests[8] 	44993
scalar level3_network.node[8].core_layer 	repo_load[8] 	13110
scalar level3_network.node[8].core_layer 	data[8] 	20610
scalar level3_network.node[8].content_store 	p_hit[8] 	0.25050563420977
scalar level3_network.node[8].content_store 	hits[8] 	11271
scalar level3_network.node[8].content_store 	misses[8] 	33722
scalar level3_network.node[8].content_store 	decision_yes[8] 	182
scalar level3_network.node[8].content_store 	decision_no[8] 	33538
scalar level3_network.node[8].content_store 	decision_ratio[8] 	0.0053973902728351
scalar level3_network.node[9].core_layer 	interests[9] 	16927
scalar level3_network.node[9].core_layer 	data[9] 	9395
scalar level3_network.node[9].content_store 	p_hit[9] 	0.44496957523483
scalar level3_network.node[9].content_store 	hits[9] 	7532
scalar level3_network.node[9].content_store 	misses[9] 	9395
scalar level3_network.node[9].content_store 	decision_yes[9] 	35
scalar level3_network.node[9].content_store 	decision_no[9] 	9360
scalar level3_network.node[9].content_store 	decision_ratio[9] 	0.0037253858435338
scalar level3_network.node[10].core_layer 	interests[10] 	0
scalar level3_network.node[10].core_layer 	data[10] 	0
scalar level3_network.node[10].content_store 	p_hit[10] 	-nan
scalar level3_network.node[10].content_store 	hits[10] 	0
scalar level3_network.node[10].content_store 	misses[10] 	0
scalar level3_network.node[10].content_store 	decision_yes[10] 	0
scalar level3_network.node[10].content_store 	decision_no[10] 	0
scalar level3_network.node[10].content_store 	decision_ratio[10] 	0
scalar level3_network.node[11].core_layer 	interests[11] 	73480
scalar level3_network.node[11].core_layer 	data[11] 	62150
scalar level3_network.node[11].content_store 	p_hit[11] 	0.15374251497006
scalar level3_network.node[11].content_store 	hits[11] 	11297
scalar level3_network.node[11].content_store 	misses[11] 	62183
scalar level3_network.node[11].content_store 	decision_yes[11] 	320
scalar level3_network.node[11].content_store 	decision_no[11] 	61830
scalar level3_network.node[11].content_store 	decision_ratio[11] 	0.0051488334674175
scalar level3_network.node[12].core_layer 	interests[12] 	25416
scalar level3_network.node[12].core_layer 	repo_load[12] 	12247
scalar level3_network.node[12].core_layer 	data[12] 	8865
scalar level3_network.node[12].content_store 	p_hit[12] 	0.16930280138495
scalar level3_network.node[12].content_store 	hits[12] 	4303
scalar level3_network.node[12].content_store 	misses[12] 	21113
scalar level3_network.node[12].content_store 	decision_yes[12] 	91
scalar level3_network.node[12].content_store 	decision_no[12] 	21021
scalar level3_network.node[12].content_store 	decision_ratio[12] 	0.0043103448275862
scalar level3_network.node[13].core_layer 	interests[13] 	0
scalar level3_network.node[13].core_layer 	data[13] 	0
scalar level3_network.node[13].content_store 	p_hit[13] 	-nan
scalar level3_network.node[13].content_store 	hits[13] 	0
scalar level3_network.node[13].content_store 	misses[13] 	0
scalar level3_network.node[13].content_store 	decision_yes[13] 	0
scalar level3_network.node[13].content_store 	decision_no[13] 	0
scalar level3_network.node[13].content_store 	decision_ratio[13] 	0
scalar level3_network.node[14].core_layer 	interests[14] 	25739
scalar level3_network.node[14].core_layer 	repo_load[14] 	12189
scalar level3_network.node[14].core_layer 	data[14] 	8939
scalar level3_network.node[14].content_store 	p_hit[14] 	0.17918334045612
scalar level3_network.node[14].content_store 	hits[14] 	4612
scalar level3_network.node[14].content_store 	misses[14] 	21127
scalar level3_network.node[14].content_store 	decision_yes[14] 	104
scalar level3_network.node[14].content_store 	decision_no[14] 	21024
scalar level3_network.node[14].content_store 	decision_ratio[14] 	0.004922377887164
scalar level3_network.node[15].core_layer 	interests[15] 	13938
scalar level3_network.node[15].core_layer 	data[15] 	9314
scalar level3_network.node[15].content_store 	p_hit[15] 	0.3315396757067
scalar level3_network.node[15].content_store 	hits[15] 	4621
scalar level3_network.node[15].content_store 	misses[15] 	9317
scalar level3_network.node[15].content_store 	decision_yes[15] 	41
scalar level3_network.node[15].content_store 	decision_no[15] 	9273
scalar level3_network.node[15].content_store 	decision_ratio[15] 	0.0044019755207215
scalar level3_network.node[16].core_layer 	interests[16] 	0
scalar level3_network.node[16].core_layer 	data[16] 	0
scalar level3_network.node[16].content_store 	p_hit[16] 	-nan
scalar level3_network.node[16].content_store 	hits[16] 	0
scalar level3_network.node[16].content_store 	misses[16] 	0
scalar level3_network.node[16].content_store 	decision_yes[16] 	0
scalar level3_network.node[16].content_store 	decision_no[16] 	0
scalar level3_network.node[16].content_store 	decision_ratio[16] 	0
scalar level3_network.node[17].core_layer 	interests[17] 	20222
scalar level3_network.node[17].core_layer 	data[17] 	9238
scalar level3_network.node[17].content_store 	p_hit[17] 	0.54302245079616
scalar level3_network.node[17].content_store 	hits[17] 	10981
scalar level3_network.node[17].content_store 	misses[17] 	9241
scalar level3_network.node[17].content_store 	decision_yes[17] 	44
scalar level3_network.node[17].content_store 	decision_no[17] 	9194
scalar level3_network.node[17].content_store 	decision_ratio[17] 	0.004762935700368
scalar level3_network.node[18].core_layer 	interests[18] 	28712
scalar level3_network.node[18].core_layer 	data[18] 	15382
scalar level3_network.node[18].content_store 	p_hit[18] 	0.46426581220396
scalar level3_network.node[18].content_store 	hits[18] 	13330
scalar level3_network.node[18].content_store 	misses[18] 	15382
scalar level3_network.node[18].content_store 	decision_yes[18] 	66
scalar level3_network.node[18].content_store 	decision_no[18] 	15316
scalar level3_network.node[18].content_store 	decision_ratio[18] 	0.0042907294240021
scalar level3_network.node[19].core_layer 	interests[19] 	0
scalar level3_network.node[19].core_layer 	data[19] 	0
scalar level3_network.node[19].content_store 	p_hit[19] 	-nan
scalar level3_network.node[19].content_store 	hits[19] 	0
scalar level3_network.node[19].content_store 	misses[19] 	0
scalar level3_network.node[19].content_store 	decision_yes[19] 	0
scalar level3_network.node[19].content_store 	decision_no[19] 	0
scalar level3_network.node[19].content_store 	decision_ratio[19] 	0
scalar level3_network.node[20].core_layer 	interests[20] 	0
scalar level3_network.node[20].core_layer 	data[20] 	0
scalar level3_network.node[20].content_store 	p_hit[20] 	-nan
scalar level3_network.node[20].content_store 	hits[20] 	0
scalar level3_network.node[20].content_store 	misses[20] 	0
scalar level3_network.node[20].content_store 	decision_yes[20] 	0
scalar level3_network.node[20].content_store 	decision_no[20] 	0
scalar level3_network.node[20].content_store 	decision_ratio[20] 	0
scalar level3_network.node[21].core_layer 	interests[21] 	13073
scalar level3_network.node[21].core_layer 	data[21] 	9261
scalar level3_network.node[21].content_store 	p_hit[21] 	0.29144037328846
scalar level3_network.node[21].content_store 	hits[21] 	3810
scalar level3_network.node[21].content_store 	misses[21] 	9263
scalar level3_network.node[21].content_store 	decision_yes[21] 	50
scalar level3_network.node[21].content_store 	decision_no[21] 	9211
scalar level3_network.node[21].content_store 	decision_ratio[21] 	0.0053989849908217
scalar level3_network.node[22].core_layer 	interests[22] 	25840
scalar level3_network.node[22].core_layer 	repo_load[22] 	12453
scalar level3_network.node[22].core_layer 	data[22] 	9074
scalar level3_network.node[22].content_store 	p_hit[22] 	0.16687306501548
scalar level3_network.node[22].content_store 	hits[22] 	4312
scalar level3_network.node[22].content_store 	misses[22] 	21528
scalar level3_network.node[22].content_store 	decision_yes[22] 	107
scalar level3_network.node[22].content_store 	decision_no[22] 	21420
scalar level3_network.node[22].content_store 	decision_ratio[22] 	0.004970502160078
scalar level3_network.node[23].core_layer 	interests[23] 	26200
scalar level3_network.node[23].core_layer 	repo_load[23] 	12826
scalar level3_network.node[23].core_layer 	data[23] 	9298
scalar level3_network.node[23].content_store 	p_hit[23] 	0.15545801526718
scalar level3_network.node[23].content_store 	hits[23] 	4073
scalar level3_network.node[23].content_store 	misses[23] 	22127
scalar level3_network.node[23].content_store 	decision_yes[23] 	114
scalar level3_network.node[23].content_store 	decision_no[23] 	22010
scalar level3_network.node[23].content_store 	decision_ratio[23] 	0.0051527752666787
scalar level3_network.node[24].core_layer 	interests[24] 	13722
scalar level3_network.node[24].core_layer 	repo_load[24] 	11936
scalar level3_network.node[24].core_layer 	data[24] 	0
scalar level3_network.node[24].content_store 	p_hit[24] 	0.13015595394257
scalar level3_network.node[24].content_store 	hits[24] 	1786
scalar level3_network.node[24].content_store 	misses[24] 	11936
scalar level3_network.node[24].content_store 	decision_yes[24] 	59
scalar level3_network.node[24].content_store 	decision_no[24] 	11877
scalar level3_network.node[24].content_store 	decision_ratio[24] 	0.0049430294906166
scalar level3_network.node[25].core_layer 	interests[25] 	13660
scalar level3_network.node[25].core_layer 	data[25] 	9415
scalar level3_network.node[25].content_store 	p_hit[25] 	0.31090775988287
scalar level3_network.node[25].content_store 	hits[25] 	4247
scalar level3_network.node[25].content_store 	misses[25] 	9413
scalar level3_network.node[25].content_store 	decision_yes[25] 	52
scalar level3_network.node[25].content_store 	decision_no[25] 	9363
scalar level3_network.node[25].content_store 	decision_ratio[25] 	0.0055231014338821
scalar level3_network.node[26].core_layer 	interests[26] 	0
scalar level3_network.node[26].core_layer 	data[26] 	0
scalar level3_network.node[26].content_store 	p_hit[26] 	-nan
scalar level3_network.node[26].content_store 	hits[26] 	0
scalar level3_network.node[26].content_store 	misses[26] 	0
scalar level3_network.node[26].content_store 	decision_yes[26] 	0
scalar level3_network.node[26].content_store 	decision_no[26] 	0
scalar level3_network.node[26].content_store 	decision_ratio[26] 	0
scalar level3_network.node[27].core_layer 	interests[27] 	13984
scalar level3_network.node[27].core_layer 	data[27] 	9447
scalar level3_network.node[27].content_store 	p_hit[27] 	0.32437070938215
scalar level3_network.node[27].content_store 	hits[27] 	4536
scalar level3_network.node[27].content_store 	misses[27] 	9448
scalar level3_network.node[27].content_store 	decision_yes[27] 	43
scalar level3_network.node[27].content_store 	decision_no[27] 	9404
scalar level3_network.node[27].content_store 	decision_ratio[27] 	0.0045517095374193
scalar level3_network.node[28].core_layer 	interests[28] 	26000
scalar level3_network.node[28].core_layer 	repo_load[28] 	12478
scalar level3_network.node[28].core_layer 	data[28] 	9254
scalar level3_network.node[28].content_store 	p_hit[28] 	0.16411538461538
scalar level3_network.node[28].content_store 	hits[28] 	4267
scalar level3_network.node[28].content_store 	misses[28] 	21733
scalar level3_network.node[28].content_store 	decision_yes[28] 	118
scalar level3_network.node[28].content_store 	decision_no[28] 	21614
scalar level3_network.node[28].content_store 	decision_ratio[28] 	0.0054297809681576
scalar level3_network.node[29].core_layer 	interests[29] 	0
scalar level3_network.node[29].core_layer 	data[29] 	0
scalar level3_network.node[29].content_store 	p_hit[29] 	-nan
scalar level3_network.node[29].content_store 	hits[29] 	0
scalar level3_network.node[29].content_store 	misses[29] 	0
scalar level3_network.node[29].content_store 	decision_yes[29] 	0
scalar level3_network.node[29].content_store 	decision_no[29] 	0
scalar level3_network.node[29].content_store 	decision_ratio[29] 	0
scalar level3_network.node[30].core_layer 	interests[30] 	25727
scalar level3_network.node[30].core_layer 	repo_load[30] 	11999
scalar level3_network.node[30].core_layer 	data[30] 	9054
scalar level3_network.node[30].content_store 	p_hit[30] 	0.18163796789365
scalar level3_network.node[30].content_store 	hits[30] 	4673
scalar level3_network.node[30].content_store 	misses[30] 	21054
scalar level3_network.node[30].content_store 	decision_yes[30] 	108
scalar level3_network.node[30].content_store 	decision_no[30] 	20945
scalar level3_network.node[30].content_store 	decision_ratio[30] 	0.005129910226571
scalar level3_network.node[31].core_layer 	interests[31] 	13903
scalar level3_network.node[31].core_layer 	data[31] 	9450
scalar level3_network.node[31].content_store 	p_hit[31] 	0.32014673092138
scalar level3_network.node[31].content_store 	hits[31] 	4451
scalar level3_network.node[31].content_store 	misses[31] 	9452
scalar level3_network.node[31].content_store 	decision_yes[31] 	51
scalar level3_network.node[31].content_store 	decision_no[31] 	9399
scalar level3_network.node[31].content_store 	decision_ratio[31] 	0.0053968253968254
scalar level3_network.node[32].core_layer 	interests[32] 	25443
scalar level3_network.node[32].core_layer 	repo_load[32] 	12041
scalar level3_network.node[32].core_layer 	data[32] 	8833
scalar level3_network.node[32].content_store 	p_hit[32] 	0.17957787996699
scalar level3_network.node[32].content_store 	hits[32] 	4569
scalar level3_network.node[32].content_store 	misses[32] 	20874
scalar level3_network.node[32].content_store 	decision_yes[32] 	105
scalar level3_network.node[32].content_store 	decision_no[32] 	20769
scalar level3_network.node[32].content_store 	decision_ratio[32] 	0.0050301810865191
scalar level3_network.node[33].core_layer 	interests[33] 	13710
scalar level3_network.node[33].core_layer 	data[33] 	9246
scalar level3_network.node[33].content_store 	p_hit[33] 	0.32560175054705
scalar level3_network.node[33].content_store 	hits[33] 	4464
scalar level3_network.node[33].content_store 	misses[33] 	9246
scalar level3_network.node[33].content_store 	decision_yes[33] 	51
scalar level3_network.node[33].content_store 	decision_no[33] 	9195
scalar level3_network.node[33].content_store 	decision_ratio[33] 	0.0055158987670344
scalar level3_network.node[34].core_layer 	interests[34] 	13920
scalar level3_network.node[34].core_layer 	data[34] 	9343
scalar level3_network.node[34].content_store 	p_hit[34] 	0.32887931034483
scalar level3_network.node[34].content_store 	hits[34] 	4578
scalar level3_network.node[34].content_store 	misses[34] 	9342
scalar level3_network.node[34].content_store 	decision_yes[34] 	48
scalar level3_network.node[34].content_store 	decision_no[34] 	9295
scalar level3_network.node[34].content_store 	decision_ratio[34] 	0.0051375361233009
scalar level3_network.node[35].core_layer 	interests[35] 	0
scalar level3_network.node[35].core_layer 	data[35] 	0
scalar level3_network.node[35].content_store 	p_hit[35] 	-nan
scalar level3_network.node[35].content_store 	hits[35] 	0
scalar level3_network.node[35].content_store 	misses[35] 	0
scalar level3_network.node[35].content_store 	decision_yes[35] 	0
scalar level3_network.node[35].content_store 	decision_no[35] 	0
scalar level3_network.node[35].content_store 	decision_ratio[35] 	0
scalar level3_network.node[36].core_layer 	interests[36] 	13888
scalar level3_network.node[36].core_layer 	data[36] 	9497
scalar level3_network.node[36].content_store 	p_hit[36] 	0.31631624423963
scalar level3_network.node[36].content_store 	hits[36] 	4393
scalar level3_network.node[36].content_store 	misses[36] 	9495
scalar level3_network.node[36].content_store 	decision_yes[36] 	59
scalar level3_network.node[36].content_store 	decision_no[36] 	9438
scalar level3_network.node[36].content_store 	decision_ratio[36] 	0.0062124881541539
scalar level3_network.node[37].core_layer 	interests[37] 	13821
scalar level3_network.node[37].core_layer 	data[37] 	9571
scalar level3_network.node[37].content_store 	p_hit[37] 	0.30750307503075
scalar level3_network.node[37].content_store 	hits[37] 	4250
scalar level3_network.node[37].content_store 	misses[37] 	9571
scalar level3_network.node[37].content_store 	decision_yes[37] 	42
scalar level3_network.node[37].content_store 	decision_no[37] 	9529
scalar level3_network.node[37].content_store 	decision_ratio[37] 	0.0043882561905757
scalar level3_network.node[38].core_layer 	interests[38] 	13624
scalar level3_network.node[38].core_layer 	data[38] 	9159
scalar level3_network.node[38].content_store 	p_hit[38] 	0.32758367586612
scalar level3_network.node[38].content_store 	hits[38] 	4463
scalar level3_network.node[38].content_store 	misses[38] 	9161
scalar level3_network.node[38].content_store 	decision_yes[38] 	37
scalar level3_network.node[38].content_store 	decision_no[38] 	9122
scalar level3_network.node[38].content_store 	decision_ratio[38] 	0.0040397423299487
scalar level3_network.node[39].core_layer 	interests[39] 	13876
scalar level3_network.node[39].core_layer 	data[39] 	9451
scalar level3_network.node[39].content_store 	p_hit[39] 	0.31896800230614
scalar level3_network.node[39].content_store 	hits[39] 	4426
scalar level3_network.node[39].content_store 	misses[39] 	9450
scalar level3_network.node[39].content_store 	decision_yes[39] 	66
scalar level3_network.node[39].content_store 	decision_no[39] 	9385
scalar level3_network.node[39].content_store 	decision_ratio[39] 	0.0069833880012697
scalar level3_network.node[40].core_layer 	interests[40] 	13064
scalar level3_network.node[40].core_layer 	data[40] 	9301
scalar level3_network.node[40].content_store 	p_hit[40] 	0.28804347826087
scalar level3_network.node[40].content_store 	hits[40] 	3763
scalar level3_network.node[40].content_store 	misses[40] 	9301
scalar level3_network.node[40].content_store 	decision_yes[40] 	42
scalar level3_network.node[40].content_store 	decision_no[40] 	9259
scalar level3_network.node[40].content_store 	decision_ratio[40] 	0.0045156434791958
scalar level3_network.node[41].core_layer 	interests[41] 	0
scalar level3_network.node[41].core_layer 	data[41] 	0
scalar level3_network.node[41].content_store 	p_hit[41] 	-nan
scalar level3_network.node[41].content_store 	hits[41] 	0
scalar level3_network.node[41].content_store 	misses[41] 	0
scalar level3_network.node[41].content_store 	decision_yes[41] 	0
scalar level3_network.node[41].content_store 	decision_no[41] 	0
scalar level3_network.node[41].content_store 	decision_ratio[41] 	0
scalar level3_network.node[42].core_layer 	interests[42] 	13808
scalar level3_network.node[42].core_layer 	data[42] 	9237
scalar level3_network.node[42].content_store 	p_hit[42] 	0.33075028968714
scalar level3_network.node[42].content_store 	hits[42] 	4567
scalar level3_network.node[42].content_store 	misses[42] 	9241
scalar level3_network.node[42].content_store 	decision_yes[42] 	38
scalar level3_network.node[42].content_store 	decision_no[42] 	9199
scalar level3_network.node[42].content_store 	decision_ratio[42] 	0.0041138897910577
scalar level3_network.node[43].core_layer 	interests[43] 	24706
scalar level3_network.node[43].core_layer 	repo_load[43] 	12211
scalar level3_network.node[43].core_layer 	data[43] 	8539
scalar level3_network.node[43].content_store 	p_hit[43] 	0.16000161903991
scalar level3_network.node[43].content_store 	hits[43] 	3953
scalar level3_network.node[43].content_store 	misses[43] 	20753
scalar level3_network.node[43].content_store 	decision_yes[43] 	107
scalar level3_network.node[43].content_store 	decision_no[43] 	20643
scalar level3_network.node[43].content_store 	decision_ratio[43] 	0.0051566265060241
scalar level3_network.node[44].core_layer 	interests[44] 	12244
scalar level3_network.node[44].core_layer 	repo_load[44] 	10623
scalar level3_network.node[44].core_layer 	data[44] 	0
scalar level3_network.node[44].content_store 	p_hit[44] 	0.13239137536753
scalar level3_network.node[44].content_store 	hits[44] 	1621
scalar level3_network.node[44].content_store 	misses[44] 	10623
scalar level3_network.node[44].content_store 	decision_yes[44] 	50
scalar level3_network.node[44].content_store 	decision_no[44] 	10573
scalar level3_network.node[44].content_store 	decision_ratio[44] 	0.0047067683328627
scalar level3_network.node[45].core_layer 	interests[45] 	13610
scalar level3_network.node[45].core_layer 	data[45] 	9468
scalar level3_network.node[45].content_store 	p_hit[45] 	0.30426157237325
scalar level3_network.node[45].content_store 	hits[45] 	4141
scalar level3_network.node[45].content_store 	misses[45] 	9469
scalar level3_network.node[45].content_store 	decision_yes[45] 	45
scalar level3_network.node[45].content_store 	decision_no[45] 	9423
scalar level3_network.node[45].content_store 	decision_ratio[45] 	0.0047528517110266
scalar level3_network.client[2] 	hdistance[2] 	1.7669870455495
scalar level3_network.client[2] 	downloads[2] 	11965
scalar level3_network.client[2] 	avg_time[2] 	0.039685371011
scalar level3_network.client[3] 	hdistance[3] 	1.6378334017234
scalar level3_network.client[3] 	downloads[3] 	12185
scalar level3_network.client[3] 	avg_time[3] 	0.038723961156
scalar level3_network.client[4] 	hdistance[4] 	1.8828858781481
scalar level3_network.client[4] 	downloads[4] 	12031
scalar level3_network.client[4] 	avg_time[4] 	0.039952672471
scalar level3_network.client[6] 	hdistance[6] 	1.9426311407161
scalar level3_network.client[6] 	downloads[6] 	12010
scalar level3_network.client[6] 	avg_time[6] 	0.026931330303
scalar level3_network.client[7] 	hdistance[7] 	1.4197736351531
scalar level3_network.client[7] 	downloads[7] 	12016
scalar level3_network.client[7] 	avg_time[7] 	0.021107695743
scalar level3_network.client[8] 	hdistance[8] 	1.5271692986925
scalar level3_network.client[8] 	downloads[8] 	11778
scalar level3_network.client[8] 	avg_time[8] 	0.024678102487
scalar level3_network.client[9] 	hdistance[9] 	1.6615422356693
scalar level3_network.client[9] 	downloads[9] 	12229
scalar level3_network.client[9] 	avg_time[9] 	0.027163104029
scalar level3_network.client[11] 	hdistance[11] 	1.3897101812411
scalar level3_network.client[11] 	downloads[11] 	11973
scalar level3_network.client[11] 	avg_time[11] 	0.021695092083
scalar level3_network.client[12] 	hdistance[12] 	1.8552877270413
scalar level3_network.client[12] 	downloads[12] 	11782
scalar level3_network.client[12] 	avg_time[12] 	0.034698492158
scalar level3_network.client[14] 	hdistance[14] 	1.8636820925553
scalar level3_network.client[14] 	downloads[14] 	11928
scalar level3_network.client[14] 	avg_time[14] 	0.024641347094
scalar level3_network.client[15] 	hdistance[15] 	1.9070607001931
scalar level3_network.client[15] 	downloads[15] 	11911
scalar level3_network.client[15] 	avg_time[15] 	0.039508718126
scalar level3_network.client[17] 	hdistance[17] 	1.4127010446029
scalar level3_network.client[17] 	downloads[17] 	12062
scalar level3_network.client[17] 	avg_time[17] 	0.032837630563
scalar level3_network.client[18] 	hdistance[18] 	1.4158009383378
scalar level3_network.client[18] 	downloads[18] 	11936
scalar level3_network.client[18] 	avg_time[18] 	0.021838087248
scalar level3_network.client[21] 	hdistance[21] 	2.3381642512078
scalar level3_network.client[21] 	downloads[21] 	12006
scalar level3_network.client[21] 	avg_time[21] 	0.039821564079
scalar level3_network.client[22] 	hdistance[22] 	1.9014492753623
scalar level3_network.client[22] 	downloads[22] 	12075
scalar level3_network.client[22] 	avg_time[22] 	0.026988692701
scalar level3_network.client[23] 	hdistance[23] 	1.9106821527891
scalar level3_network.client[23] 	downloads[23] 	12226
scalar level3_network.client[23] 	avg_time[23] 	0.022549569897
scalar level3_network.client[25] 	hdistance[25] 	1.9679540536041
scalar level3_network.client[25] 	downloads[25] 	12014
scalar level3_network.client[25] 	avg_time[25] 	0.022824413048
scalar level3_network.client[27] 	hdistance[27] 	1.9692179004601
scalar level3_network.client[27] 	downloads[27] 	11955
scalar level3_network.client[27] 	avg_time[27] 	0.03784638981
scalar level3_network.client[28] 	hdistance[28] 	1.9054593874834
scalar level3_network.client[28] 	downloads[28] 	12016
scalar level3_network.client[28] 	avg_time[28] 	0.031628517647
scalar level3_network.client[30] 	hdistance[30] 	1.8954875302361
scalar level3_network.client[30] 	downloads[30] 	11989
scalar level3_network.client[30] 	avg_time[30] 	0.024294099535
scalar level3_network.client[31] 	hdistance[31] 	1.9599103585657
scalar level3_network.client[31] 	downloads[31] 	12048
scalar level3_network.client[31] 	avg_time[31] 	0.040951641418
scalar level3_network.client[32] 	hdistance[32] 	1.8831267391854
scalar level3_network.client[32] 	downloads[32] 	11859
scalar level3_network.client[32] 	avg_time[32] 	0.032412628339
scalar level3_network.client[33] 	hdistance[33] 	1.9417216331302
scalar level3_network.client[33] 	downloads[33] 	11977
scalar level3_network.client[33] 	avg_time[33] 	0.031259421092
scalar level3_network.client[34] 	hdistance[34] 	1.9294146784446
scalar level3_network.client[34] 	downloads[34] 	12113
scalar level3_network.client[34] 	avg_time[34] 	0.040806507722
scalar level3_network.client[36] 	hdistance[36] 	1.950463620416
scalar level3_network.client[36] 	downloads[36] 	11971
scalar level3_network.client[36] 	avg_time[36] 	0.025661662846
scalar level3_network.client[37] 	hdistance[37] 	1.9528916756043
scalar level3_network.client[37] 	downloads[37] 	12121
scalar level3_network.client[37] 	avg_time[37] 	0.030111661269
scalar level3_network.client[38] 	hdistance[38] 	1.9383248730964
scalar level3_network.client[38] 	downloads[38] 	11820
scalar level3_network.client[38] 	avg_time[38] 	0.03933210283
scalar level3_network.client[39] 	hdistance[39] 	1.9465642481423
scalar level3_network.client[39] 	downloads[39] 	11977
scalar level3_network.client[39] 	avg_time[39] 	0.024880171827
scalar level3_network.client[40] 	hdistance[40] 	2.2028142905292
scalar level3_network.client[40] 	downloads[40] 	11868
scalar level3_network.client[40] 	avg_time[40] 	0.030370774706
scalar level3_network.client[42] 	hdistance[42] 	1.9108301727771
scalar level3_network.client[42] 	downloads[42] 	11865
scalar level3_network.client[42] 	avg_time[42] 	0.042656066617
scalar level3_network.client[43] 	hdistance[43] 	2.2693121245452
scalar level3_network.client[43] 	downloads[43] 	11819
scalar level3_network.client[43] 	avg_time[43] 	0.04172949688
scalar level3_network.client[45] 	hdistance[45] 	1.9523770084479
scalar level3_network.client[45] 	downloads[45] 	12074
scalar level3_network.client[45] 	avg_time[45] 	0.046791947127
