version 2
run General-47-20160825-19:25:21-3010
attr D fix0.005
attr F nrr
attr R lru
attr a 0.9
attr configname General
attr datetime 20160825-19:25:21
attr experiment General
attr inifile hw5115/scenario_C/omnetp.ini
attr iterationvars "$net=level3, $rep=6, $a=0.9, $F=nrr, $D=fix0.005, $R=lru, $window=60, $variance=0.05, $mytime=600"
attr iterationvars2 "$net=level3, $rep=6, $a=0.9, $F=nrr, $D=fix0.005, $R=lru, $window=60, $variance=0.05, $mytime=600, $repetition=0"
attr measurement "$net=level3, $rep=6, $a=0.9, $F=nrr, $D=fix0.005, $R=lru, $window=60, $variance=0.05, $mytime=600"
attr mytime 600
attr net level3
attr network networks.${net=level3}_network
attr processid 3010
attr rep 6
attr repetition 0
attr replication #0
attr resultdir results
attr runnumber 47
attr seedset 6
attr variance 0.05
attr window 60

scalar . 	a 	0.9
scalar . 	mytime 	600
scalar . 	rep 	6
scalar . 	variance 	0.05
scalar . 	window 	60
scalar level3_network.content_distribution 	repo-0 	29
scalar level3_network.content_distribution 	repo-1 	34
scalar level3_network.content_distribution 	repo-2 	40
scalar level3_network.content_distribution 	repo-3 	19
scalar level3_network.content_distribution 	repo-4 	10
scalar level3_network.content_distribution 	repo-5 	31
scalar level3_network.content_distribution 	repo-6 	2
scalar level3_network.content_distribution 	repo-7 	22
scalar level3_network.content_distribution 	repo-8 	5
scalar level3_network.content_distribution 	repo-9 	33
scalar level3_network.content_distribution 	repo-10 	44
scalar level3_network.content_distribution 	repo-11 	39
scalar level3_network.content_distribution 	repo-12 	15
scalar level3_network.content_distribution 	repo-13 	16
scalar level3_network.content_distribution 	repo-14 	7
scalar level3_network.content_distribution 	repo-15 	9
scalar level3_network.content_distribution 	client-0 	21
scalar level3_network.content_distribution 	client-1 	9
scalar level3_network.content_distribution 	client-2 	38
scalar level3_network.content_distribution 	client-3 	2
scalar level3_network.content_distribution 	client-4 	30
scalar level3_network.content_distribution 	client-5 	8
scalar level3_network.content_distribution 	client-6 	23
scalar level3_network.content_distribution 	client-7 	32
scalar level3_network.content_distribution 	client-8 	40
scalar level3_network.content_distribution 	client-9 	42
scalar level3_network.content_distribution 	client-10 	45
scalar level3_network.content_distribution 	client-11 	33
scalar level3_network.content_distribution 	client-12 	28
scalar level3_network.content_distribution 	client-13 	3
scalar level3_network.content_distribution 	client-14 	15
scalar level3_network.content_distribution 	client-15 	34
scalar level3_network.content_distribution 	client-16 	31
scalar level3_network.content_distribution 	client-17 	17
scalar level3_network.content_distribution 	client-18 	25
scalar level3_network.content_distribution 	client-19 	12
scalar level3_network.content_distribution 	client-20 	22
scalar level3_network.content_distribution 	client-21 	11
scalar level3_network.content_distribution 	client-22 	6
scalar level3_network.content_distribution 	client-23 	39
scalar level3_network.content_distribution 	client-24 	7
scalar level3_network.content_distribution 	client-25 	18
scalar level3_network.content_distribution 	client-26 	36
scalar level3_network.content_distribution 	client-27 	27
scalar level3_network.content_distribution 	client-28 	43
scalar level3_network.content_distribution 	client-29 	37
scalar level3_network.content_distribution 	client-30 	4
scalar level3_network.content_distribution 	client-31 	14
scalar level3_network.content_distribution 	repo-0_card 	6360
scalar level3_network.content_distribution 	repo-0_price 	0
scalar level3_network.content_distribution 	repo-1_card 	6227
scalar level3_network.content_distribution 	repo-1_price 	0
scalar level3_network.content_distribution 	repo-2_card 	6204
scalar level3_network.content_distribution 	repo-2_price 	0
scalar level3_network.content_distribution 	repo-3_card 	6279
scalar level3_network.content_distribution 	repo-3_price 	0
scalar level3_network.content_distribution 	repo-4_card 	6336
scalar level3_network.content_distribution 	repo-4_price 	0
scalar level3_network.content_distribution 	repo-5_card 	6119
scalar level3_network.content_distribution 	repo-5_price 	0
scalar level3_network.content_distribution 	repo-6_card 	6217
scalar level3_network.content_distribution 	repo-6_price 	0
scalar level3_network.content_distribution 	repo-7_card 	6216
scalar level3_network.content_distribution 	repo-7_price 	0
scalar level3_network.content_distribution 	repo-8_card 	6343
scalar level3_network.content_distribution 	repo-8_price 	0
scalar level3_network.content_distribution 	repo-9_card 	6167
scalar level3_network.content_distribution 	repo-9_price 	0
scalar level3_network.content_distribution 	repo-10_card 	6308
scalar level3_network.content_distribution 	repo-10_price 	0
scalar level3_network.content_distribution 	repo-11_card 	6206
scalar level3_network.content_distribution 	repo-11_price 	0
scalar level3_network.content_distribution 	repo-12_card 	6250
scalar level3_network.content_distribution 	repo-12_price 	0
scalar level3_network.content_distribution 	repo-13_card 	6264
scalar level3_network.content_distribution 	repo-13_price 	0
scalar level3_network.content_distribution 	repo-14_card 	6241
scalar level3_network.content_distribution 	repo-14_price 	0
scalar level3_network.content_distribution 	repo-15_card 	6263
scalar level3_network.content_distribution 	repo-15_price 	0
scalar level3_network.statistics 	stabilization_time 	2888.4
scalar level3_network.statistics 	p_hit 	0.25158385074078
scalar level3_network.statistics 	interests 	18908.260869565
scalar level3_network.statistics 	data 	10547.391304348
scalar level3_network.statistics 	hdistance 	1.7651943322896
scalar level3_network.statistics 	avg_time 	0.031167693351
scalar level3_network.statistics 	downloads 	384562
scalar level3_network.statistics 	total_cost 	0
scalar level3_network.statistics 	total_replicas 	100000
scalar level3_network.statistics 	inner_hit 	0.49669754161878
scalar level3_network.node[0].core_layer 	interests[0] 	0
scalar level3_network.node[0].core_layer 	data[0] 	0
scalar level3_network.node[0].core_layer 	repo_int[0] 	193551
scalar level3_network.node[0].content_store 	p_hit[0] 	-nan
scalar level3_network.node[0].content_store 	hits[0] 	0
scalar level3_network.node[0].content_store 	misses[0] 	0
scalar level3_network.node[0].content_store 	decision_yes[0] 	0
scalar level3_network.node[0].content_store 	decision_no[0] 	0
scalar level3_network.node[0].content_store 	decision_ratio[0] 	0
scalar level3_network.node[1].core_layer 	interests[1] 	0
scalar level3_network.node[1].core_layer 	data[1] 	0
scalar level3_network.node[1].content_store 	p_hit[1] 	-nan
scalar level3_network.node[1].content_store 	hits[1] 	0
scalar level3_network.node[1].content_store 	misses[1] 	0
scalar level3_network.node[1].content_store 	decision_yes[1] 	0
scalar level3_network.node[1].content_store 	decision_no[1] 	0
scalar level3_network.node[1].content_store 	decision_ratio[1] 	0
scalar level3_network.node[2].core_layer 	interests[2] 	31437
scalar level3_network.node[2].core_layer 	repo_load[2] 	12275
scalar level3_network.node[2].core_layer 	data[2] 	13275
scalar level3_network.node[2].content_store 	p_hit[2] 	0.18710436746509
scalar level3_network.node[2].content_store 	hits[2] 	5882
scalar level3_network.node[2].content_store 	misses[2] 	25555
scalar level3_network.node[2].content_store 	decision_yes[2] 	114
scalar level3_network.node[2].content_store 	decision_no[2] 	25436
scalar level3_network.node[2].content_store 	decision_ratio[2] 	0.0044618395303327
scalar level3_network.node[3].core_layer 	interests[3] 	34973
scalar level3_network.node[3].core_layer 	data[3] 	28393
scalar level3_network.node[3].content_store 	p_hit[3] 	0.18805936007777
scalar level3_network.node[3].content_store 	hits[3] 	6577
scalar level3_network.node[3].content_store 	misses[3] 	28396
scalar level3_network.node[3].content_store 	decision_yes[3] 	149
scalar level3_network.node[3].content_store 	decision_no[3] 	28244
scalar level3_network.node[3].content_store 	decision_ratio[3] 	0.0052477723382524
scalar level3_network.node[4].core_layer 	interests[4] 	13755
scalar level3_network.node[4].core_layer 	data[4] 	9558
scalar level3_network.node[4].content_store 	p_hit[4] 	0.30498000727008
scalar level3_network.node[4].content_store 	hits[4] 	4195
scalar level3_network.node[4].content_store 	misses[4] 	9560
scalar level3_network.node[4].content_store 	decision_yes[4] 	53
scalar level3_network.node[4].content_store 	decision_no[4] 	9505
scalar level3_network.node[4].content_store 	decision_ratio[4] 	0.0055450931157146
scalar level3_network.node[5].core_layer 	interests[5] 	16995
scalar level3_network.node[5].core_layer 	repo_load[5] 	12058
scalar level3_network.node[5].core_layer 	data[5] 	2597
scalar level3_network.node[5].content_store 	p_hit[5] 	0.13768755516328
scalar level3_network.node[5].content_store 	hits[5] 	2340
scalar level3_network.node[5].content_store 	misses[5] 	14655
scalar level3_network.node[5].content_store 	decision_yes[5] 	77
scalar level3_network.node[5].content_store 	decision_no[5] 	14578
scalar level3_network.node[5].content_store 	decision_ratio[5] 	0.0052541794609348
scalar level3_network.node[6].core_layer 	interests[6] 	13756
scalar level3_network.node[6].core_layer 	data[6] 	9518
scalar level3_network.node[6].content_store 	p_hit[6] 	0.30808374527479
scalar level3_network.node[6].content_store 	hits[6] 	4238
scalar level3_network.node[6].content_store 	misses[6] 	9518
scalar level3_network.node[6].content_store 	decision_yes[6] 	66
scalar level3_network.node[6].content_store 	decision_no[6] 	9452
scalar level3_network.node[6].content_store 	decision_ratio[6] 	0.0069342298802269
scalar level3_network.node[7].core_layer 	interests[7] 	123234
scalar level3_network.node[7].core_layer 	repo_load[7] 	13537
scalar level3_network.node[7].core_layer 	data[7] 	100969
scalar level3_network.node[7].content_store 	p_hit[7] 	0.070524368274989
scalar level3_network.node[7].content_store 	hits[7] 	8691
scalar level3_network.node[7].content_store 	misses[7] 	114543
scalar level3_network.node[7].content_store 	decision_yes[7] 	581
scalar level3_network.node[7].content_store 	decision_no[7] 	113925
scalar level3_network.node[7].content_store 	decision_ratio[7] 	0.0050739699229735
scalar level3_network.node[8].core_layer 	interests[8] 	44216
scalar level3_network.node[8].core_layer 	data[8] 	32821
scalar level3_network.node[8].content_store 	p_hit[8] 	0.25757644291659
scalar level3_network.node[8].content_store 	hits[8] 	11389
scalar level3_network.node[8].content_store 	misses[8] 	32827
scalar level3_network.node[8].content_store 	decision_yes[8] 	158
scalar level3_network.node[8].content_store 	decision_no[8] 	32663
scalar level3_network.node[8].content_store 	decision_ratio[8] 	0.0048139910423205
scalar level3_network.node[9].core_layer 	interests[9] 	27899
scalar level3_network.node[9].core_layer 	repo_load[9] 	12514
scalar level3_network.node[9].core_layer 	data[9] 	8908
scalar level3_network.node[9].content_store 	p_hit[9] 	0.23208717158321
scalar level3_network.node[9].content_store 	hits[9] 	6475
scalar level3_network.node[9].content_store 	misses[9] 	21424
scalar level3_network.node[9].content_store 	decision_yes[9] 	109
scalar level3_network.node[9].content_store 	decision_no[9] 	21313
scalar level3_network.node[9].content_store 	decision_ratio[9] 	0.0050882270562973
scalar level3_network.node[10].core_layer 	interests[10] 	14853
scalar level3_network.node[10].core_layer 	repo_load[10] 	11674
scalar level3_network.node[10].core_layer 	data[10] 	0
scalar level3_network.node[10].content_store 	p_hit[10] 	0.21403083552144
scalar level3_network.node[10].content_store 	hits[10] 	3179
scalar level3_network.node[10].content_store 	misses[10] 	11674
scalar level3_network.node[10].content_store 	decision_yes[10] 	61
scalar level3_network.node[10].content_store 	decision_no[10] 	11613
scalar level3_network.node[10].content_store 	decision_ratio[10] 	0.0052252869624807
scalar level3_network.node[11].core_layer 	interests[11] 	60287
scalar level3_network.node[11].core_layer 	data[11] 	48415
scalar level3_network.node[11].content_store 	p_hit[11] 	0.19636074112163
scalar level3_network.node[11].content_store 	hits[11] 	11838
scalar level3_network.node[11].content_store 	misses[11] 	48449
scalar level3_network.node[11].content_store 	decision_yes[11] 	229
scalar level3_network.node[11].content_store 	decision_no[11] 	48186
scalar level3_network.node[11].content_store 	decision_ratio[11] 	0.0047299390684705
scalar level3_network.node[12].core_layer 	interests[12] 	13892
scalar level3_network.node[12].core_layer 	data[12] 	9553
scalar level3_network.node[12].content_store 	p_hit[12] 	0.31212208465304
scalar level3_network.node[12].content_store 	hits[12] 	4336
scalar level3_network.node[12].content_store 	misses[12] 	9556
scalar level3_network.node[12].content_store 	decision_yes[12] 	34
scalar level3_network.node[12].content_store 	decision_no[12] 	9519
scalar level3_network.node[12].content_store 	decision_ratio[12] 	0.0035590913849053
scalar level3_network.node[13].core_layer 	interests[13] 	0
scalar level3_network.node[13].core_layer 	data[13] 	0
scalar level3_network.node[13].content_store 	p_hit[13] 	-nan
scalar level3_network.node[13].content_store 	hits[13] 	0
scalar level3_network.node[13].content_store 	misses[13] 	0
scalar level3_network.node[13].content_store 	decision_yes[13] 	0
scalar level3_network.node[13].content_store 	decision_no[13] 	0
scalar level3_network.node[13].content_store 	decision_ratio[13] 	0
scalar level3_network.node[14].core_layer 	interests[14] 	14164
scalar level3_network.node[14].core_layer 	data[14] 	9453
scalar level3_network.node[14].content_store 	p_hit[14] 	0.33260378424174
scalar level3_network.node[14].content_store 	hits[14] 	4711
scalar level3_network.node[14].content_store 	misses[14] 	9453
scalar level3_network.node[14].content_store 	decision_yes[14] 	54
scalar level3_network.node[14].content_store 	decision_no[14] 	9399
scalar level3_network.node[14].content_store 	decision_ratio[14] 	0.0057124722310378
scalar level3_network.node[15].core_layer 	interests[15] 	25342
scalar level3_network.node[15].core_layer 	repo_load[15] 	12322
scalar level3_network.node[15].core_layer 	data[15] 	8780
scalar level3_network.node[15].content_store 	p_hit[15] 	0.16731118301634
scalar level3_network.node[15].content_store 	hits[15] 	4240
scalar level3_network.node[15].content_store 	misses[15] 	21102
scalar level3_network.node[15].content_store 	decision_yes[15] 	94
scalar level3_network.node[15].content_store 	decision_no[15] 	21008
scalar level3_network.node[15].content_store 	decision_ratio[15] 	0.0044545540707042
scalar level3_network.node[16].core_layer 	interests[16] 	14519
scalar level3_network.node[16].core_layer 	repo_load[16] 	11476
scalar level3_network.node[16].core_layer 	data[16] 	0
scalar level3_network.node[16].content_store 	p_hit[16] 	0.20958743715132
scalar level3_network.node[16].content_store 	hits[16] 	3043
scalar level3_network.node[16].content_store 	misses[16] 	11476
scalar level3_network.node[16].content_store 	decision_yes[16] 	51
scalar level3_network.node[16].content_store 	decision_no[16] 	11425
scalar level3_network.node[16].content_store 	decision_ratio[16] 	0.0044440571627745
scalar level3_network.node[17].core_layer 	interests[17] 	18830
scalar level3_network.node[17].core_layer 	data[17] 	9367
scalar level3_network.node[17].content_store 	p_hit[17] 	0.50265533722783
scalar level3_network.node[17].content_store 	hits[17] 	9465
scalar level3_network.node[17].content_store 	misses[17] 	9365
scalar level3_network.node[17].content_store 	decision_yes[17] 	48
scalar level3_network.node[17].content_store 	decision_no[17] 	9319
scalar level3_network.node[17].content_store 	decision_ratio[17] 	0.0051243727981211
scalar level3_network.node[18].core_layer 	interests[18] 	29128
scalar level3_network.node[18].core_layer 	data[18] 	16522
scalar level3_network.node[18].content_store 	p_hit[18] 	0.43253913759956
scalar level3_network.node[18].content_store 	hits[18] 	12599
scalar level3_network.node[18].content_store 	misses[18] 	16529
scalar level3_network.node[18].content_store 	decision_yes[18] 	64
scalar level3_network.node[18].content_store 	decision_no[18] 	16458
scalar level3_network.node[18].content_store 	decision_ratio[18] 	0.0038736230480571
scalar level3_network.node[19].core_layer 	interests[19] 	12860
scalar level3_network.node[19].core_layer 	repo_load[19] 	11063
scalar level3_network.node[19].core_layer 	data[19] 	0
scalar level3_network.node[19].content_store 	p_hit[19] 	0.13973561430793
scalar level3_network.node[19].content_store 	hits[19] 	1797
scalar level3_network.node[19].content_store 	misses[19] 	11063
scalar level3_network.node[19].content_store 	decision_yes[19] 	45
scalar level3_network.node[19].content_store 	decision_no[19] 	11018
scalar level3_network.node[19].content_store 	decision_ratio[19] 	0.0040676127632649
scalar level3_network.node[20].core_layer 	interests[20] 	0
scalar level3_network.node[20].core_layer 	data[20] 	0
scalar level3_network.node[20].content_store 	p_hit[20] 	-nan
scalar level3_network.node[20].content_store 	hits[20] 	0
scalar level3_network.node[20].content_store 	misses[20] 	0
scalar level3_network.node[20].content_store 	decision_yes[20] 	0
scalar level3_network.node[20].content_store 	decision_no[20] 	0
scalar level3_network.node[20].content_store 	decision_ratio[20] 	0
scalar level3_network.node[21].core_layer 	interests[21] 	13047
scalar level3_network.node[21].core_layer 	data[21] 	9569
scalar level3_network.node[21].content_store 	p_hit[21] 	0.26642139955545
scalar level3_network.node[21].content_store 	hits[21] 	3476
scalar level3_network.node[21].content_store 	misses[21] 	9571
scalar level3_network.node[21].content_store 	decision_yes[21] 	38
scalar level3_network.node[21].content_store 	decision_no[21] 	9531
scalar level3_network.node[21].content_store 	decision_ratio[21] 	0.003971156860696
scalar level3_network.node[22].core_layer 	interests[22] 	26021
scalar level3_network.node[22].core_layer 	repo_load[22] 	12593
scalar level3_network.node[22].core_layer 	data[22] 	9040
scalar level3_network.node[22].content_store 	p_hit[22] 	0.16863302717036
scalar level3_network.node[22].content_store 	hits[22] 	4388
scalar level3_network.node[22].content_store 	misses[22] 	21633
scalar level3_network.node[22].content_store 	decision_yes[22] 	110
scalar level3_network.node[22].content_store 	decision_no[22] 	21523
scalar level3_network.node[22].content_store 	decision_ratio[22] 	0.0050848241113114
scalar level3_network.node[23].core_layer 	interests[23] 	14101
scalar level3_network.node[23].core_layer 	data[23] 	9552
scalar level3_network.node[23].content_store 	p_hit[23] 	0.32267215091128
scalar level3_network.node[23].content_store 	hits[23] 	4550
scalar level3_network.node[23].content_store 	misses[23] 	9551
scalar level3_network.node[23].content_store 	decision_yes[23] 	53
scalar level3_network.node[23].content_store 	decision_no[23] 	9499
scalar level3_network.node[23].content_store 	decision_ratio[23] 	0.0055485762144054
scalar level3_network.node[24].core_layer 	interests[24] 	0
scalar level3_network.node[24].core_layer 	data[24] 	0
scalar level3_network.node[24].content_store 	p_hit[24] 	-nan
scalar level3_network.node[24].content_store 	hits[24] 	0
scalar level3_network.node[24].content_store 	misses[24] 	0
scalar level3_network.node[24].content_store 	decision_yes[24] 	0
scalar level3_network.node[24].content_store 	decision_no[24] 	0
scalar level3_network.node[24].content_store 	decision_ratio[24] 	0
scalar level3_network.node[25].core_layer 	interests[25] 	13910
scalar level3_network.node[25].core_layer 	data[25] 	9505
scalar level3_network.node[25].content_store 	p_hit[25] 	0.31660675772825
scalar level3_network.node[25].content_store 	hits[25] 	4404
scalar level3_network.node[25].content_store 	misses[25] 	9506
scalar level3_network.node[25].content_store 	decision_yes[25] 	47
scalar level3_network.node[25].content_store 	decision_no[25] 	9458
scalar level3_network.node[25].content_store 	decision_ratio[25] 	0.0049447659126775
scalar level3_network.node[26].core_layer 	interests[26] 	0
scalar level3_network.node[26].core_layer 	data[26] 	0
scalar level3_network.node[26].content_store 	p_hit[26] 	-nan
scalar level3_network.node[26].content_store 	hits[26] 	0
scalar level3_network.node[26].content_store 	misses[26] 	0
scalar level3_network.node[26].content_store 	decision_yes[26] 	0
scalar level3_network.node[26].content_store 	decision_no[26] 	0
scalar level3_network.node[26].content_store 	decision_ratio[26] 	0
scalar level3_network.node[27].core_layer 	interests[27] 	14066
scalar level3_network.node[27].core_layer 	data[27] 	9239
scalar level3_network.node[27].content_store 	p_hit[27] 	0.34309682923361
scalar level3_network.node[27].content_store 	hits[27] 	4826
scalar level3_network.node[27].content_store 	misses[27] 	9240
scalar level3_network.node[27].content_store 	decision_yes[27] 	55
scalar level3_network.node[27].content_store 	decision_no[27] 	9184
scalar level3_network.node[27].content_store 	decision_ratio[27] 	0.0059530252191796
scalar level3_network.node[28].core_layer 	interests[28] 	14213
scalar level3_network.node[28].core_layer 	data[28] 	9468
scalar level3_network.node[28].content_store 	p_hit[28] 	0.33370857665517
scalar level3_network.node[28].content_store 	hits[28] 	4743
scalar level3_network.node[28].content_store 	misses[28] 	9470
scalar level3_network.node[28].content_store 	decision_yes[28] 	56
scalar level3_network.node[28].content_store 	decision_no[28] 	9412
scalar level3_network.node[28].content_store 	decision_ratio[28] 	0.0059146599070553
scalar level3_network.node[29].core_layer 	interests[29] 	13829
scalar level3_network.node[29].core_layer 	repo_load[29] 	11738
scalar level3_network.node[29].core_layer 	data[29] 	0
scalar level3_network.node[29].content_store 	p_hit[29] 	0.15120399161183
scalar level3_network.node[29].content_store 	hits[29] 	2091
scalar level3_network.node[29].content_store 	misses[29] 	11738
scalar level3_network.node[29].content_store 	decision_yes[29] 	49
scalar level3_network.node[29].content_store 	decision_no[29] 	11689
scalar level3_network.node[29].content_store 	decision_ratio[29] 	0.0041744760606577
scalar level3_network.node[30].core_layer 	interests[30] 	14137
scalar level3_network.node[30].core_layer 	data[30] 	9459
scalar level3_network.node[30].content_store 	p_hit[30] 	0.33090471811558
scalar level3_network.node[30].content_store 	hits[30] 	4678
scalar level3_network.node[30].content_store 	misses[30] 	9459
scalar level3_network.node[30].content_store 	decision_yes[30] 	46
scalar level3_network.node[30].content_store 	decision_no[30] 	9413
scalar level3_network.node[30].content_store 	decision_ratio[30] 	0.0048630933502484
scalar level3_network.node[31].core_layer 	interests[31] 	25205
scalar level3_network.node[31].core_layer 	repo_load[31] 	12008
scalar level3_network.node[31].core_layer 	data[31] 	8950
scalar level3_network.node[31].content_store 	p_hit[31] 	0.16837928982345
scalar level3_network.node[31].content_store 	hits[31] 	4244
scalar level3_network.node[31].content_store 	misses[31] 	20961
scalar level3_network.node[31].content_store 	decision_yes[31] 	101
scalar level3_network.node[31].content_store 	decision_no[31] 	20857
scalar level3_network.node[31].content_store 	decision_ratio[31] 	0.0048191621337914
scalar level3_network.node[32].core_layer 	interests[32] 	13700
scalar level3_network.node[32].core_layer 	data[32] 	9385
scalar level3_network.node[32].content_store 	p_hit[32] 	0.31489051094891
scalar level3_network.node[32].content_store 	hits[32] 	4314
scalar level3_network.node[32].content_store 	misses[32] 	9386
scalar level3_network.node[32].content_store 	decision_yes[32] 	39
scalar level3_network.node[32].content_store 	decision_no[32] 	9346
scalar level3_network.node[32].content_store 	decision_ratio[32] 	0.0041555673947789
scalar level3_network.node[33].core_layer 	interests[33] 	25186
scalar level3_network.node[33].core_layer 	repo_load[33] 	11756
scalar level3_network.node[33].core_layer 	data[33] 	9127
scalar level3_network.node[33].content_store 	p_hit[33] 	0.17072977050742
scalar level3_network.node[33].content_store 	hits[33] 	4300
scalar level3_network.node[33].content_store 	misses[33] 	20886
scalar level3_network.node[33].content_store 	decision_yes[33] 	107
scalar level3_network.node[33].content_store 	decision_no[33] 	20776
scalar level3_network.node[33].content_store 	decision_ratio[33] 	0.005123784896806
scalar level3_network.node[34].core_layer 	interests[34] 	26033
scalar level3_network.node[34].core_layer 	repo_load[34] 	12478
scalar level3_network.node[34].core_layer 	data[34] 	8908
scalar level3_network.node[34].content_store 	p_hit[34] 	0.17850420619982
scalar level3_network.node[34].content_store 	hits[34] 	4647
scalar level3_network.node[34].content_store 	misses[34] 	21386
scalar level3_network.node[34].content_store 	decision_yes[34] 	116
scalar level3_network.node[34].content_store 	decision_no[34] 	21270
scalar level3_network.node[34].content_store 	decision_ratio[34] 	0.0054241092303376
scalar level3_network.node[35].core_layer 	interests[35] 	0
scalar level3_network.node[35].core_layer 	data[35] 	0
scalar level3_network.node[35].content_store 	p_hit[35] 	-nan
scalar level3_network.node[35].content_store 	hits[35] 	0
scalar level3_network.node[35].content_store 	misses[35] 	0
scalar level3_network.node[35].content_store 	decision_yes[35] 	0
scalar level3_network.node[35].content_store 	decision_no[35] 	0
scalar level3_network.node[35].content_store 	decision_ratio[35] 	0
scalar level3_network.node[36].core_layer 	interests[36] 	13699
scalar level3_network.node[36].core_layer 	data[36] 	9266
scalar level3_network.node[36].content_store 	p_hit[36] 	0.32352726476385
scalar level3_network.node[36].content_store 	hits[36] 	4432
scalar level3_network.node[36].content_store 	misses[36] 	9267
scalar level3_network.node[36].content_store 	decision_yes[36] 	59
scalar level3_network.node[36].content_store 	decision_no[36] 	9207
scalar level3_network.node[36].content_store 	decision_ratio[36] 	0.0063673645586013
scalar level3_network.node[37].core_layer 	interests[37] 	13697
scalar level3_network.node[37].core_layer 	data[37] 	9442
scalar level3_network.node[37].content_store 	p_hit[37] 	0.31072497627218
scalar level3_network.node[37].content_store 	hits[37] 	4256
scalar level3_network.node[37].content_store 	misses[37] 	9441
scalar level3_network.node[37].content_store 	decision_yes[37] 	61
scalar level3_network.node[37].content_store 	decision_no[37] 	9381
scalar level3_network.node[37].content_store 	decision_ratio[37] 	0.0064604956576996
scalar level3_network.node[38].core_layer 	interests[38] 	13974
scalar level3_network.node[38].core_layer 	data[38] 	9579
scalar level3_network.node[38].content_store 	p_hit[38] 	0.31429798196651
scalar level3_network.node[38].content_store 	hits[38] 	4392
scalar level3_network.node[38].content_store 	misses[38] 	9582
scalar level3_network.node[38].content_store 	decision_yes[38] 	59
scalar level3_network.node[38].content_store 	decision_no[38] 	9520
scalar level3_network.node[38].content_store 	decision_ratio[38] 	0.0061593068169955
scalar level3_network.node[39].core_layer 	interests[39] 	25935
scalar level3_network.node[39].core_layer 	repo_load[39] 	12377
scalar level3_network.node[39].core_layer 	data[39] 	9015
scalar level3_network.node[39].content_store 	p_hit[39] 	0.17509157509158
scalar level3_network.node[39].content_store 	hits[39] 	4541
scalar level3_network.node[39].content_store 	misses[39] 	21394
scalar level3_network.node[39].content_store 	decision_yes[39] 	118
scalar level3_network.node[39].content_store 	decision_no[39] 	21274
scalar level3_network.node[39].content_store 	decision_ratio[39] 	0.0055160807778609
scalar level3_network.node[40].core_layer 	interests[40] 	25063
scalar level3_network.node[40].core_layer 	repo_load[40] 	11955
scalar level3_network.node[40].core_layer 	data[40] 	9226
scalar level3_network.node[40].content_store 	p_hit[40] 	0.15488967801141
scalar level3_network.node[40].content_store 	hits[40] 	3882
scalar level3_network.node[40].content_store 	misses[40] 	21181
scalar level3_network.node[40].content_store 	decision_yes[40] 	95
scalar level3_network.node[40].content_store 	decision_no[40] 	21086
scalar level3_network.node[40].content_store 	decision_ratio[40] 	0.0044851517869789
scalar level3_network.node[41].core_layer 	interests[41] 	0
scalar level3_network.node[41].core_layer 	data[41] 	0
scalar level3_network.node[41].content_store 	p_hit[41] 	-nan
scalar level3_network.node[41].content_store 	hits[41] 	0
scalar level3_network.node[41].content_store 	misses[41] 	0
scalar level3_network.node[41].content_store 	decision_yes[41] 	0
scalar level3_network.node[41].content_store 	decision_no[41] 	0
scalar level3_network.node[41].content_store 	decision_ratio[41] 	0
scalar level3_network.node[42].core_layer 	interests[42] 	13874
scalar level3_network.node[42].core_layer 	data[42] 	9574
scalar level3_network.node[42].content_store 	p_hit[42] 	0.30957186103503
scalar level3_network.node[42].content_store 	hits[42] 	4295
scalar level3_network.node[42].content_store 	misses[42] 	9579
scalar level3_network.node[42].content_store 	decision_yes[42] 	45
scalar level3_network.node[42].content_store 	decision_no[42] 	9529
scalar level3_network.node[42].content_store 	decision_ratio[42] 	0.0047002297890119
scalar level3_network.node[43].core_layer 	interests[43] 	12998
scalar level3_network.node[43].core_layer 	data[43] 	9254
scalar level3_network.node[43].content_store 	p_hit[43] 	0.28781350977073
scalar level3_network.node[43].content_store 	hits[43] 	3741
scalar level3_network.node[43].content_store 	misses[43] 	9257
scalar level3_network.node[43].content_store 	decision_yes[43] 	47
scalar level3_network.node[43].content_store 	decision_no[43] 	9207
scalar level3_network.node[43].content_store 	decision_ratio[43] 	0.0050788848065701
scalar level3_network.node[44].core_layer 	interests[44] 	13492
scalar level3_network.node[44].core_layer 	repo_load[44] 	11727
scalar level3_network.node[44].core_layer 	data[44] 	0
scalar level3_network.node[44].content_store 	p_hit[44] 	0.13081826267418
scalar level3_network.node[44].content_store 	hits[44] 	1765
scalar level3_network.node[44].content_store 	misses[44] 	11727
scalar level3_network.node[44].content_store 	decision_yes[44] 	42
scalar level3_network.node[44].content_store 	decision_no[44] 	11685
scalar level3_network.node[44].content_store 	decision_ratio[44] 	0.0035814786390381
scalar level3_network.node[45].core_layer 	interests[45] 	13460
scalar level3_network.node[45].core_layer 	data[45] 	9493
scalar level3_network.node[45].content_store 	p_hit[45] 	0.29465081723626
scalar level3_network.node[45].content_store 	hits[45] 	3966
scalar level3_network.node[45].content_store 	misses[45] 	9494
scalar level3_network.node[45].content_store 	decision_yes[45] 	53
scalar level3_network.node[45].content_store 	decision_no[45] 	9440
scalar level3_network.node[45].content_store 	decision_ratio[45] 	0.0055830612029917
scalar level3_network.client[2] 	hdistance[2] 	1.8358098068351
scalar level3_network.client[2] 	downloads[2] 	12114
scalar level3_network.client[2] 	avg_time[2] 	0.050303527886
scalar level3_network.client[3] 	hdistance[3] 	1.8078382838284
scalar level3_network.client[3] 	downloads[3] 	12120
scalar level3_network.client[3] 	avg_time[3] 	0.050176877173
scalar level3_network.client[4] 	hdistance[4] 	1.9511281325452
scalar level3_network.client[4] 	downloads[4] 	12011
scalar level3_network.client[4] 	avg_time[4] 	0.051504435831
scalar level3_network.client[6] 	hdistance[6] 	1.8221929535726
scalar level3_network.client[6] 	downloads[6] 	12148
scalar level3_network.client[6] 	avg_time[6] 	0.024533464867
scalar level3_network.client[7] 	hdistance[7] 	1.4049316447203
scalar level3_network.client[7] 	downloads[7] 	11923
scalar level3_network.client[7] 	avg_time[7] 	0.019113660711
scalar level3_network.client[8] 	hdistance[8] 	1.3632731207858
scalar level3_network.client[8] 	downloads[8] 	12013
scalar level3_network.client[8] 	avg_time[8] 	0.018921804367
scalar level3_network.client[9] 	hdistance[9] 	1.5222672064777
scalar level3_network.client[9] 	downloads[9] 	12103
scalar level3_network.client[9] 	avg_time[9] 	0.0208150648
scalar level3_network.client[11] 	hdistance[11] 	1.3324434804371
scalar level3_network.client[11] 	downloads[11] 	11987
scalar level3_network.client[11] 	avg_time[11] 	0.021676814171
scalar level3_network.client[12] 	hdistance[12] 	1.7473962638453
scalar level3_network.client[12] 	downloads[12] 	12098
scalar level3_network.client[12] 	avg_time[12] 	0.029275782831
scalar level3_network.client[14] 	hdistance[14] 	1.7080864558124
scalar level3_network.client[14] 	downloads[14] 	11983
scalar level3_network.client[14] 	avg_time[14] 	0.022901204641
scalar level3_network.client[15] 	hdistance[15] 	1.6676555348364
scalar level3_network.client[15] 	downloads[15] 	11798
scalar level3_network.client[15] 	avg_time[15] 	0.029397746162
scalar level3_network.client[17] 	hdistance[17] 	1.3853333333333
scalar level3_network.client[17] 	downloads[17] 	12000
scalar level3_network.client[17] 	avg_time[17] 	0.02602491255
scalar level3_network.client[18] 	hdistance[18] 	1.3461830451286
scalar level3_network.client[18] 	downloads[18] 	11855
scalar level3_network.client[18] 	avg_time[18] 	0.020687605159
scalar level3_network.client[21] 	hdistance[21] 	2.5212436101567
scalar level3_network.client[21] 	downloads[21] 	11933
scalar level3_network.client[21] 	avg_time[21] 	0.051385753838
scalar level3_network.client[22] 	hdistance[22] 	1.6976204294835
scalar level3_network.client[22] 	downloads[22] 	12061
scalar level3_network.client[22] 	avg_time[22] 	0.024794777139
scalar level3_network.client[23] 	hdistance[23] 	1.8261339991677
scalar level3_network.client[23] 	downloads[23] 	12015
scalar level3_network.client[23] 	avg_time[23] 	0.020436901744
scalar level3_network.client[25] 	hdistance[25] 	1.8077595537424
scalar level3_network.client[25] 	downloads[25] 	12011
scalar level3_network.client[25] 	avg_time[25] 	0.020282411172
scalar level3_network.client[27] 	hdistance[27] 	1.7586149492259
scalar level3_network.client[27] 	downloads[27] 	12014
scalar level3_network.client[27] 	avg_time[27] 	0.02969276128
scalar level3_network.client[28] 	hdistance[28] 	1.7554509415263
scalar level3_network.client[28] 	downloads[28] 	12108
scalar level3_network.client[28] 	avg_time[28] 	0.029158333451
scalar level3_network.client[30] 	hdistance[30] 	1.7240294677593
scalar level3_network.client[30] 	downloads[30] 	12081
scalar level3_network.client[30] 	avg_time[30] 	0.022481359655
scalar level3_network.client[31] 	hdistance[31] 	1.7451634422949
scalar level3_network.client[31] 	downloads[31] 	11992
scalar level3_network.client[31] 	avg_time[31] 	0.031550154089
scalar level3_network.client[32] 	hdistance[32] 	1.7561890472618
scalar level3_network.client[32] 	downloads[32] 	11997
scalar level3_network.client[32] 	avg_time[32] 	0.027358829468
scalar level3_network.client[33] 	hdistance[33] 	1.7657627403241
scalar level3_network.client[33] 	downloads[33] 	11911
scalar level3_network.client[33] 	avg_time[33] 	0.026192456911
scalar level3_network.client[34] 	hdistance[34] 	1.7254418413481
scalar level3_network.client[34] 	downloads[34] 	12165
scalar level3_network.client[34] 	avg_time[34] 	0.032768312945
scalar level3_network.client[36] 	hdistance[36] 	1.799714237687
scalar level3_network.client[36] 	downloads[36] 	11898
scalar level3_network.client[36] 	avg_time[36] 	0.024123687436
scalar level3_network.client[37] 	hdistance[37] 	1.8091404612159
scalar level3_network.client[37] 	downloads[37] 	11925
scalar level3_network.client[37] 	avg_time[37] 	0.027281431497
scalar level3_network.client[38] 	hdistance[38] 	1.7840738891662
scalar level3_network.client[38] 	downloads[38] 	12018
scalar level3_network.client[38] 	avg_time[38] 	0.032425608584
scalar level3_network.client[39] 	hdistance[39] 	1.7270112581149
scalar level3_network.client[39] 	downloads[39] 	12169
scalar level3_network.client[39] 	avg_time[39] 	0.022478425779
scalar level3_network.client[40] 	hdistance[40] 	1.9486861675756
scalar level3_network.client[40] 	downloads[40] 	12102
scalar level3_network.client[40] 	avg_time[40] 	0.024619552163
scalar level3_network.client[42] 	hdistance[42] 	1.9548055394311
scalar level3_network.client[42] 	downloads[42] 	12059
scalar level3_network.client[42] 	avg_time[42] 	0.053071510981
scalar level3_network.client[43] 	hdistance[43] 	2.4699471875262
scalar level3_network.client[43] 	downloads[43] 	11929
scalar level3_network.client[43] 	avg_time[43] 	0.053534251266
scalar level3_network.client[45] 	hdistance[45] 	2.0148906081025
scalar level3_network.client[45] 	downloads[45] 	12021
scalar level3_network.client[45] 	avg_time[45] 	0.058396766691
