version 2
run General-2-20160825-16:26:56-3010
attr D fix0.005
attr F nrr
attr R lru
attr a 0.9
attr configname General
attr datetime 20160825-16:26:56
attr experiment General
attr inifile hw5115/scenario_C/omnetp.ini
attr iterationvars "$net=level3, $rep=1, $a=0.9, $F=nrr, $D=fix0.005, $R=lru, $window=60, $variance=0.05, $mytime=600"
attr iterationvars2 "$net=level3, $rep=1, $a=0.9, $F=nrr, $D=fix0.005, $R=lru, $window=60, $variance=0.05, $mytime=600, $repetition=0"
attr measurement "$net=level3, $rep=1, $a=0.9, $F=nrr, $D=fix0.005, $R=lru, $window=60, $variance=0.05, $mytime=600"
attr mytime 600
attr net level3
attr network networks.${net=level3}_network
attr processid 3010
attr rep 1
attr repetition 0
attr replication #0
attr resultdir results
attr runnumber 2
attr seedset 1
attr variance 0.05
attr window 60

scalar . 	a 	0.9
scalar . 	mytime 	600
scalar . 	rep 	1
scalar . 	variance 	0.05
scalar . 	window 	60
scalar level3_network.content_distribution 	repo-0 	5
scalar level3_network.content_distribution 	repo-1 	1
scalar level3_network.content_distribution 	repo-2 	40
scalar level3_network.content_distribution 	repo-3 	23
scalar level3_network.content_distribution 	repo-4 	8
scalar level3_network.content_distribution 	repo-5 	9
scalar level3_network.content_distribution 	repo-6 	39
scalar level3_network.content_distribution 	repo-7 	45
scalar level3_network.content_distribution 	repo-8 	30
scalar level3_network.content_distribution 	repo-9 	36
scalar level3_network.content_distribution 	repo-10 	44
scalar level3_network.content_distribution 	repo-11 	38
scalar level3_network.content_distribution 	repo-12 	42
scalar level3_network.content_distribution 	repo-13 	3
scalar level3_network.content_distribution 	repo-14 	0
scalar level3_network.content_distribution 	repo-15 	21
scalar level3_network.content_distribution 	client-0 	21
scalar level3_network.content_distribution 	client-1 	9
scalar level3_network.content_distribution 	client-2 	38
scalar level3_network.content_distribution 	client-3 	2
scalar level3_network.content_distribution 	client-4 	30
scalar level3_network.content_distribution 	client-5 	8
scalar level3_network.content_distribution 	client-6 	23
scalar level3_network.content_distribution 	client-7 	32
scalar level3_network.content_distribution 	client-8 	40
scalar level3_network.content_distribution 	client-9 	42
scalar level3_network.content_distribution 	client-10 	45
scalar level3_network.content_distribution 	client-11 	33
scalar level3_network.content_distribution 	client-12 	28
scalar level3_network.content_distribution 	client-13 	3
scalar level3_network.content_distribution 	client-14 	15
scalar level3_network.content_distribution 	client-15 	34
scalar level3_network.content_distribution 	client-16 	31
scalar level3_network.content_distribution 	client-17 	17
scalar level3_network.content_distribution 	client-18 	25
scalar level3_network.content_distribution 	client-19 	12
scalar level3_network.content_distribution 	client-20 	22
scalar level3_network.content_distribution 	client-21 	11
scalar level3_network.content_distribution 	client-22 	6
scalar level3_network.content_distribution 	client-23 	39
scalar level3_network.content_distribution 	client-24 	7
scalar level3_network.content_distribution 	client-25 	18
scalar level3_network.content_distribution 	client-26 	36
scalar level3_network.content_distribution 	client-27 	27
scalar level3_network.content_distribution 	client-28 	43
scalar level3_network.content_distribution 	client-29 	37
scalar level3_network.content_distribution 	client-30 	4
scalar level3_network.content_distribution 	client-31 	14
scalar level3_network.content_distribution 	repo-0_card 	6195
scalar level3_network.content_distribution 	repo-0_price 	0
scalar level3_network.content_distribution 	repo-1_card 	6203
scalar level3_network.content_distribution 	repo-1_price 	0
scalar level3_network.content_distribution 	repo-2_card 	6203
scalar level3_network.content_distribution 	repo-2_price 	0
scalar level3_network.content_distribution 	repo-3_card 	6244
scalar level3_network.content_distribution 	repo-3_price 	0
scalar level3_network.content_distribution 	repo-4_card 	6365
scalar level3_network.content_distribution 	repo-4_price 	0
scalar level3_network.content_distribution 	repo-5_card 	6246
scalar level3_network.content_distribution 	repo-5_price 	0
scalar level3_network.content_distribution 	repo-6_card 	6167
scalar level3_network.content_distribution 	repo-6_price 	0
scalar level3_network.content_distribution 	repo-7_card 	6312
scalar level3_network.content_distribution 	repo-7_price 	0
scalar level3_network.content_distribution 	repo-8_card 	6164
scalar level3_network.content_distribution 	repo-8_price 	0
scalar level3_network.content_distribution 	repo-9_card 	6249
scalar level3_network.content_distribution 	repo-9_price 	0
scalar level3_network.content_distribution 	repo-10_card 	6284
scalar level3_network.content_distribution 	repo-10_price 	0
scalar level3_network.content_distribution 	repo-11_card 	6276
scalar level3_network.content_distribution 	repo-11_price 	0
scalar level3_network.content_distribution 	repo-12_card 	6338
scalar level3_network.content_distribution 	repo-12_price 	0
scalar level3_network.content_distribution 	repo-13_card 	6362
scalar level3_network.content_distribution 	repo-13_price 	0
scalar level3_network.content_distribution 	repo-14_card 	6276
scalar level3_network.content_distribution 	repo-14_price 	0
scalar level3_network.content_distribution 	repo-15_card 	6116
scalar level3_network.content_distribution 	repo-15_price 	0
scalar level3_network.statistics 	stabilization_time 	2701.8
scalar level3_network.statistics 	p_hit 	0.2409062462879
scalar level3_network.statistics 	interests 	19777.239130435
scalar level3_network.statistics 	data 	11443.043478261
scalar level3_network.statistics 	hdistance 	1.8846875510305
scalar level3_network.statistics 	avg_time 	0.034482662074
scalar level3_network.statistics 	downloads 	383309
scalar level3_network.statistics 	total_cost 	0
scalar level3_network.statistics 	total_replicas 	100000
scalar level3_network.statistics 	inner_hit 	0.48973543537981
scalar level3_network.node[0].core_layer 	interests[0] 	12853
scalar level3_network.node[0].core_layer 	repo_load[0] 	11141
scalar level3_network.node[0].core_layer 	data[0] 	401
scalar level3_network.node[0].core_layer 	repo_int[0] 	195589
scalar level3_network.node[0].content_store 	p_hit[0] 	0.10199953318291
scalar level3_network.node[0].content_store 	hits[0] 	1311
scalar level3_network.node[0].content_store 	misses[0] 	11542
scalar level3_network.node[0].content_store 	decision_yes[0] 	51
scalar level3_network.node[0].content_store 	decision_no[0] 	11491
scalar level3_network.node[0].content_store 	decision_ratio[0] 	0.0044186449488823
scalar level3_network.node[1].core_layer 	interests[1] 	12688
scalar level3_network.node[1].core_layer 	repo_load[1] 	11375
scalar level3_network.node[1].core_layer 	data[1] 	0
scalar level3_network.node[1].content_store 	p_hit[1] 	0.10348360655738
scalar level3_network.node[1].content_store 	hits[1] 	1313
scalar level3_network.node[1].content_store 	misses[1] 	11375
scalar level3_network.node[1].content_store 	decision_yes[1] 	45
scalar level3_network.node[1].content_store 	decision_no[1] 	11330
scalar level3_network.node[1].content_store 	decision_ratio[1] 	0.003956043956044
scalar level3_network.node[2].core_layer 	interests[2] 	51165
scalar level3_network.node[2].core_layer 	data[2] 	45658
scalar level3_network.node[2].content_store 	p_hit[2] 	0.10751490276556
scalar level3_network.node[2].content_store 	hits[2] 	5501
scalar level3_network.node[2].content_store 	misses[2] 	45664
scalar level3_network.node[2].content_store 	decision_yes[2] 	232
scalar level3_network.node[2].content_store 	decision_no[2] 	45426
scalar level3_network.node[2].content_store 	decision_ratio[2] 	0.0050812562968155
scalar level3_network.node[3].core_layer 	interests[3] 	48475
scalar level3_network.node[3].core_layer 	repo_load[3] 	13125
scalar level3_network.node[3].core_layer 	data[3] 	28767
scalar level3_network.node[3].content_store 	p_hit[3] 	0.13563692625064
scalar level3_network.node[3].content_store 	hits[3] 	6575
scalar level3_network.node[3].content_store 	misses[3] 	41900
scalar level3_network.node[3].content_store 	decision_yes[3] 	187
scalar level3_network.node[3].content_store 	decision_no[3] 	41705
scalar level3_network.node[3].content_store 	decision_ratio[3] 	0.0044638594481047
scalar level3_network.node[4].core_layer 	interests[4] 	13747
scalar level3_network.node[4].core_layer 	data[4] 	9279
scalar level3_network.node[4].content_store 	p_hit[4] 	0.32472539463156
scalar level3_network.node[4].content_store 	hits[4] 	4464
scalar level3_network.node[4].content_store 	misses[4] 	9283
scalar level3_network.node[4].content_store 	decision_yes[4] 	43
scalar level3_network.node[4].content_store 	decision_no[4] 	9236
scalar level3_network.node[4].content_store 	decision_ratio[4] 	0.0046341200560405
scalar level3_network.node[5].core_layer 	interests[5] 	15065
scalar level3_network.node[5].core_layer 	repo_load[5] 	11566
scalar level3_network.node[5].core_layer 	data[5] 	1070
scalar level3_network.node[5].content_store 	p_hit[5] 	0.16123464985065
scalar level3_network.node[5].content_store 	hits[5] 	2429
scalar level3_network.node[5].content_store 	misses[5] 	12636
scalar level3_network.node[5].content_store 	decision_yes[5] 	61
scalar level3_network.node[5].content_store 	decision_no[5] 	12575
scalar level3_network.node[5].content_store 	decision_ratio[5] 	0.0048274770496993
scalar level3_network.node[6].core_layer 	interests[6] 	13725
scalar level3_network.node[6].core_layer 	data[6] 	9593
scalar level3_network.node[6].content_store 	p_hit[6] 	0.3007650273224
scalar level3_network.node[6].content_store 	hits[6] 	4128
scalar level3_network.node[6].content_store 	misses[6] 	9597
scalar level3_network.node[6].content_store 	decision_yes[6] 	48
scalar level3_network.node[6].content_store 	decision_no[6] 	9545
scalar level3_network.node[6].content_store 	decision_ratio[6] 	0.0050036484936933
scalar level3_network.node[7].core_layer 	interests[7] 	94243
scalar level3_network.node[7].core_layer 	data[7] 	85085
scalar level3_network.node[7].content_store 	p_hit[7] 	0.09680294557686
scalar level3_network.node[7].content_store 	hits[7] 	9123
scalar level3_network.node[7].content_store 	misses[7] 	85120
scalar level3_network.node[7].content_store 	decision_yes[7] 	459
scalar level3_network.node[7].content_store 	decision_no[7] 	84626
scalar level3_network.node[7].content_store 	decision_ratio[7] 	0.0053946053946054
scalar level3_network.node[8].core_layer 	interests[8] 	56393
scalar level3_network.node[8].core_layer 	repo_load[8] 	13369
scalar level3_network.node[8].core_layer 	data[8] 	31788
scalar level3_network.node[8].content_store 	p_hit[8] 	0.1992091216995
scalar level3_network.node[8].content_store 	hits[8] 	11234
scalar level3_network.node[8].content_store 	misses[8] 	45159
scalar level3_network.node[8].content_store 	decision_yes[8] 	239
scalar level3_network.node[8].content_store 	decision_no[8] 	44918
scalar level3_network.node[8].content_store 	decision_ratio[8] 	0.0052926456584804
scalar level3_network.node[9].core_layer 	interests[9] 	27952
scalar level3_network.node[9].core_layer 	repo_load[9] 	12261
scalar level3_network.node[9].core_layer 	data[9] 	8974
scalar level3_network.node[9].content_store 	p_hit[9] 	0.24023325701202
scalar level3_network.node[9].content_store 	hits[9] 	6715
scalar level3_network.node[9].content_store 	misses[9] 	21237
scalar level3_network.node[9].content_store 	decision_yes[9] 	111
scalar level3_network.node[9].content_store 	decision_no[9] 	21124
scalar level3_network.node[9].content_store 	decision_ratio[9] 	0.0052272192135625
scalar level3_network.node[10].core_layer 	interests[10] 	0
scalar level3_network.node[10].core_layer 	data[10] 	0
scalar level3_network.node[10].content_store 	p_hit[10] 	-nan
scalar level3_network.node[10].content_store 	hits[10] 	0
scalar level3_network.node[10].content_store 	misses[10] 	0
scalar level3_network.node[10].content_store 	decision_yes[10] 	0
scalar level3_network.node[10].content_store 	decision_no[10] 	0
scalar level3_network.node[10].content_store 	decision_ratio[10] 	0
scalar level3_network.node[11].core_layer 	interests[11] 	80955
scalar level3_network.node[11].core_layer 	data[11] 	69121
scalar level3_network.node[11].content_store 	p_hit[11] 	0.14579704774257
scalar level3_network.node[11].content_store 	hits[11] 	11803
scalar level3_network.node[11].content_store 	misses[11] 	69152
scalar level3_network.node[11].content_store 	decision_yes[11] 	332
scalar level3_network.node[11].content_store 	decision_no[11] 	68789
scalar level3_network.node[11].content_store 	decision_ratio[11] 	0.0048031712504159
scalar level3_network.node[12].core_layer 	interests[12] 	13575
scalar level3_network.node[12].core_layer 	data[12] 	9352
scalar level3_network.node[12].content_store 	p_hit[12] 	0.31116022099448
scalar level3_network.node[12].content_store 	hits[12] 	4224
scalar level3_network.node[12].content_store 	misses[12] 	9351
scalar level3_network.node[12].content_store 	decision_yes[12] 	53
scalar level3_network.node[12].content_store 	decision_no[12] 	9299
scalar level3_network.node[12].content_store 	decision_ratio[12] 	0.0056672369546621
scalar level3_network.node[13].core_layer 	interests[13] 	0
scalar level3_network.node[13].core_layer 	data[13] 	0
scalar level3_network.node[13].content_store 	p_hit[13] 	-nan
scalar level3_network.node[13].content_store 	hits[13] 	0
scalar level3_network.node[13].content_store 	misses[13] 	0
scalar level3_network.node[13].content_store 	decision_yes[13] 	0
scalar level3_network.node[13].content_store 	decision_no[13] 	0
scalar level3_network.node[13].content_store 	decision_ratio[13] 	0
scalar level3_network.node[14].core_layer 	interests[14] 	14232
scalar level3_network.node[14].core_layer 	data[14] 	9267
scalar level3_network.node[14].content_store 	p_hit[14] 	0.34872119168072
scalar level3_network.node[14].content_store 	hits[14] 	4963
scalar level3_network.node[14].content_store 	misses[14] 	9269
scalar level3_network.node[14].content_store 	decision_yes[14] 	52
scalar level3_network.node[14].content_store 	decision_no[14] 	9215
scalar level3_network.node[14].content_store 	decision_ratio[14] 	0.0056113089457214
scalar level3_network.node[15].core_layer 	interests[15] 	13719
scalar level3_network.node[15].core_layer 	data[15] 	9096
scalar level3_network.node[15].content_store 	p_hit[15] 	0.33675923901159
scalar level3_network.node[15].content_store 	hits[15] 	4620
scalar level3_network.node[15].content_store 	misses[15] 	9099
scalar level3_network.node[15].content_store 	decision_yes[15] 	36
scalar level3_network.node[15].content_store 	decision_no[15] 	9060
scalar level3_network.node[15].content_store 	decision_ratio[15] 	0.003957783641161
scalar level3_network.node[16].core_layer 	interests[16] 	0
scalar level3_network.node[16].core_layer 	data[16] 	0
scalar level3_network.node[16].content_store 	p_hit[16] 	-nan
scalar level3_network.node[16].content_store 	hits[16] 	0
scalar level3_network.node[16].content_store 	misses[16] 	0
scalar level3_network.node[16].content_store 	decision_yes[16] 	0
scalar level3_network.node[16].content_store 	decision_no[16] 	0
scalar level3_network.node[16].content_store 	decision_ratio[16] 	0
scalar level3_network.node[17].core_layer 	interests[17] 	19305
scalar level3_network.node[17].core_layer 	data[17] 	9704
scalar level3_network.node[17].content_store 	p_hit[17] 	0.4971768971769
scalar level3_network.node[17].content_store 	hits[17] 	9598
scalar level3_network.node[17].content_store 	misses[17] 	9707
scalar level3_network.node[17].content_store 	decision_yes[17] 	56
scalar level3_network.node[17].content_store 	decision_no[17] 	9648
scalar level3_network.node[17].content_store 	decision_ratio[17] 	0.0057708161582852
scalar level3_network.node[18].core_layer 	interests[18] 	38251
scalar level3_network.node[18].core_layer 	data[18] 	23750
scalar level3_network.node[18].content_store 	p_hit[18] 	0.37868291025071
scalar level3_network.node[18].content_store 	hits[18] 	14485
scalar level3_network.node[18].content_store 	misses[18] 	23766
scalar level3_network.node[18].content_store 	decision_yes[18] 	120
scalar level3_network.node[18].content_store 	decision_no[18] 	23630
scalar level3_network.node[18].content_store 	decision_ratio[18] 	0.0050526315789474
scalar level3_network.node[19].core_layer 	interests[19] 	0
scalar level3_network.node[19].core_layer 	data[19] 	0
scalar level3_network.node[19].content_store 	p_hit[19] 	-nan
scalar level3_network.node[19].content_store 	hits[19] 	0
scalar level3_network.node[19].content_store 	misses[19] 	0
scalar level3_network.node[19].content_store 	decision_yes[19] 	0
scalar level3_network.node[19].content_store 	decision_no[19] 	0
scalar level3_network.node[19].content_store 	decision_ratio[19] 	0
scalar level3_network.node[20].core_layer 	interests[20] 	0
scalar level3_network.node[20].core_layer 	data[20] 	0
scalar level3_network.node[20].content_store 	p_hit[20] 	-nan
scalar level3_network.node[20].content_store 	hits[20] 	0
scalar level3_network.node[20].content_store 	misses[20] 	0
scalar level3_network.node[20].content_store 	decision_yes[20] 	0
scalar level3_network.node[20].content_store 	decision_no[20] 	0
scalar level3_network.node[20].content_store 	decision_ratio[20] 	0
scalar level3_network.node[21].core_layer 	interests[21] 	24706
scalar level3_network.node[21].core_layer 	repo_load[21] 	12019
scalar level3_network.node[21].core_layer 	data[21] 	8933
scalar level3_network.node[21].content_store 	p_hit[21] 	0.15194689549097
scalar level3_network.node[21].content_store 	hits[21] 	3754
scalar level3_network.node[21].content_store 	misses[21] 	20952
scalar level3_network.node[21].content_store 	decision_yes[21] 	85
scalar level3_network.node[21].content_store 	decision_no[21] 	20867
scalar level3_network.node[21].content_store 	decision_ratio[21] 	0.0040568919434899
scalar level3_network.node[22].core_layer 	interests[22] 	14169
scalar level3_network.node[22].core_layer 	data[22] 	9326
scalar level3_network.node[22].content_store 	p_hit[22] 	0.34159079680994
scalar level3_network.node[22].content_store 	hits[22] 	4840
scalar level3_network.node[22].content_store 	misses[22] 	9329
scalar level3_network.node[22].content_store 	decision_yes[22] 	41
scalar level3_network.node[22].content_store 	decision_no[22] 	9285
scalar level3_network.node[22].content_store 	decision_ratio[22] 	0.0043963113875188
scalar level3_network.node[23].core_layer 	interests[23] 	25763
scalar level3_network.node[23].core_layer 	repo_load[23] 	12236
scalar level3_network.node[23].core_layer 	data[23] 	9093
scalar level3_network.node[23].content_store 	p_hit[23] 	0.17199083957614
scalar level3_network.node[23].content_store 	hits[23] 	4431
scalar level3_network.node[23].content_store 	misses[23] 	21332
scalar level3_network.node[23].content_store 	decision_yes[23] 	117
scalar level3_network.node[23].content_store 	decision_no[23] 	21212
scalar level3_network.node[23].content_store 	decision_ratio[23] 	0.0054854892400019
scalar level3_network.node[24].core_layer 	interests[24] 	0
scalar level3_network.node[24].core_layer 	data[24] 	0
scalar level3_network.node[24].content_store 	p_hit[24] 	-nan
scalar level3_network.node[24].content_store 	hits[24] 	0
scalar level3_network.node[24].content_store 	misses[24] 	0
scalar level3_network.node[24].content_store 	decision_yes[24] 	0
scalar level3_network.node[24].content_store 	decision_no[24] 	0
scalar level3_network.node[24].content_store 	decision_ratio[24] 	0
scalar level3_network.node[25].core_layer 	interests[25] 	13960
scalar level3_network.node[25].core_layer 	data[25] 	9390
scalar level3_network.node[25].content_store 	p_hit[25] 	0.32714899713467
scalar level3_network.node[25].content_store 	hits[25] 	4567
scalar level3_network.node[25].content_store 	misses[25] 	9393
scalar level3_network.node[25].content_store 	decision_yes[25] 	37
scalar level3_network.node[25].content_store 	decision_no[25] 	9353
scalar level3_network.node[25].content_store 	decision_ratio[25] 	0.0039403620873269
scalar level3_network.node[26].core_layer 	interests[26] 	0
scalar level3_network.node[26].core_layer 	data[26] 	0
scalar level3_network.node[26].content_store 	p_hit[26] 	-nan
scalar level3_network.node[26].content_store 	hits[26] 	0
scalar level3_network.node[26].content_store 	misses[26] 	0
scalar level3_network.node[26].content_store 	decision_yes[26] 	0
scalar level3_network.node[26].content_store 	decision_no[26] 	0
scalar level3_network.node[26].content_store 	decision_ratio[26] 	0
scalar level3_network.node[27].core_layer 	interests[27] 	14083
scalar level3_network.node[27].core_layer 	data[27] 	9225
scalar level3_network.node[27].content_store 	p_hit[27] 	0.34467087978414
scalar level3_network.node[27].content_store 	hits[27] 	4854
scalar level3_network.node[27].content_store 	misses[27] 	9229
scalar level3_network.node[27].content_store 	decision_yes[27] 	39
scalar level3_network.node[27].content_store 	decision_no[27] 	9186
scalar level3_network.node[27].content_store 	decision_ratio[27] 	0.0042276422764228
scalar level3_network.node[28].core_layer 	interests[28] 	14033
scalar level3_network.node[28].core_layer 	data[28] 	9446
scalar level3_network.node[28].content_store 	p_hit[28] 	0.32680111166536
scalar level3_network.node[28].content_store 	hits[28] 	4586
scalar level3_network.node[28].content_store 	misses[28] 	9447
scalar level3_network.node[28].content_store 	decision_yes[28] 	55
scalar level3_network.node[28].content_store 	decision_no[28] 	9391
scalar level3_network.node[28].content_store 	decision_ratio[28] 	0.0058225704001694
scalar level3_network.node[29].core_layer 	interests[29] 	0
scalar level3_network.node[29].core_layer 	data[29] 	0
scalar level3_network.node[29].content_store 	p_hit[29] 	-nan
scalar level3_network.node[29].content_store 	hits[29] 	0
scalar level3_network.node[29].content_store 	misses[29] 	0
scalar level3_network.node[29].content_store 	decision_yes[29] 	0
scalar level3_network.node[29].content_store 	decision_no[29] 	0
scalar level3_network.node[29].content_store 	decision_ratio[29] 	0
scalar level3_network.node[30].core_layer 	interests[30] 	25907
scalar level3_network.node[30].core_layer 	repo_load[30] 	12559
scalar level3_network.node[30].core_layer 	data[30] 	9084
scalar level3_network.node[30].content_store 	p_hit[30] 	0.16447292237619
scalar level3_network.node[30].content_store 	hits[30] 	4261
scalar level3_network.node[30].content_store 	misses[30] 	21646
scalar level3_network.node[30].content_store 	decision_yes[30] 	115
scalar level3_network.node[30].content_store 	decision_no[30] 	21528
scalar level3_network.node[30].content_store 	decision_ratio[30] 	0.0053134962805526
scalar level3_network.node[31].core_layer 	interests[31] 	13768
scalar level3_network.node[31].core_layer 	data[31] 	9226
scalar level3_network.node[31].content_store 	p_hit[31] 	0.32975014526438
scalar level3_network.node[31].content_store 	hits[31] 	4540
scalar level3_network.node[31].content_store 	misses[31] 	9228
scalar level3_network.node[31].content_store 	decision_yes[31] 	42
scalar level3_network.node[31].content_store 	decision_no[31] 	9184
scalar level3_network.node[31].content_store 	decision_ratio[31] 	0.0045523520485584
scalar level3_network.node[32].core_layer 	interests[32] 	13700
scalar level3_network.node[32].core_layer 	data[32] 	9319
scalar level3_network.node[32].content_store 	p_hit[32] 	0.31978102189781
scalar level3_network.node[32].content_store 	hits[32] 	4381
scalar level3_network.node[32].content_store 	misses[32] 	9319
scalar level3_network.node[32].content_store 	decision_yes[32] 	50
scalar level3_network.node[32].content_store 	decision_no[32] 	9269
scalar level3_network.node[32].content_store 	decision_ratio[32] 	0.0053653825517759
scalar level3_network.node[33].core_layer 	interests[33] 	13845
scalar level3_network.node[33].core_layer 	data[33] 	9578
scalar level3_network.node[33].content_store 	p_hit[33] 	0.30812567713976
scalar level3_network.node[33].content_store 	hits[33] 	4266
scalar level3_network.node[33].content_store 	misses[33] 	9579
scalar level3_network.node[33].content_store 	decision_yes[33] 	52
scalar level3_network.node[33].content_store 	decision_no[33] 	9526
scalar level3_network.node[33].content_store 	decision_ratio[33] 	0.0054291083733556
scalar level3_network.node[34].core_layer 	interests[34] 	14077
scalar level3_network.node[34].core_layer 	data[34] 	9523
scalar level3_network.node[34].content_store 	p_hit[34] 	0.32329331533707
scalar level3_network.node[34].content_store 	hits[34] 	4551
scalar level3_network.node[34].content_store 	misses[34] 	9526
scalar level3_network.node[34].content_store 	decision_yes[34] 	35
scalar level3_network.node[34].content_store 	decision_no[34] 	9488
scalar level3_network.node[34].content_store 	decision_ratio[34] 	0.0036753124015541
scalar level3_network.node[35].core_layer 	interests[35] 	0
scalar level3_network.node[35].core_layer 	data[35] 	0
scalar level3_network.node[35].content_store 	p_hit[35] 	-nan
scalar level3_network.node[35].content_store 	hits[35] 	0
scalar level3_network.node[35].content_store 	misses[35] 	0
scalar level3_network.node[35].content_store 	decision_yes[35] 	0
scalar level3_network.node[35].content_store 	decision_no[35] 	0
scalar level3_network.node[35].content_store 	decision_ratio[35] 	0
scalar level3_network.node[36].core_layer 	interests[36] 	26053
scalar level3_network.node[36].core_layer 	repo_load[36] 	12399
scalar level3_network.node[36].core_layer 	data[36] 	9357
scalar level3_network.node[36].content_store 	p_hit[36] 	0.16481787126243
scalar level3_network.node[36].content_store 	hits[36] 	4294
scalar level3_network.node[36].content_store 	misses[36] 	21759
scalar level3_network.node[36].content_store 	decision_yes[36] 	111
scalar level3_network.node[36].content_store 	decision_no[36] 	21645
scalar level3_network.node[36].content_store 	decision_ratio[36] 	0.0051020408163265
scalar level3_network.node[37].core_layer 	interests[37] 	14061
scalar level3_network.node[37].core_layer 	data[37] 	9284
scalar level3_network.node[37].content_store 	p_hit[37] 	0.33966289737572
scalar level3_network.node[37].content_store 	hits[37] 	4776
scalar level3_network.node[37].content_store 	misses[37] 	9285
scalar level3_network.node[37].content_store 	decision_yes[37] 	47
scalar level3_network.node[37].content_store 	decision_no[37] 	9237
scalar level3_network.node[37].content_store 	decision_ratio[37] 	0.0050624730719517
scalar level3_network.node[38].core_layer 	interests[38] 	25375
scalar level3_network.node[38].core_layer 	repo_load[38] 	11983
scalar level3_network.node[38].core_layer 	data[38] 	9042
scalar level3_network.node[38].content_store 	p_hit[38] 	0.17142857142857
scalar level3_network.node[38].content_store 	hits[38] 	4350
scalar level3_network.node[38].content_store 	misses[38] 	21025
scalar level3_network.node[38].content_store 	decision_yes[38] 	93
scalar level3_network.node[38].content_store 	decision_no[38] 	20932
scalar level3_network.node[38].content_store 	decision_ratio[38] 	0.004423305588585
scalar level3_network.node[39].core_layer 	interests[39] 	26125
scalar level3_network.node[39].core_layer 	repo_load[39] 	12319
scalar level3_network.node[39].core_layer 	data[39] 	9161
scalar level3_network.node[39].content_store 	p_hit[39] 	0.17776076555024
scalar level3_network.node[39].content_store 	hits[39] 	4644
scalar level3_network.node[39].content_store 	misses[39] 	21481
scalar level3_network.node[39].content_store 	decision_yes[39] 	107
scalar level3_network.node[39].content_store 	decision_no[39] 	21373
scalar level3_network.node[39].content_store 	decision_ratio[39] 	0.0049813780260708
scalar level3_network.node[40].core_layer 	interests[40] 	25141
scalar level3_network.node[40].core_layer 	repo_load[40] 	12371
scalar level3_network.node[40].core_layer 	data[40] 	8923
scalar level3_network.node[40].content_store 	p_hit[40] 	0.15297720854381
scalar level3_network.node[40].content_store 	hits[40] 	3846
scalar level3_network.node[40].content_store 	misses[40] 	21295
scalar level3_network.node[40].content_store 	decision_yes[40] 	110
scalar level3_network.node[40].content_store 	decision_no[40] 	21184
scalar level3_network.node[40].content_store 	decision_ratio[40] 	0.0051657743965436
scalar level3_network.node[41].core_layer 	interests[41] 	0
scalar level3_network.node[41].core_layer 	data[41] 	0
scalar level3_network.node[41].content_store 	p_hit[41] 	-nan
scalar level3_network.node[41].content_store 	hits[41] 	0
scalar level3_network.node[41].content_store 	misses[41] 	0
scalar level3_network.node[41].content_store 	decision_yes[41] 	0
scalar level3_network.node[41].content_store 	decision_no[41] 	0
scalar level3_network.node[41].content_store 	decision_ratio[41] 	0
scalar level3_network.node[42].core_layer 	interests[42] 	26178
scalar level3_network.node[42].core_layer 	repo_load[42] 	12481
scalar level3_network.node[42].core_layer 	data[42] 	9153
scalar level3_network.node[42].content_store 	p_hit[42] 	0.17354266941707
scalar level3_network.node[42].content_store 	hits[42] 	4543
scalar level3_network.node[42].content_store 	misses[42] 	21635
scalar level3_network.node[42].content_store 	decision_yes[42] 	82
scalar level3_network.node[42].content_store 	decision_no[42] 	21552
scalar level3_network.node[42].content_store 	decision_ratio[42] 	0.0037903300360544
scalar level3_network.node[43].core_layer 	interests[43] 	13057
scalar level3_network.node[43].core_layer 	data[43] 	9240
scalar level3_network.node[43].content_store 	p_hit[43] 	0.29233361415333
scalar level3_network.node[43].content_store 	hits[43] 	3817
scalar level3_network.node[43].content_store 	misses[43] 	9240
scalar level3_network.node[43].content_store 	decision_yes[43] 	39
scalar level3_network.node[43].content_store 	decision_no[43] 	9201
scalar level3_network.node[43].content_store 	decision_ratio[43] 	0.0042207792207792
scalar level3_network.node[44].core_layer 	interests[44] 	13332
scalar level3_network.node[44].core_layer 	repo_load[44] 	11252
scalar level3_network.node[44].core_layer 	data[44] 	0
scalar level3_network.node[44].content_store 	p_hit[44] 	0.15601560156016
scalar level3_network.node[44].content_store 	hits[44] 	2080
scalar level3_network.node[44].content_store 	misses[44] 	11252
scalar level3_network.node[44].content_store 	decision_yes[44] 	62
scalar level3_network.node[44].content_store 	decision_no[44] 	11190
scalar level3_network.node[44].content_store 	decision_ratio[44] 	0.0055101315321721
scalar level3_network.node[45].core_layer 	interests[45] 	26077
scalar level3_network.node[45].core_layer 	repo_load[45] 	13133
scalar level3_network.node[45].core_layer 	data[45] 	9172
scalar level3_network.node[45].content_store 	p_hit[45] 	0.14461019289029
scalar level3_network.node[45].content_store 	hits[45] 	3771
scalar level3_network.node[45].content_store 	misses[45] 	22306
scalar level3_network.node[45].content_store 	decision_yes[45] 	119
scalar level3_network.node[45].content_store 	decision_no[45] 	22186
scalar level3_network.node[45].content_store 	decision_ratio[45] 	0.0053351266532168
scalar level3_network.client[2] 	hdistance[2] 	1.7584504685408
scalar level3_network.client[2] 	downloads[2] 	11952
scalar level3_network.client[2] 	avg_time[2] 	0.03678268062
scalar level3_network.client[3] 	hdistance[3] 	1.6715557439593
scalar level3_network.client[3] 	downloads[3] 	11795
scalar level3_network.client[3] 	avg_time[3] 	0.036504119013
scalar level3_network.client[4] 	hdistance[4] 	1.9141052631579
scalar level3_network.client[4] 	downloads[4] 	11875
scalar level3_network.client[4] 	avg_time[4] 	0.037082157566
scalar level3_network.client[6] 	hdistance[6] 	1.9785443142433
scalar level3_network.client[6] 	downloads[6] 	12118
scalar level3_network.client[6] 	avg_time[6] 	0.030755402541
scalar level3_network.client[7] 	hdistance[7] 	1.567497921862
scalar level3_network.client[7] 	downloads[7] 	12030
scalar level3_network.client[7] 	avg_time[7] 	0.026751676725
scalar level3_network.client[8] 	hdistance[8] 	1.6009389671362
scalar level3_network.client[8] 	downloads[8] 	12141
scalar level3_network.client[8] 	avg_time[8] 	0.029345014235
scalar level3_network.client[9] 	hdistance[9] 	1.7814314928425
scalar level3_network.client[9] 	downloads[9] 	12225
scalar level3_network.client[9] 	avg_time[9] 	0.031809086091
scalar level3_network.client[11] 	hdistance[11] 	1.4528317486565
scalar level3_network.client[11] 	downloads[11] 	12095
scalar level3_network.client[11] 	avg_time[11] 	0.02564843123
scalar level3_network.client[12] 	hdistance[12] 	1.9187273187611
scalar level3_network.client[12] 	downloads[12] 	11849
scalar level3_network.client[12] 	avg_time[12] 	0.039528730854
scalar level3_network.client[14] 	hdistance[14] 	1.8540801063653
scalar level3_network.client[14] 	downloads[14] 	12034
scalar level3_network.client[14] 	avg_time[14] 	0.027223861092
scalar level3_network.client[15] 	hdistance[15] 	1.8884185573993
scalar level3_network.client[15] 	downloads[15] 	11812
scalar level3_network.client[15] 	avg_time[15] 	0.042740214664
scalar level3_network.client[17] 	hdistance[17] 	1.5468995777796
scalar level3_network.client[17] 	downloads[17] 	12079
scalar level3_network.client[17] 	avg_time[17] 	0.037368544971
scalar level3_network.client[18] 	hdistance[18] 	1.4407032675402
scalar level3_network.client[18] 	downloads[18] 	12058
scalar level3_network.client[18] 	avg_time[18] 	0.02599786432
scalar level3_network.client[21] 	hdistance[21] 	2.2921611231823
scalar level3_network.client[21] 	downloads[21] 	11966
scalar level3_network.client[21] 	avg_time[21] 	0.036522943512
scalar level3_network.client[22] 	hdistance[22] 	1.9394573773237
scalar level3_network.client[22] 	downloads[22] 	11942
scalar level3_network.client[22] 	avg_time[22] 	0.030609078275
scalar level3_network.client[23] 	hdistance[23] 	1.9575037644303
scalar level3_network.client[23] 	downloads[23] 	11954
scalar level3_network.client[23] 	avg_time[23] 	0.02705474914
scalar level3_network.client[25] 	hdistance[25] 	1.9728688661866
scalar level3_network.client[25] 	downloads[25] 	11942
scalar level3_network.client[25] 	avg_time[25] 	0.026646363523
scalar level3_network.client[27] 	hdistance[27] 	1.9333333333333
scalar level3_network.client[27] 	downloads[27] 	11865
scalar level3_network.client[27] 	avg_time[27] 	0.040039474842
scalar level3_network.client[28] 	hdistance[28] 	1.9609557109557
scalar level3_network.client[28] 	downloads[28] 	12012
scalar level3_network.client[28] 	avg_time[28] 	0.036072320804
scalar level3_network.client[30] 	hdistance[30] 	1.8665664662659
scalar level3_network.client[30] 	downloads[30] 	11976
scalar level3_network.client[30] 	avg_time[30] 	0.026700582083
scalar level3_network.client[31] 	hdistance[31] 	1.9667285931431
scalar level3_network.client[31] 	downloads[31] 	11842
scalar level3_network.client[31] 	avg_time[31] 	0.045372150757
scalar level3_network.client[32] 	hdistance[32] 	1.9500840336134
scalar level3_network.client[32] 	downloads[32] 	11900
scalar level3_network.client[32] 	avg_time[32] 	0.038104168561
scalar level3_network.client[33] 	hdistance[33] 	2.0246563931695
scalar level3_network.client[33] 	downloads[33] 	12005
scalar level3_network.client[33] 	avg_time[33] 	0.035757203491
scalar level3_network.client[34] 	hdistance[34] 	1.9436137331885
scalar level3_network.client[34] 	downloads[34] 	11971
scalar level3_network.client[34] 	avg_time[34] 	0.045395557457
scalar level3_network.client[36] 	hdistance[36] 	1.9629231151204
scalar level3_network.client[36] 	downloads[36] 	12083
scalar level3_network.client[36] 	avg_time[36] 	0.028331585813
scalar level3_network.client[37] 	hdistance[37] 	1.9584619234298
scalar level3_network.client[37] 	downloads[37] 	11989
scalar level3_network.client[37] 	avg_time[37] 	0.033395422522
scalar level3_network.client[38] 	hdistance[38] 	1.8903915184907
scalar level3_network.client[38] 	downloads[38] 	11979
scalar level3_network.client[38] 	avg_time[38] 	0.040994827895
scalar level3_network.client[39] 	hdistance[39] 	1.8778756730299
scalar level3_network.client[39] 	downloads[39] 	12258
scalar level3_network.client[39] 	avg_time[39] 	0.026559931693
scalar level3_network.client[40] 	hdistance[40] 	2.2196624472574
scalar level3_network.client[40] 	downloads[40] 	11850
scalar level3_network.client[40] 	avg_time[40] 	0.034449505736
scalar level3_network.client[42] 	hdistance[42] 	1.9035124138504
scalar level3_network.client[42] 	downloads[42] 	12043
scalar level3_network.client[42] 	avg_time[42] 	0.039965244864
scalar level3_network.client[43] 	hdistance[43] 	2.3594094688614
scalar level3_network.client[43] 	downloads[43] 	11786
scalar level3_network.client[43] 	avg_time[43] 	0.039491914767
scalar level3_network.client[45] 	hdistance[45] 	1.9556509298999
scalar level3_network.client[45] 	downloads[45] 	11883
scalar level3_network.client[45] 	avg_time[45] 	0.044444376724
