version 2
run General-213-20160819-14:33:51-2054
attr a 0.9
attr cd lcd
attr configname General
attr cr lru
attr datetime 20160819-14:33:51
attr experiment General
attr fsize 1
attr inifile hw5115/scenario_A/NRR-LCD.ini
attr iterationvars "$name=tree_4_3, $un=10, $rep=14, $cd=lcd, $cr=lru, $fsize=1, $a=0.9, $sl=nrr, $ttl=1000, $variance=0.05"
attr iterationvars2 "$name=tree_4_3, $un=10, $rep=14, $cd=lcd, $cr=lru, $fsize=1, $a=0.9, $sl=nrr, $ttl=1000, $variance=0.05, $repetition=0"
attr measurement "$name=tree_4_3, $un=10, $rep=14, $cd=lcd, $cr=lru, $fsize=1, $a=0.9, $sl=nrr, $ttl=1000, $variance=0.05"
attr name tree_4_3
attr network networks.${name}_u${un}_r${rep}_network
attr processid 2054
attr rep 14
attr repetition 0
attr replication #0
attr resultdir results
attr runnumber 213
attr seedset 14
attr sl nrr
attr ttl 1000
attr un 10
attr variance 0.05

scalar . 	a 	0.9
scalar . 	fsize 	1
scalar . 	rep 	14
scalar . 	ttl 	1000
scalar . 	un 	10
scalar . 	variance 	0.05
scalar tree_4_3_u10_r14_network.content_distribution 	repo-0 	0
scalar tree_4_3_u10_r14_network.content_distribution 	client-0 	13
scalar tree_4_3_u10_r14_network.content_distribution 	client-1 	14
scalar tree_4_3_u10_r14_network.content_distribution 	client-2 	15
scalar tree_4_3_u10_r14_network.content_distribution 	client-3 	16
scalar tree_4_3_u10_r14_network.content_distribution 	client-4 	17
scalar tree_4_3_u10_r14_network.content_distribution 	client-5 	18
scalar tree_4_3_u10_r14_network.content_distribution 	client-6 	19
scalar tree_4_3_u10_r14_network.content_distribution 	client-7 	20
scalar tree_4_3_u10_r14_network.content_distribution 	client-8 	21
scalar tree_4_3_u10_r14_network.content_distribution 	client-9 	22
scalar tree_4_3_u10_r14_network.content_distribution 	client-10 	23
scalar tree_4_3_u10_r14_network.content_distribution 	client-11 	24
scalar tree_4_3_u10_r14_network.content_distribution 	client-12 	25
scalar tree_4_3_u10_r14_network.content_distribution 	client-13 	26
scalar tree_4_3_u10_r14_network.content_distribution 	client-14 	27
scalar tree_4_3_u10_r14_network.content_distribution 	client-15 	28
scalar tree_4_3_u10_r14_network.content_distribution 	client-16 	29
scalar tree_4_3_u10_r14_network.content_distribution 	client-17 	30
scalar tree_4_3_u10_r14_network.content_distribution 	client-18 	31
scalar tree_4_3_u10_r14_network.content_distribution 	client-19 	32
scalar tree_4_3_u10_r14_network.content_distribution 	client-20 	33
scalar tree_4_3_u10_r14_network.content_distribution 	client-21 	34
scalar tree_4_3_u10_r14_network.content_distribution 	client-22 	35
scalar tree_4_3_u10_r14_network.content_distribution 	client-23 	36
scalar tree_4_3_u10_r14_network.content_distribution 	client-24 	37
scalar tree_4_3_u10_r14_network.content_distribution 	client-25 	38
scalar tree_4_3_u10_r14_network.content_distribution 	client-26 	39
scalar tree_4_3_u10_r14_network.content_distribution 	repo-0_card 	100000
scalar tree_4_3_u10_r14_network.content_distribution 	repo-0_price 	0
scalar tree_4_3_u10_r14_network.statistics 	stabilization_time 	774.7
scalar tree_4_3_u10_r14_network.statistics 	p_hit 	0.22703523504276
scalar tree_4_3_u10_r14_network.statistics 	interests 	24782.8
scalar tree_4_3_u10_r14_network.statistics 	data 	16676.2
scalar tree_4_3_u10_r14_network.statistics 	hdistance 	2.66721222441
scalar tree_4_3_u10_r14_network.statistics 	avg_time 	0.004114174177
scalar tree_4_3_u10_r14_network.statistics 	downloads 	324265
scalar tree_4_3_u10_r14_network.statistics 	total_cost 	0
scalar tree_4_3_u10_r14_network.statistics 	total_replicas 	100000
scalar tree_4_3_u10_r14_network.statistics 	inner_hit 	0.38992182320016
scalar tree_4_3_u10_r14_network.node[0].core_layer 	interests[0] 	198974
scalar tree_4_3_u10_r14_network.node[0].core_layer 	repo_load[0] 	197827
scalar tree_4_3_u10_r14_network.node[0].core_layer 	data[0] 	0
scalar tree_4_3_u10_r14_network.node[0].core_layer 	repo_int[0] 	197827
scalar tree_4_3_u10_r14_network.node[0].content_store 	p_hit[0] 	0.0057645722556716
scalar tree_4_3_u10_r14_network.node[0].content_store 	hits[0] 	1147
scalar tree_4_3_u10_r14_network.node[0].content_store 	misses[0] 	197827
scalar tree_4_3_u10_r14_network.node[0].content_store 	decision_yes[0] 	197827
scalar tree_4_3_u10_r14_network.node[0].content_store 	decision_no[0] 	0
scalar tree_4_3_u10_r14_network.node[0].content_store 	decision_ratio[0] 	1
scalar tree_4_3_u10_r14_network.node[1].core_layer 	interests[1] 	144308
scalar tree_4_3_u10_r14_network.node[1].core_layer 	data[1] 	141956
scalar tree_4_3_u10_r14_network.node[1].content_store 	p_hit[1] 	0.016284613465643
scalar tree_4_3_u10_r14_network.node[1].content_store 	hits[1] 	2350
scalar tree_4_3_u10_r14_network.node[1].content_store 	misses[1] 	141958
scalar tree_4_3_u10_r14_network.node[1].content_store 	decision_yes[1] 	2360
scalar tree_4_3_u10_r14_network.node[1].content_store 	decision_no[1] 	139596
scalar tree_4_3_u10_r14_network.node[1].content_store 	decision_ratio[1] 	0.016624869677928
scalar tree_4_3_u10_r14_network.node[2].core_layer 	interests[2] 	55590
scalar tree_4_3_u10_r14_network.node[2].core_layer 	data[2] 	53198
scalar tree_4_3_u10_r14_network.node[2].content_store 	p_hit[2] 	0.043029321820471
scalar tree_4_3_u10_r14_network.node[2].content_store 	hits[2] 	2392
scalar tree_4_3_u10_r14_network.node[2].content_store 	misses[2] 	53198
scalar tree_4_3_u10_r14_network.node[2].content_store 	decision_yes[2] 	1537
scalar tree_4_3_u10_r14_network.node[2].content_store 	decision_no[2] 	51661
scalar tree_4_3_u10_r14_network.node[2].content_store 	decision_ratio[2] 	0.028892063611414
scalar tree_4_3_u10_r14_network.node[3].core_layer 	interests[3] 	11053
scalar tree_4_3_u10_r14_network.node[3].core_layer 	data[3] 	8623
scalar tree_4_3_u10_r14_network.node[3].content_store 	p_hit[3] 	0.21984981452999
scalar tree_4_3_u10_r14_network.node[3].content_store 	hits[3] 	2430
scalar tree_4_3_u10_r14_network.node[3].content_store 	misses[3] 	8623
scalar tree_4_3_u10_r14_network.node[3].content_store 	decision_yes[3] 	1099
scalar tree_4_3_u10_r14_network.node[3].content_store 	decision_no[3] 	7524
scalar tree_4_3_u10_r14_network.node[3].content_store 	decision_ratio[3] 	0.12744984344196
scalar tree_4_3_u10_r14_network.node[4].core_layer 	interests[4] 	41946
scalar tree_4_3_u10_r14_network.node[4].core_layer 	data[4] 	39859
scalar tree_4_3_u10_r14_network.node[4].content_store 	p_hit[4] 	0.04973060601726
scalar tree_4_3_u10_r14_network.node[4].content_store 	hits[4] 	2086
scalar tree_4_3_u10_r14_network.node[4].content_store 	misses[4] 	39860
scalar tree_4_3_u10_r14_network.node[4].content_store 	decision_yes[4] 	2121
scalar tree_4_3_u10_r14_network.node[4].content_store 	decision_no[4] 	37738
scalar tree_4_3_u10_r14_network.node[4].content_store 	decision_ratio[4] 	0.053212574324494
scalar tree_4_3_u10_r14_network.node[5].core_layer 	interests[5] 	27551
scalar tree_4_3_u10_r14_network.node[5].core_layer 	data[5] 	25071
scalar tree_4_3_u10_r14_network.node[5].content_store 	p_hit[5] 	0.090014881492505
scalar tree_4_3_u10_r14_network.node[5].content_store 	hits[5] 	2480
scalar tree_4_3_u10_r14_network.node[5].content_store 	misses[5] 	25071
scalar tree_4_3_u10_r14_network.node[5].content_store 	decision_yes[5] 	2559
scalar tree_4_3_u10_r14_network.node[5].content_store 	decision_no[5] 	22512
scalar tree_4_3_u10_r14_network.node[5].content_store 	decision_ratio[5] 	0.10207012085677
scalar tree_4_3_u10_r14_network.node[6].core_layer 	interests[6] 	12522
scalar tree_4_3_u10_r14_network.node[6].core_layer 	data[6] 	10061
scalar tree_4_3_u10_r14_network.node[6].content_store 	p_hit[6] 	0.19653409998403
scalar tree_4_3_u10_r14_network.node[6].content_store 	hits[6] 	2461
scalar tree_4_3_u10_r14_network.node[6].content_store 	misses[6] 	10061
scalar tree_4_3_u10_r14_network.node[6].content_store 	decision_yes[6] 	2143
scalar tree_4_3_u10_r14_network.node[6].content_store 	decision_no[6] 	7918
scalar tree_4_3_u10_r14_network.node[6].content_store 	decision_ratio[6] 	0.21300069575589
scalar tree_4_3_u10_r14_network.node[7].core_layer 	interests[7] 	42506
scalar tree_4_3_u10_r14_network.node[7].core_layer 	data[7] 	40113
scalar tree_4_3_u10_r14_network.node[7].content_store 	p_hit[7] 	0.05629793440926
scalar tree_4_3_u10_r14_network.node[7].content_store 	hits[7] 	2393
scalar tree_4_3_u10_r14_network.node[7].content_store 	misses[7] 	40113
scalar tree_4_3_u10_r14_network.node[7].content_store 	decision_yes[7] 	2870
scalar tree_4_3_u10_r14_network.node[7].content_store 	decision_no[7] 	37243
scalar tree_4_3_u10_r14_network.node[7].content_store 	decision_ratio[7] 	0.071547877246778
scalar tree_4_3_u10_r14_network.node[8].core_layer 	interests[8] 	26078
scalar tree_4_3_u10_r14_network.node[8].core_layer 	data[8] 	24054
scalar tree_4_3_u10_r14_network.node[8].content_store 	p_hit[8] 	0.077613313904441
scalar tree_4_3_u10_r14_network.node[8].content_store 	hits[8] 	2024
scalar tree_4_3_u10_r14_network.node[8].content_store 	misses[8] 	24054
scalar tree_4_3_u10_r14_network.node[8].content_store 	decision_yes[8] 	1647
scalar tree_4_3_u10_r14_network.node[8].content_store 	decision_no[8] 	22407
scalar tree_4_3_u10_r14_network.node[8].content_store 	decision_ratio[8] 	0.068470940384136
scalar tree_4_3_u10_r14_network.node[9].core_layer 	interests[9] 	12418
scalar tree_4_3_u10_r14_network.node[9].core_layer 	data[9] 	9952
scalar tree_4_3_u10_r14_network.node[9].content_store 	p_hit[9] 	0.19858270252859
scalar tree_4_3_u10_r14_network.node[9].content_store 	hits[9] 	2466
scalar tree_4_3_u10_r14_network.node[9].content_store 	misses[9] 	9952
scalar tree_4_3_u10_r14_network.node[9].content_store 	decision_yes[9] 	2091
scalar tree_4_3_u10_r14_network.node[9].content_store 	decision_no[9] 	7861
scalar tree_4_3_u10_r14_network.node[9].content_store 	decision_ratio[9] 	0.21010852090032
scalar tree_4_3_u10_r14_network.node[10].core_layer 	interests[10] 	42670
scalar tree_4_3_u10_r14_network.node[10].core_layer 	data[10] 	40292
scalar tree_4_3_u10_r14_network.node[10].content_store 	p_hit[10] 	0.055730021092102
scalar tree_4_3_u10_r14_network.node[10].content_store 	hits[10] 	2378
scalar tree_4_3_u10_r14_network.node[10].content_store 	misses[10] 	40292
scalar tree_4_3_u10_r14_network.node[10].content_store 	decision_yes[10] 	2755
scalar tree_4_3_u10_r14_network.node[10].content_store 	decision_no[10] 	37537
scalar tree_4_3_u10_r14_network.node[10].content_store 	decision_ratio[10] 	0.06837585624938
scalar tree_4_3_u10_r14_network.node[11].core_layer 	interests[11] 	27671
scalar tree_4_3_u10_r14_network.node[11].core_layer 	data[11] 	25243
scalar tree_4_3_u10_r14_network.node[11].content_store 	p_hit[11] 	0.08774529290593
scalar tree_4_3_u10_r14_network.node[11].content_store 	hits[11] 	2428
scalar tree_4_3_u10_r14_network.node[11].content_store 	misses[11] 	25243
scalar tree_4_3_u10_r14_network.node[11].content_store 	decision_yes[11] 	2383
scalar tree_4_3_u10_r14_network.node[11].content_store 	decision_no[11] 	22860
scalar tree_4_3_u10_r14_network.node[11].content_store 	decision_ratio[11] 	0.09440240858852
scalar tree_4_3_u10_r14_network.node[12].core_layer 	interests[12] 	11062
scalar tree_4_3_u10_r14_network.node[12].core_layer 	data[12] 	9002
scalar tree_4_3_u10_r14_network.node[12].content_store 	p_hit[12] 	0.18622310612909
scalar tree_4_3_u10_r14_network.node[12].content_store 	hits[12] 	2060
scalar tree_4_3_u10_r14_network.node[12].content_store 	misses[12] 	9002
scalar tree_4_3_u10_r14_network.node[12].content_store 	decision_yes[12] 	1298
scalar tree_4_3_u10_r14_network.node[12].content_store 	decision_no[12] 	7704
scalar tree_4_3_u10_r14_network.node[12].content_store 	decision_ratio[12] 	0.14419017996001
scalar tree_4_3_u10_r14_network.node[13].core_layer 	interests[13] 	12438
scalar tree_4_3_u10_r14_network.node[13].core_layer 	data[13] 	8995
scalar tree_4_3_u10_r14_network.node[13].content_store 	p_hit[13] 	0.27681299244251
scalar tree_4_3_u10_r14_network.node[13].content_store 	hits[13] 	3443
scalar tree_4_3_u10_r14_network.node[13].content_store 	misses[13] 	8995
scalar tree_4_3_u10_r14_network.node[13].content_store 	decision_yes[13] 	403
scalar tree_4_3_u10_r14_network.node[13].content_store 	decision_no[13] 	8592
scalar tree_4_3_u10_r14_network.node[13].content_store 	decision_ratio[13] 	0.044802668148972
scalar tree_4_3_u10_r14_network.node[14].core_layer 	interests[14] 	12539
scalar tree_4_3_u10_r14_network.node[14].core_layer 	data[14] 	8931
scalar tree_4_3_u10_r14_network.node[14].content_store 	p_hit[14] 	0.2877422441981
scalar tree_4_3_u10_r14_network.node[14].content_store 	hits[14] 	3608
scalar tree_4_3_u10_r14_network.node[14].content_store 	misses[14] 	8931
scalar tree_4_3_u10_r14_network.node[14].content_store 	decision_yes[14] 	768
scalar tree_4_3_u10_r14_network.node[14].content_store 	decision_no[14] 	8163
scalar tree_4_3_u10_r14_network.node[14].content_store 	decision_ratio[14] 	0.085992610010077
scalar tree_4_3_u10_r14_network.node[15].core_layer 	interests[15] 	12665
scalar tree_4_3_u10_r14_network.node[15].core_layer 	data[15] 	9020
scalar tree_4_3_u10_r14_network.node[15].content_store 	p_hit[15] 	0.28780102645085
scalar tree_4_3_u10_r14_network.node[15].content_store 	hits[15] 	3645
scalar tree_4_3_u10_r14_network.node[15].content_store 	misses[15] 	9020
scalar tree_4_3_u10_r14_network.node[15].content_store 	decision_yes[15] 	768
scalar tree_4_3_u10_r14_network.node[15].content_store 	decision_no[15] 	8252
scalar tree_4_3_u10_r14_network.node[15].content_store 	decision_ratio[15] 	0.085144124168514
scalar tree_4_3_u10_r14_network.node[16].core_layer 	interests[16] 	12567
scalar tree_4_3_u10_r14_network.node[16].core_layer 	data[16] 	8837
scalar tree_4_3_u10_r14_network.node[16].content_store 	p_hit[16] 	0.29680910320681
scalar tree_4_3_u10_r14_network.node[16].content_store 	hits[16] 	3730
scalar tree_4_3_u10_r14_network.node[16].content_store 	misses[16] 	8837
scalar tree_4_3_u10_r14_network.node[16].content_store 	decision_yes[16] 	713
scalar tree_4_3_u10_r14_network.node[16].content_store 	decision_no[16] 	8124
scalar tree_4_3_u10_r14_network.node[16].content_store 	decision_ratio[16] 	0.080683489872129
scalar tree_4_3_u10_r14_network.node[17].core_layer 	interests[17] 	12242
scalar tree_4_3_u10_r14_network.node[17].core_layer 	data[17] 	8849
scalar tree_4_3_u10_r14_network.node[17].content_store 	p_hit[17] 	0.27716059467407
scalar tree_4_3_u10_r14_network.node[17].content_store 	hits[17] 	3393
scalar tree_4_3_u10_r14_network.node[17].content_store 	misses[17] 	8849
scalar tree_4_3_u10_r14_network.node[17].content_store 	decision_yes[17] 	431
scalar tree_4_3_u10_r14_network.node[17].content_store 	decision_no[17] 	8418
scalar tree_4_3_u10_r14_network.node[17].content_store 	decision_ratio[17] 	0.048706068482314
scalar tree_4_3_u10_r14_network.node[18].core_layer 	interests[18] 	12772
scalar tree_4_3_u10_r14_network.node[18].core_layer 	data[18] 	9036
scalar tree_4_3_u10_r14_network.node[18].content_store 	p_hit[18] 	0.29251487629189
scalar tree_4_3_u10_r14_network.node[18].content_store 	hits[18] 	3736
scalar tree_4_3_u10_r14_network.node[18].content_store 	misses[18] 	9036
scalar tree_4_3_u10_r14_network.node[18].content_store 	decision_yes[18] 	747
scalar tree_4_3_u10_r14_network.node[18].content_store 	decision_no[18] 	8289
scalar tree_4_3_u10_r14_network.node[18].content_store 	decision_ratio[18] 	0.082669322709163
scalar tree_4_3_u10_r14_network.node[19].core_layer 	interests[19] 	12578
scalar tree_4_3_u10_r14_network.node[19].core_layer 	data[19] 	8994
scalar tree_4_3_u10_r14_network.node[19].content_store 	p_hit[19] 	0.28502146605184
scalar tree_4_3_u10_r14_network.node[19].content_store 	hits[19] 	3585
scalar tree_4_3_u10_r14_network.node[19].content_store 	misses[19] 	8993
scalar tree_4_3_u10_r14_network.node[19].content_store 	decision_yes[19] 	718
scalar tree_4_3_u10_r14_network.node[19].content_store 	decision_no[19] 	8276
scalar tree_4_3_u10_r14_network.node[19].content_store 	decision_ratio[19] 	0.079830998443407
scalar tree_4_3_u10_r14_network.node[20].core_layer 	interests[20] 	12491
scalar tree_4_3_u10_r14_network.node[20].core_layer 	data[20] 	8701
scalar tree_4_3_u10_r14_network.node[20].content_store 	p_hit[20] 	0.30341846129213
scalar tree_4_3_u10_r14_network.node[20].content_store 	hits[20] 	3790
scalar tree_4_3_u10_r14_network.node[20].content_store 	misses[20] 	8701
scalar tree_4_3_u10_r14_network.node[20].content_store 	decision_yes[20] 	748
scalar tree_4_3_u10_r14_network.node[20].content_store 	decision_no[20] 	7953
scalar tree_4_3_u10_r14_network.node[20].content_store 	decision_ratio[20] 	0.085967130214918
scalar tree_4_3_u10_r14_network.node[21].core_layer 	interests[21] 	12491
scalar tree_4_3_u10_r14_network.node[21].core_layer 	data[21] 	9006
scalar tree_4_3_u10_r14_network.node[21].content_store 	p_hit[21] 	0.27900088063406
scalar tree_4_3_u10_r14_network.node[21].content_store 	hits[21] 	3485
scalar tree_4_3_u10_r14_network.node[21].content_store 	misses[21] 	9006
scalar tree_4_3_u10_r14_network.node[21].content_store 	decision_yes[21] 	438
scalar tree_4_3_u10_r14_network.node[21].content_store 	decision_no[21] 	8568
scalar tree_4_3_u10_r14_network.node[21].content_store 	decision_ratio[21] 	0.048634243837442
scalar tree_4_3_u10_r14_network.node[22].core_layer 	interests[22] 	12331
scalar tree_4_3_u10_r14_network.node[22].core_layer 	data[22] 	8835
scalar tree_4_3_u10_r14_network.node[22].content_store 	p_hit[22] 	0.28343200064877
scalar tree_4_3_u10_r14_network.node[22].content_store 	hits[22] 	3495
scalar tree_4_3_u10_r14_network.node[22].content_store 	misses[22] 	8836
scalar tree_4_3_u10_r14_network.node[22].content_store 	decision_yes[22] 	411
scalar tree_4_3_u10_r14_network.node[22].content_store 	decision_no[22] 	8424
scalar tree_4_3_u10_r14_network.node[22].content_store 	decision_ratio[22] 	0.046519524617997
scalar tree_4_3_u10_r14_network.node[23].core_layer 	interests[23] 	12616
scalar tree_4_3_u10_r14_network.node[23].core_layer 	data[23] 	8924
scalar tree_4_3_u10_r14_network.node[23].content_store 	p_hit[23] 	0.29264426125555
scalar tree_4_3_u10_r14_network.node[23].content_store 	hits[23] 	3692
scalar tree_4_3_u10_r14_network.node[23].content_store 	misses[23] 	8924
scalar tree_4_3_u10_r14_network.node[23].content_store 	decision_yes[23] 	723
scalar tree_4_3_u10_r14_network.node[23].content_store 	decision_no[23] 	8201
scalar tree_4_3_u10_r14_network.node[23].content_store 	decision_ratio[23] 	0.081017480950247
scalar tree_4_3_u10_r14_network.node[24].core_layer 	interests[24] 	12614
scalar tree_4_3_u10_r14_network.node[24].core_layer 	data[24] 	8891
scalar tree_4_3_u10_r14_network.node[24].content_store 	p_hit[24] 	0.29514824797844
scalar tree_4_3_u10_r14_network.node[24].content_store 	hits[24] 	3723
scalar tree_4_3_u10_r14_network.node[24].content_store 	misses[24] 	8891
scalar tree_4_3_u10_r14_network.node[24].content_store 	decision_yes[24] 	731
scalar tree_4_3_u10_r14_network.node[24].content_store 	decision_no[24] 	8160
scalar tree_4_3_u10_r14_network.node[24].content_store 	decision_ratio[24] 	0.082217973231358
scalar tree_4_3_u10_r14_network.node[25].core_layer 	interests[25] 	12483
scalar tree_4_3_u10_r14_network.node[25].core_layer 	data[25] 	8710
scalar tree_4_3_u10_r14_network.node[25].content_store 	p_hit[25] 	0.30225106144356
scalar tree_4_3_u10_r14_network.node[25].content_store 	hits[25] 	3773
scalar tree_4_3_u10_r14_network.node[25].content_store 	misses[25] 	8710
scalar tree_4_3_u10_r14_network.node[25].content_store 	decision_yes[25] 	692
scalar tree_4_3_u10_r14_network.node[25].content_store 	decision_no[25] 	8018
scalar tree_4_3_u10_r14_network.node[25].content_store 	decision_ratio[25] 	0.079448909299656
scalar tree_4_3_u10_r14_network.node[26].core_layer 	interests[26] 	12206
scalar tree_4_3_u10_r14_network.node[26].core_layer 	data[26] 	8722
scalar tree_4_3_u10_r14_network.node[26].content_store 	p_hit[26] 	0.28543339341308
scalar tree_4_3_u10_r14_network.node[26].content_store 	hits[26] 	3484
scalar tree_4_3_u10_r14_network.node[26].content_store 	misses[26] 	8722
scalar tree_4_3_u10_r14_network.node[26].content_store 	decision_yes[26] 	398
scalar tree_4_3_u10_r14_network.node[26].content_store 	decision_no[26] 	8324
scalar tree_4_3_u10_r14_network.node[26].content_store 	decision_ratio[26] 	0.045631735840404
scalar tree_4_3_u10_r14_network.node[27].core_layer 	interests[27] 	12509
scalar tree_4_3_u10_r14_network.node[27].core_layer 	data[27] 	8854
scalar tree_4_3_u10_r14_network.node[27].content_store 	p_hit[27] 	0.2921896234711
scalar tree_4_3_u10_r14_network.node[27].content_store 	hits[27] 	3655
scalar tree_4_3_u10_r14_network.node[27].content_store 	misses[27] 	8854
scalar tree_4_3_u10_r14_network.node[27].content_store 	decision_yes[27] 	747
scalar tree_4_3_u10_r14_network.node[27].content_store 	decision_no[27] 	8107
scalar tree_4_3_u10_r14_network.node[27].content_store 	decision_ratio[27] 	0.084368646939236
scalar tree_4_3_u10_r14_network.node[28].core_layer 	interests[28] 	12592
scalar tree_4_3_u10_r14_network.node[28].core_layer 	data[28] 	8839
scalar tree_4_3_u10_r14_network.node[28].content_store 	p_hit[28] 	0.29804637865311
scalar tree_4_3_u10_r14_network.node[28].content_store 	hits[28] 	3753
scalar tree_4_3_u10_r14_network.node[28].content_store 	misses[28] 	8839
scalar tree_4_3_u10_r14_network.node[28].content_store 	decision_yes[28] 	730
scalar tree_4_3_u10_r14_network.node[28].content_store 	decision_no[28] 	8109
scalar tree_4_3_u10_r14_network.node[28].content_store 	decision_ratio[28] 	0.08258852811404
scalar tree_4_3_u10_r14_network.node[29].core_layer 	interests[29] 	12451
scalar tree_4_3_u10_r14_network.node[29].core_layer 	data[29] 	8719
scalar tree_4_3_u10_r14_network.node[29].content_store 	p_hit[29] 	0.29965464621316
scalar tree_4_3_u10_r14_network.node[29].content_store 	hits[29] 	3731
scalar tree_4_3_u10_r14_network.node[29].content_store 	misses[29] 	8720
scalar tree_4_3_u10_r14_network.node[29].content_store 	decision_yes[29] 	708
scalar tree_4_3_u10_r14_network.node[29].content_store 	decision_no[29] 	8011
scalar tree_4_3_u10_r14_network.node[29].content_store 	decision_ratio[29] 	0.081201972703292
scalar tree_4_3_u10_r14_network.node[30].core_layer 	interests[30] 	12325
scalar tree_4_3_u10_r14_network.node[30].core_layer 	data[30] 	8898
scalar tree_4_3_u10_r14_network.node[30].content_store 	p_hit[30] 	0.27805273833671
scalar tree_4_3_u10_r14_network.node[30].content_store 	hits[30] 	3427
scalar tree_4_3_u10_r14_network.node[30].content_store 	misses[30] 	8898
scalar tree_4_3_u10_r14_network.node[30].content_store 	decision_yes[30] 	429
scalar tree_4_3_u10_r14_network.node[30].content_store 	decision_no[30] 	8469
scalar tree_4_3_u10_r14_network.node[30].content_store 	decision_ratio[30] 	0.048213081591369
scalar tree_4_3_u10_r14_network.node[31].core_layer 	interests[31] 	12183
scalar tree_4_3_u10_r14_network.node[31].core_layer 	data[31] 	8708
scalar tree_4_3_u10_r14_network.node[31].content_store 	p_hit[31] 	0.28531560371009
scalar tree_4_3_u10_r14_network.node[31].content_store 	hits[31] 	3476
scalar tree_4_3_u10_r14_network.node[31].content_store 	misses[31] 	8707
scalar tree_4_3_u10_r14_network.node[31].content_store 	decision_yes[31] 	376
scalar tree_4_3_u10_r14_network.node[31].content_store 	decision_no[31] 	8332
scalar tree_4_3_u10_r14_network.node[31].content_store 	decision_ratio[31] 	0.043178686265503
scalar tree_4_3_u10_r14_network.node[32].core_layer 	interests[32] 	12654
scalar tree_4_3_u10_r14_network.node[32].core_layer 	data[32] 	9011
scalar tree_4_3_u10_r14_network.node[32].content_store 	p_hit[32] 	0.28789315631421
scalar tree_4_3_u10_r14_network.node[32].content_store 	hits[32] 	3643
scalar tree_4_3_u10_r14_network.node[32].content_store 	misses[32] 	9011
scalar tree_4_3_u10_r14_network.node[32].content_store 	decision_yes[32] 	804
scalar tree_4_3_u10_r14_network.node[32].content_store 	decision_no[32] 	8207
scalar tree_4_3_u10_r14_network.node[32].content_store 	decision_ratio[32] 	0.089224281433803
scalar tree_4_3_u10_r14_network.node[33].core_layer 	interests[33] 	12463
scalar tree_4_3_u10_r14_network.node[33].core_layer 	data[33] 	8780
scalar tree_4_3_u10_r14_network.node[33].content_store 	p_hit[33] 	0.29543448607879
scalar tree_4_3_u10_r14_network.node[33].content_store 	hits[33] 	3682
scalar tree_4_3_u10_r14_network.node[33].content_store 	misses[33] 	8781
scalar tree_4_3_u10_r14_network.node[33].content_store 	decision_yes[33] 	693
scalar tree_4_3_u10_r14_network.node[33].content_store 	decision_no[33] 	8087
scalar tree_4_3_u10_r14_network.node[33].content_store 	decision_ratio[33] 	0.078929384965831
scalar tree_4_3_u10_r14_network.node[34].core_layer 	interests[34] 	12799
scalar tree_4_3_u10_r14_network.node[34].core_layer 	data[34] 	9137
scalar tree_4_3_u10_r14_network.node[34].content_store 	p_hit[34] 	0.28611610282053
scalar tree_4_3_u10_r14_network.node[34].content_store 	hits[34] 	3662
scalar tree_4_3_u10_r14_network.node[34].content_store 	misses[34] 	9137
scalar tree_4_3_u10_r14_network.node[34].content_store 	decision_yes[34] 	752
scalar tree_4_3_u10_r14_network.node[34].content_store 	decision_no[34] 	8385
scalar tree_4_3_u10_r14_network.node[34].content_store 	decision_ratio[34] 	0.082302725183321
scalar tree_4_3_u10_r14_network.node[35].core_layer 	interests[35] 	12155
scalar tree_4_3_u10_r14_network.node[35].core_layer 	data[35] 	8702
scalar tree_4_3_u10_r14_network.node[35].content_store 	p_hit[35] 	0.2840806252571
scalar tree_4_3_u10_r14_network.node[35].content_store 	hits[35] 	3453
scalar tree_4_3_u10_r14_network.node[35].content_store 	misses[35] 	8702
scalar tree_4_3_u10_r14_network.node[35].content_store 	decision_yes[35] 	419
scalar tree_4_3_u10_r14_network.node[35].content_store 	decision_no[35] 	8283
scalar tree_4_3_u10_r14_network.node[35].content_store 	decision_ratio[35] 	0.048149850609055
scalar tree_4_3_u10_r14_network.node[36].core_layer 	interests[36] 	12915
scalar tree_4_3_u10_r14_network.node[36].core_layer 	data[36] 	9137
scalar tree_4_3_u10_r14_network.node[36].content_store 	p_hit[36] 	0.29252806813782
scalar tree_4_3_u10_r14_network.node[36].content_store 	hits[36] 	3778
scalar tree_4_3_u10_r14_network.node[36].content_store 	misses[36] 	9137
scalar tree_4_3_u10_r14_network.node[36].content_store 	decision_yes[36] 	764
scalar tree_4_3_u10_r14_network.node[36].content_store 	decision_no[36] 	8373
scalar tree_4_3_u10_r14_network.node[36].content_store 	decision_ratio[36] 	0.083616066542629
scalar tree_4_3_u10_r14_network.node[37].core_layer 	interests[37] 	12332
scalar tree_4_3_u10_r14_network.node[37].core_layer 	data[37] 	8736
scalar tree_4_3_u10_r14_network.node[37].content_store 	p_hit[37] 	0.29159909179371
scalar tree_4_3_u10_r14_network.node[37].content_store 	hits[37] 	3596
scalar tree_4_3_u10_r14_network.node[37].content_store 	misses[37] 	8736
scalar tree_4_3_u10_r14_network.node[37].content_store 	decision_yes[37] 	653
scalar tree_4_3_u10_r14_network.node[37].content_store 	decision_no[37] 	8083
scalar tree_4_3_u10_r14_network.node[37].content_store 	decision_ratio[37] 	0.074748168498168
scalar tree_4_3_u10_r14_network.node[38].core_layer 	interests[38] 	12412
scalar tree_4_3_u10_r14_network.node[38].core_layer 	data[38] 	8923
scalar tree_4_3_u10_r14_network.node[38].content_store 	p_hit[38] 	0.28101836932001
scalar tree_4_3_u10_r14_network.node[38].content_store 	hits[38] 	3488
scalar tree_4_3_u10_r14_network.node[38].content_store 	misses[38] 	8924
scalar tree_4_3_u10_r14_network.node[38].content_store 	decision_yes[38] 	753
scalar tree_4_3_u10_r14_network.node[38].content_store 	decision_no[38] 	8170
scalar tree_4_3_u10_r14_network.node[38].content_store 	decision_ratio[38] 	0.084388658522918
scalar tree_4_3_u10_r14_network.node[39].core_layer 	interests[39] 	12140
scalar tree_4_3_u10_r14_network.node[39].core_layer 	data[39] 	8729
scalar tree_4_3_u10_r14_network.node[39].content_store 	p_hit[39] 	0.28088962108731
scalar tree_4_3_u10_r14_network.node[39].content_store 	hits[39] 	3410
scalar tree_4_3_u10_r14_network.node[39].content_store 	misses[39] 	8730
scalar tree_4_3_u10_r14_network.node[39].content_store 	decision_yes[39] 	410
scalar tree_4_3_u10_r14_network.node[39].content_store 	decision_no[39] 	8319
scalar tree_4_3_u10_r14_network.node[39].content_store 	decision_ratio[39] 	0.046969870546454
scalar tree_4_3_u10_r14_network.client[13] 	hdistance[13] 	2.7226835484667
scalar tree_4_3_u10_r14_network.client[13] 	downloads[13] 	12163
scalar tree_4_3_u10_r14_network.client[13] 	avg_time[13] 	0.004208169305
scalar tree_4_3_u10_r14_network.client[14] 	hdistance[14] 	2.6628800534581
scalar tree_4_3_u10_r14_network.client[14] 	downloads[14] 	11972
scalar tree_4_3_u10_r14_network.client[14] 	avg_time[14] 	0.00410809912
scalar tree_4_3_u10_r14_network.client[15] 	hdistance[15] 	2.670861969032
scalar tree_4_3_u10_r14_network.client[15] 	downloads[15] 	12077
scalar tree_4_3_u10_r14_network.client[15] 	avg_time[15] 	0.004118745593
scalar tree_4_3_u10_r14_network.client[16] 	hdistance[16] 	2.65413596785
scalar tree_4_3_u10_r14_network.client[16] 	downloads[16] 	11944
scalar tree_4_3_u10_r14_network.client[16] 	avg_time[16] 	0.004094772644
scalar tree_4_3_u10_r14_network.client[17] 	hdistance[17] 	2.6924623115578
scalar tree_4_3_u10_r14_network.client[17] 	downloads[17] 	11940
scalar tree_4_3_u10_r14_network.client[17] 	avg_time[17] 	0.004166072769
scalar tree_4_3_u10_r14_network.client[18] 	hdistance[18] 	2.6535394228398
scalar tree_4_3_u10_r14_network.client[18] 	downloads[18] 	12163
scalar tree_4_3_u10_r14_network.client[18] 	avg_time[18] 	0.004090599628
scalar tree_4_3_u10_r14_network.client[19] 	hdistance[19] 	2.6869803791154
scalar tree_4_3_u10_r14_network.client[19] 	downloads[19] 	12028
scalar tree_4_3_u10_r14_network.client[19] 	avg_time[19] 	0.004140978189
scalar tree_4_3_u10_r14_network.client[20] 	hdistance[20] 	2.6236087689713
scalar tree_4_3_u10_r14_network.client[20] 	downloads[20] 	11860
scalar tree_4_3_u10_r14_network.client[20] 	avg_time[20] 	0.004040300582
scalar tree_4_3_u10_r14_network.client[21] 	hdistance[21] 	2.6845116469146
scalar tree_4_3_u10_r14_network.client[21] 	downloads[21] 	12235
scalar tree_4_3_u10_r14_network.client[21] 	avg_time[21] 	0.00414695237
scalar tree_4_3_u10_r14_network.client[22] 	hdistance[22] 	2.6795639873523
scalar tree_4_3_u10_r14_network.client[22] 	downloads[22] 	12018
scalar tree_4_3_u10_r14_network.client[22] 	avg_time[22] 	0.00414488566
scalar tree_4_3_u10_r14_network.client[23] 	hdistance[23] 	2.6583381754794
scalar tree_4_3_u10_r14_network.client[23] 	downloads[23] 	12047
scalar tree_4_3_u10_r14_network.client[23] 	avg_time[23] 	0.004097282621
scalar tree_4_3_u10_r14_network.client[24] 	hdistance[24] 	2.639587148327
scalar tree_4_3_u10_r14_network.client[24] 	downloads[24] 	12014
scalar tree_4_3_u10_r14_network.client[24] 	avg_time[24] 	0.004070747784
scalar tree_4_3_u10_r14_network.client[25] 	hdistance[25] 	2.6333108904225
scalar tree_4_3_u10_r14_network.client[25] 	downloads[25] 	11882
scalar tree_4_3_u10_r14_network.client[25] 	avg_time[25] 	0.004058741353
scalar tree_4_3_u10_r14_network.client[26] 	hdistance[26] 	2.6815642458101
scalar tree_4_3_u10_r14_network.client[26] 	downloads[26] 	11993
scalar tree_4_3_u10_r14_network.client[26] 	avg_time[26] 	0.004143080467
scalar tree_4_3_u10_r14_network.client[27] 	hdistance[27] 	2.6509260804272
scalar tree_4_3_u10_r14_network.client[27] 	downloads[27] 	11986
scalar tree_4_3_u10_r14_network.client[27] 	avg_time[27] 	0.004083260806
scalar tree_4_3_u10_r14_network.client[28] 	hdistance[28] 	2.6404241108699
scalar tree_4_3_u10_r14_network.client[28] 	downloads[28] 	11978
scalar tree_4_3_u10_r14_network.client[28] 	avg_time[28] 	0.004067621007
scalar tree_4_3_u10_r14_network.client[29] 	hdistance[29] 	2.6319811875367
scalar tree_4_3_u10_r14_network.client[29] 	downloads[29] 	11907
scalar tree_4_3_u10_r14_network.client[29] 	avg_time[29] 	0.004054886594
scalar tree_4_3_u10_r14_network.client[30] 	hdistance[30] 	2.6916956737941
scalar tree_4_3_u10_r14_network.client[30] 	downloads[30] 	12066
scalar tree_4_3_u10_r14_network.client[30] 	avg_time[30] 	0.004156635484
scalar tree_4_3_u10_r14_network.client[31] 	hdistance[31] 	2.6813020439061
scalar tree_4_3_u10_r14_network.client[31] 	downloads[31] 	11889
scalar tree_4_3_u10_r14_network.client[31] 	avg_time[31] 	0.004141977012
scalar tree_4_3_u10_r14_network.client[32] 	hdistance[32] 	2.6420416942422
scalar tree_4_3_u10_r14_network.client[32] 	downloads[32] 	12088
scalar tree_4_3_u10_r14_network.client[32] 	avg_time[32] 	0.004079083665
scalar tree_4_3_u10_r14_network.client[33] 	hdistance[33] 	2.6581461615823
scalar tree_4_3_u10_r14_network.client[33] 	downloads[33] 	11932
scalar tree_4_3_u10_r14_network.client[33] 	avg_time[33] 	0.004089783284
scalar tree_4_3_u10_r14_network.client[34] 	hdistance[34] 	2.6744376278119
scalar tree_4_3_u10_r14_network.client[34] 	downloads[34] 	12225
scalar tree_4_3_u10_r14_network.client[34] 	avg_time[34] 	0.004120078717
scalar tree_4_3_u10_r14_network.client[35] 	hdistance[35] 	2.6695535188766
scalar tree_4_3_u10_r14_network.client[35] 	downloads[35] 	11893
scalar tree_4_3_u10_r14_network.client[35] 	avg_time[35] 	0.004125617134
scalar tree_4_3_u10_r14_network.client[36] 	hdistance[36] 	2.6509281678773
scalar tree_4_3_u10_r14_network.client[36] 	downloads[36] 	12390
scalar tree_4_3_u10_r14_network.client[36] 	avg_time[36] 	0.004081837103
scalar tree_4_3_u10_r14_network.client[37] 	hdistance[37] 	2.6894790602656
scalar tree_4_3_u10_r14_network.client[37] 	downloads[37] 	11748
scalar tree_4_3_u10_r14_network.client[37] 	avg_time[37] 	0.004139629807
scalar tree_4_3_u10_r14_network.client[38] 	hdistance[38] 	2.6981481481481
scalar tree_4_3_u10_r14_network.client[38] 	downloads[38] 	11880
scalar tree_4_3_u10_r14_network.client[38] 	avg_time[38] 	0.004155682104
scalar tree_4_3_u10_r14_network.client[39] 	hdistance[39] 	2.6916380681343
scalar tree_4_3_u10_r14_network.client[39] 	downloads[39] 	11947
scalar tree_4_3_u10_r14_network.client[39] 	avg_time[39] 	0.00415718198
