version 2
run General-201-20160819-14:19:45-2054
attr a 0.9
attr cd lcd
attr configname General
attr cr lru
attr datetime 20160819-14:19:45
attr experiment General
attr fsize 1
attr inifile hw5115/scenario_A/NRR-LCD.ini
attr iterationvars "$name=tree_4_3, $un=10, $rep=2, $cd=lcd, $cr=lru, $fsize=1, $a=0.9, $sl=nrr, $ttl=1000, $variance=0.05"
attr iterationvars2 "$name=tree_4_3, $un=10, $rep=2, $cd=lcd, $cr=lru, $fsize=1, $a=0.9, $sl=nrr, $ttl=1000, $variance=0.05, $repetition=0"
attr measurement "$name=tree_4_3, $un=10, $rep=2, $cd=lcd, $cr=lru, $fsize=1, $a=0.9, $sl=nrr, $ttl=1000, $variance=0.05"
attr name tree_4_3
attr network networks.${name}_u${un}_r${rep}_network
attr processid 2054
attr rep 2
attr repetition 0
attr replication #0
attr resultdir results
attr runnumber 201
attr seedset 2
attr sl nrr
attr ttl 1000
attr un 10
attr variance 0.05

scalar . 	a 	0.9
scalar . 	fsize 	1
scalar . 	rep 	2
scalar . 	ttl 	1000
scalar . 	un 	10
scalar . 	variance 	0.05
scalar tree_4_3_u10_r2_network.content_distribution 	repo-0 	0
scalar tree_4_3_u10_r2_network.content_distribution 	client-0 	13
scalar tree_4_3_u10_r2_network.content_distribution 	client-1 	14
scalar tree_4_3_u10_r2_network.content_distribution 	client-2 	15
scalar tree_4_3_u10_r2_network.content_distribution 	client-3 	16
scalar tree_4_3_u10_r2_network.content_distribution 	client-4 	17
scalar tree_4_3_u10_r2_network.content_distribution 	client-5 	18
scalar tree_4_3_u10_r2_network.content_distribution 	client-6 	19
scalar tree_4_3_u10_r2_network.content_distribution 	client-7 	20
scalar tree_4_3_u10_r2_network.content_distribution 	client-8 	21
scalar tree_4_3_u10_r2_network.content_distribution 	client-9 	22
scalar tree_4_3_u10_r2_network.content_distribution 	client-10 	23
scalar tree_4_3_u10_r2_network.content_distribution 	client-11 	24
scalar tree_4_3_u10_r2_network.content_distribution 	client-12 	25
scalar tree_4_3_u10_r2_network.content_distribution 	client-13 	26
scalar tree_4_3_u10_r2_network.content_distribution 	client-14 	27
scalar tree_4_3_u10_r2_network.content_distribution 	client-15 	28
scalar tree_4_3_u10_r2_network.content_distribution 	client-16 	29
scalar tree_4_3_u10_r2_network.content_distribution 	client-17 	30
scalar tree_4_3_u10_r2_network.content_distribution 	client-18 	31
scalar tree_4_3_u10_r2_network.content_distribution 	client-19 	32
scalar tree_4_3_u10_r2_network.content_distribution 	client-20 	33
scalar tree_4_3_u10_r2_network.content_distribution 	client-21 	34
scalar tree_4_3_u10_r2_network.content_distribution 	client-22 	35
scalar tree_4_3_u10_r2_network.content_distribution 	client-23 	36
scalar tree_4_3_u10_r2_network.content_distribution 	client-24 	37
scalar tree_4_3_u10_r2_network.content_distribution 	client-25 	38
scalar tree_4_3_u10_r2_network.content_distribution 	client-26 	39
scalar tree_4_3_u10_r2_network.content_distribution 	repo-0_card 	100000
scalar tree_4_3_u10_r2_network.content_distribution 	repo-0_price 	0
scalar tree_4_3_u10_r2_network.statistics 	stabilization_time 	767.9
scalar tree_4_3_u10_r2_network.statistics 	p_hit 	0.22773805957386
scalar tree_4_3_u10_r2_network.statistics 	interests 	24765.3
scalar tree_4_3_u10_r2_network.statistics 	data 	16659.8
scalar tree_4_3_u10_r2_network.statistics 	hdistance 	2.6623168375812
scalar tree_4_3_u10_r2_network.statistics 	avg_time 	0.004110900801
scalar tree_4_3_u10_r2_network.statistics 	downloads 	324212
scalar tree_4_3_u10_r2_network.statistics 	total_cost 	0
scalar tree_4_3_u10_r2_network.statistics 	total_replicas 	100000
scalar tree_4_3_u10_r2_network.statistics 	inner_hit 	0.39318100502141
scalar tree_4_3_u10_r2_network.node[0].core_layer 	interests[0] 	197894
scalar tree_4_3_u10_r2_network.node[0].core_layer 	repo_load[0] 	196738
scalar tree_4_3_u10_r2_network.node[0].core_layer 	data[0] 	0
scalar tree_4_3_u10_r2_network.node[0].core_layer 	repo_int[0] 	196738
scalar tree_4_3_u10_r2_network.node[0].content_store 	p_hit[0] 	0.0058415111120095
scalar tree_4_3_u10_r2_network.node[0].content_store 	hits[0] 	1156
scalar tree_4_3_u10_r2_network.node[0].content_store 	misses[0] 	196738
scalar tree_4_3_u10_r2_network.node[0].content_store 	decision_yes[0] 	196738
scalar tree_4_3_u10_r2_network.node[0].content_store 	decision_no[0] 	0
scalar tree_4_3_u10_r2_network.node[0].content_store 	decision_ratio[0] 	1
scalar tree_4_3_u10_r2_network.node[1].core_layer 	interests[1] 	143644
scalar tree_4_3_u10_r2_network.node[1].core_layer 	data[1] 	141167
scalar tree_4_3_u10_r2_network.node[1].content_store 	p_hit[1] 	0.017223134972571
scalar tree_4_3_u10_r2_network.node[1].content_store 	hits[1] 	2474
scalar tree_4_3_u10_r2_network.node[1].content_store 	misses[1] 	141170
scalar tree_4_3_u10_r2_network.node[1].content_store 	decision_yes[1] 	2550
scalar tree_4_3_u10_r2_network.node[1].content_store 	decision_no[1] 	138617
scalar tree_4_3_u10_r2_network.node[1].content_store 	decision_ratio[1] 	0.018063711773998
scalar tree_4_3_u10_r2_network.node[2].core_layer 	interests[2] 	55573
scalar tree_4_3_u10_r2_network.node[2].core_layer 	data[2] 	53091
scalar tree_4_3_u10_r2_network.node[2].content_store 	p_hit[2] 	0.044643981789718
scalar tree_4_3_u10_r2_network.node[2].content_store 	hits[2] 	2481
scalar tree_4_3_u10_r2_network.node[2].content_store 	misses[2] 	53092
scalar tree_4_3_u10_r2_network.node[2].content_store 	decision_yes[2] 	1633
scalar tree_4_3_u10_r2_network.node[2].content_store 	decision_no[2] 	51458
scalar tree_4_3_u10_r2_network.node[2].content_store 	decision_ratio[2] 	0.030758508975156
scalar tree_4_3_u10_r2_network.node[3].core_layer 	interests[3] 	11417
scalar tree_4_3_u10_r2_network.node[3].core_layer 	data[3] 	8977
scalar tree_4_3_u10_r2_network.node[3].content_store 	p_hit[3] 	0.21371638784269
scalar tree_4_3_u10_r2_network.node[3].content_store 	hits[3] 	2440
scalar tree_4_3_u10_r2_network.node[3].content_store 	misses[3] 	8977
scalar tree_4_3_u10_r2_network.node[3].content_store 	decision_yes[3] 	1160
scalar tree_4_3_u10_r2_network.node[3].content_store 	decision_no[3] 	7816
scalar tree_4_3_u10_r2_network.node[3].content_store 	decision_ratio[3] 	0.12923351158645
scalar tree_4_3_u10_r2_network.node[4].core_layer 	interests[4] 	41540
scalar tree_4_3_u10_r2_network.node[4].core_layer 	data[4] 	39386
scalar tree_4_3_u10_r2_network.node[4].content_store 	p_hit[4] 	0.051829561868079
scalar tree_4_3_u10_r2_network.node[4].content_store 	hits[4] 	2153
scalar tree_4_3_u10_r2_network.node[4].content_store 	misses[4] 	39387
scalar tree_4_3_u10_r2_network.node[4].content_store 	decision_yes[4] 	2162
scalar tree_4_3_u10_r2_network.node[4].content_store 	decision_no[4] 	37224
scalar tree_4_3_u10_r2_network.node[4].content_store 	decision_ratio[4] 	0.054892601431981
scalar tree_4_3_u10_r2_network.node[5].core_layer 	interests[5] 	27616
scalar tree_4_3_u10_r2_network.node[5].core_layer 	data[5] 	25120
scalar tree_4_3_u10_r2_network.node[5].content_store 	p_hit[5] 	0.090382387022016
scalar tree_4_3_u10_r2_network.node[5].content_store 	hits[5] 	2496
scalar tree_4_3_u10_r2_network.node[5].content_store 	misses[5] 	25120
scalar tree_4_3_u10_r2_network.node[5].content_store 	decision_yes[5] 	2629
scalar tree_4_3_u10_r2_network.node[5].content_store 	decision_no[5] 	22491
scalar tree_4_3_u10_r2_network.node[5].content_store 	decision_ratio[5] 	0.1046576433121
scalar tree_4_3_u10_r2_network.node[6].core_layer 	interests[6] 	12612
scalar tree_4_3_u10_r2_network.node[6].core_layer 	data[6] 	10105
scalar tree_4_3_u10_r2_network.node[6].content_store 	p_hit[6] 	0.19877894069141
scalar tree_4_3_u10_r2_network.node[6].content_store 	hits[6] 	2507
scalar tree_4_3_u10_r2_network.node[6].content_store 	misses[6] 	10105
scalar tree_4_3_u10_r2_network.node[6].content_store 	decision_yes[6] 	2167
scalar tree_4_3_u10_r2_network.node[6].content_store 	decision_no[6] 	7938
scalar tree_4_3_u10_r2_network.node[6].content_store 	decision_ratio[6] 	0.21444829292429
scalar tree_4_3_u10_r2_network.node[7].core_layer 	interests[7] 	42525
scalar tree_4_3_u10_r2_network.node[7].core_layer 	data[7] 	40028
scalar tree_4_3_u10_r2_network.node[7].content_store 	p_hit[7] 	0.058694885361552
scalar tree_4_3_u10_r2_network.node[7].content_store 	hits[7] 	2496
scalar tree_4_3_u10_r2_network.node[7].content_store 	misses[7] 	40029
scalar tree_4_3_u10_r2_network.node[7].content_store 	decision_yes[7] 	2902
scalar tree_4_3_u10_r2_network.node[7].content_store 	decision_no[7] 	37126
scalar tree_4_3_u10_r2_network.node[7].content_store 	decision_ratio[7] 	0.072499250524633
scalar tree_4_3_u10_r2_network.node[8].core_layer 	interests[8] 	26553
scalar tree_4_3_u10_r2_network.node[8].core_layer 	data[8] 	24438
scalar tree_4_3_u10_r2_network.node[8].content_store 	p_hit[8] 	0.079652016721274
scalar tree_4_3_u10_r2_network.node[8].content_store 	hits[8] 	2115
scalar tree_4_3_u10_r2_network.node[8].content_store 	misses[8] 	24438
scalar tree_4_3_u10_r2_network.node[8].content_store 	decision_yes[8] 	1813
scalar tree_4_3_u10_r2_network.node[8].content_store 	decision_no[8] 	22625
scalar tree_4_3_u10_r2_network.node[8].content_store 	decision_ratio[8] 	0.074187740404288
scalar tree_4_3_u10_r2_network.node[9].core_layer 	interests[9] 	12353
scalar tree_4_3_u10_r2_network.node[9].core_layer 	data[9] 	9987
scalar tree_4_3_u10_r2_network.node[9].content_store 	p_hit[9] 	0.19153242127418
scalar tree_4_3_u10_r2_network.node[9].content_store 	hits[9] 	2366
scalar tree_4_3_u10_r2_network.node[9].content_store 	misses[9] 	9987
scalar tree_4_3_u10_r2_network.node[9].content_store 	decision_yes[9] 	2098
scalar tree_4_3_u10_r2_network.node[9].content_store 	decision_no[9] 	7889
scalar tree_4_3_u10_r2_network.node[9].content_store 	decision_ratio[9] 	0.21007309502353
scalar tree_4_3_u10_r2_network.node[10].core_layer 	interests[10] 	42866
scalar tree_4_3_u10_r2_network.node[10].core_layer 	data[10] 	40403
scalar tree_4_3_u10_r2_network.node[10].content_store 	p_hit[10] 	0.05743479680866
scalar tree_4_3_u10_r2_network.node[10].content_store 	hits[10] 	2462
scalar tree_4_3_u10_r2_network.node[10].content_store 	misses[10] 	40404
scalar tree_4_3_u10_r2_network.node[10].content_store 	decision_yes[10] 	2961
scalar tree_4_3_u10_r2_network.node[10].content_store 	decision_no[10] 	37442
scalar tree_4_3_u10_r2_network.node[10].content_store 	decision_ratio[10] 	0.073286637130906
scalar tree_4_3_u10_r2_network.node[11].core_layer 	interests[11] 	27487
scalar tree_4_3_u10_r2_network.node[11].core_layer 	data[11] 	25009
scalar tree_4_3_u10_r2_network.node[11].content_store 	p_hit[11] 	0.090115327245607
scalar tree_4_3_u10_r2_network.node[11].content_store 	hits[11] 	2477
scalar tree_4_3_u10_r2_network.node[11].content_store 	misses[11] 	25010
scalar tree_4_3_u10_r2_network.node[11].content_store 	decision_yes[11] 	2443
scalar tree_4_3_u10_r2_network.node[11].content_store 	decision_no[11] 	22566
scalar tree_4_3_u10_r2_network.node[11].content_store 	decision_ratio[11] 	0.097684833459954
scalar tree_4_3_u10_r2_network.node[12].core_layer 	interests[12] 	11265
scalar tree_4_3_u10_r2_network.node[12].core_layer 	data[12] 	9206
scalar tree_4_3_u10_r2_network.node[12].content_store 	p_hit[12] 	0.18277851753218
scalar tree_4_3_u10_r2_network.node[12].content_store 	hits[12] 	2059
scalar tree_4_3_u10_r2_network.node[12].content_store 	misses[12] 	9206
scalar tree_4_3_u10_r2_network.node[12].content_store 	decision_yes[12] 	1269
scalar tree_4_3_u10_r2_network.node[12].content_store 	decision_no[12] 	7937
scalar tree_4_3_u10_r2_network.node[12].content_store 	decision_ratio[12] 	0.13784488377145
scalar tree_4_3_u10_r2_network.node[13].core_layer 	interests[13] 	12123
scalar tree_4_3_u10_r2_network.node[13].core_layer 	data[13] 	8624
scalar tree_4_3_u10_r2_network.node[13].content_store 	p_hit[13] 	0.2885424399901
scalar tree_4_3_u10_r2_network.node[13].content_store 	hits[13] 	3498
scalar tree_4_3_u10_r2_network.node[13].content_store 	misses[13] 	8625
scalar tree_4_3_u10_r2_network.node[13].content_store 	decision_yes[13] 	361
scalar tree_4_3_u10_r2_network.node[13].content_store 	decision_no[13] 	8263
scalar tree_4_3_u10_r2_network.node[13].content_store 	decision_ratio[13] 	0.041859925788497
scalar tree_4_3_u10_r2_network.node[14].core_layer 	interests[14] 	12747
scalar tree_4_3_u10_r2_network.node[14].core_layer 	data[14] 	8972
scalar tree_4_3_u10_r2_network.node[14].content_store 	p_hit[14] 	0.29614811328156
scalar tree_4_3_u10_r2_network.node[14].content_store 	hits[14] 	3775
scalar tree_4_3_u10_r2_network.node[14].content_store 	misses[14] 	8972
scalar tree_4_3_u10_r2_network.node[14].content_store 	decision_yes[14] 	742
scalar tree_4_3_u10_r2_network.node[14].content_store 	decision_no[14] 	8230
scalar tree_4_3_u10_r2_network.node[14].content_store 	decision_ratio[14] 	0.082701738742755
scalar tree_4_3_u10_r2_network.node[15].core_layer 	interests[15] 	12671
scalar tree_4_3_u10_r2_network.node[15].core_layer 	data[15] 	8973
scalar tree_4_3_u10_r2_network.node[15].content_store 	p_hit[15] 	0.29176860547707
scalar tree_4_3_u10_r2_network.node[15].content_store 	hits[15] 	3697
scalar tree_4_3_u10_r2_network.node[15].content_store 	misses[15] 	8974
scalar tree_4_3_u10_r2_network.node[15].content_store 	decision_yes[15] 	797
scalar tree_4_3_u10_r2_network.node[15].content_store 	decision_no[15] 	8176
scalar tree_4_3_u10_r2_network.node[15].content_store 	decision_ratio[15] 	0.088822021620417
scalar tree_4_3_u10_r2_network.node[16].core_layer 	interests[16] 	12784
scalar tree_4_3_u10_r2_network.node[16].core_layer 	data[16] 	8931
scalar tree_4_3_u10_r2_network.node[16].content_store 	p_hit[16] 	0.30139236545682
scalar tree_4_3_u10_r2_network.node[16].content_store 	hits[16] 	3853
scalar tree_4_3_u10_r2_network.node[16].content_store 	misses[16] 	8931
scalar tree_4_3_u10_r2_network.node[16].content_store 	decision_yes[16] 	738
scalar tree_4_3_u10_r2_network.node[16].content_store 	decision_no[16] 	8193
scalar tree_4_3_u10_r2_network.node[16].content_store 	decision_ratio[16] 	0.082633523681559
scalar tree_4_3_u10_r2_network.node[17].core_layer 	interests[17] 	12430
scalar tree_4_3_u10_r2_network.node[17].core_layer 	data[17] 	8824
scalar tree_4_3_u10_r2_network.node[17].content_store 	p_hit[17] 	0.29002413515688
scalar tree_4_3_u10_r2_network.node[17].content_store 	hits[17] 	3605
scalar tree_4_3_u10_r2_network.node[17].content_store 	misses[17] 	8825
scalar tree_4_3_u10_r2_network.node[17].content_store 	decision_yes[17] 	369
scalar tree_4_3_u10_r2_network.node[17].content_store 	decision_no[17] 	8455
scalar tree_4_3_u10_r2_network.node[17].content_store 	decision_ratio[17] 	0.041817769718948
scalar tree_4_3_u10_r2_network.node[18].core_layer 	interests[18] 	12610
scalar tree_4_3_u10_r2_network.node[18].core_layer 	data[18] 	8936
scalar tree_4_3_u10_r2_network.node[18].content_store 	p_hit[18] 	0.2913560666138
scalar tree_4_3_u10_r2_network.node[18].content_store 	hits[18] 	3674
scalar tree_4_3_u10_r2_network.node[18].content_store 	misses[18] 	8936
scalar tree_4_3_u10_r2_network.node[18].content_store 	decision_yes[18] 	794
scalar tree_4_3_u10_r2_network.node[18].content_store 	decision_no[18] 	8142
scalar tree_4_3_u10_r2_network.node[18].content_store 	decision_ratio[18] 	0.088854073410922
scalar tree_4_3_u10_r2_network.node[19].core_layer 	interests[19] 	12486
scalar tree_4_3_u10_r2_network.node[19].core_layer 	data[19] 	8866
scalar tree_4_3_u10_r2_network.node[19].content_store 	p_hit[19] 	0.28992471568156
scalar tree_4_3_u10_r2_network.node[19].content_store 	hits[19] 	3620
scalar tree_4_3_u10_r2_network.node[19].content_store 	misses[19] 	8866
scalar tree_4_3_u10_r2_network.node[19].content_store 	decision_yes[19] 	743
scalar tree_4_3_u10_r2_network.node[19].content_store 	decision_no[19] 	8123
scalar tree_4_3_u10_r2_network.node[19].content_store 	decision_ratio[19] 	0.083803293480713
scalar tree_4_3_u10_r2_network.node[20].core_layer 	interests[20] 	12467
scalar tree_4_3_u10_r2_network.node[20].core_layer 	data[20] 	8820
scalar tree_4_3_u10_r2_network.node[20].content_store 	p_hit[20] 	0.29253228523302
scalar tree_4_3_u10_r2_network.node[20].content_store 	hits[20] 	3647
scalar tree_4_3_u10_r2_network.node[20].content_store 	misses[20] 	8820
scalar tree_4_3_u10_r2_network.node[20].content_store 	decision_yes[20] 	743
scalar tree_4_3_u10_r2_network.node[20].content_store 	decision_no[20] 	8077
scalar tree_4_3_u10_r2_network.node[20].content_store 	decision_ratio[20] 	0.084240362811791
scalar tree_4_3_u10_r2_network.node[21].core_layer 	interests[21] 	12387
scalar tree_4_3_u10_r2_network.node[21].core_layer 	data[21] 	8947
scalar tree_4_3_u10_r2_network.node[21].content_store 	p_hit[21] 	0.27771050294664
scalar tree_4_3_u10_r2_network.node[21].content_store 	hits[21] 	3440
scalar tree_4_3_u10_r2_network.node[21].content_store 	misses[21] 	8947
scalar tree_4_3_u10_r2_network.node[21].content_store 	decision_yes[21] 	415
scalar tree_4_3_u10_r2_network.node[21].content_store 	decision_no[21] 	8532
scalar tree_4_3_u10_r2_network.node[21].content_store 	decision_ratio[21] 	0.046384262881413
scalar tree_4_3_u10_r2_network.node[22].core_layer 	interests[22] 	12042
scalar tree_4_3_u10_r2_network.node[22].core_layer 	data[22] 	8568
scalar tree_4_3_u10_r2_network.node[22].content_store 	p_hit[22] 	0.28849028400598
scalar tree_4_3_u10_r2_network.node[22].content_store 	hits[22] 	3474
scalar tree_4_3_u10_r2_network.node[22].content_store 	misses[22] 	8568
scalar tree_4_3_u10_r2_network.node[22].content_store 	decision_yes[22] 	371
scalar tree_4_3_u10_r2_network.node[22].content_store 	decision_no[22] 	8197
scalar tree_4_3_u10_r2_network.node[22].content_store 	decision_ratio[22] 	0.043300653594771
scalar tree_4_3_u10_r2_network.node[23].core_layer 	interests[23] 	12582
scalar tree_4_3_u10_r2_network.node[23].core_layer 	data[23] 	8809
scalar tree_4_3_u10_r2_network.node[23].content_store 	p_hit[23] 	0.29979335558735
scalar tree_4_3_u10_r2_network.node[23].content_store 	hits[23] 	3772
scalar tree_4_3_u10_r2_network.node[23].content_store 	misses[23] 	8810
scalar tree_4_3_u10_r2_network.node[23].content_store 	decision_yes[23] 	747
scalar tree_4_3_u10_r2_network.node[23].content_store 	decision_no[23] 	8062
scalar tree_4_3_u10_r2_network.node[23].content_store 	decision_ratio[23] 	0.084799636735157
scalar tree_4_3_u10_r2_network.node[24].core_layer 	interests[24] 	12519
scalar tree_4_3_u10_r2_network.node[24].core_layer 	data[24] 	8901
scalar tree_4_3_u10_r2_network.node[24].content_store 	p_hit[24] 	0.28900071890726
scalar tree_4_3_u10_r2_network.node[24].content_store 	hits[24] 	3618
scalar tree_4_3_u10_r2_network.node[24].content_store 	misses[24] 	8901
scalar tree_4_3_u10_r2_network.node[24].content_store 	decision_yes[24] 	742
scalar tree_4_3_u10_r2_network.node[24].content_store 	decision_no[24] 	8159
scalar tree_4_3_u10_r2_network.node[24].content_store 	decision_ratio[24] 	0.083361420065161
scalar tree_4_3_u10_r2_network.node[25].core_layer 	interests[25] 	12569
scalar tree_4_3_u10_r2_network.node[25].core_layer 	data[25] 	8913
scalar tree_4_3_u10_r2_network.node[25].content_store 	p_hit[25] 	0.29087437345851
scalar tree_4_3_u10_r2_network.node[25].content_store 	hits[25] 	3656
scalar tree_4_3_u10_r2_network.node[25].content_store 	misses[25] 	8913
scalar tree_4_3_u10_r2_network.node[25].content_store 	decision_yes[25] 	767
scalar tree_4_3_u10_r2_network.node[25].content_store 	decision_no[25] 	8146
scalar tree_4_3_u10_r2_network.node[25].content_store 	decision_ratio[25] 	0.086054078312577
scalar tree_4_3_u10_r2_network.node[26].core_layer 	interests[26] 	12352
scalar tree_4_3_u10_r2_network.node[26].core_layer 	data[26] 	8793
scalar tree_4_3_u10_r2_network.node[26].content_store 	p_hit[26] 	0.28813147668394
scalar tree_4_3_u10_r2_network.node[26].content_store 	hits[26] 	3559
scalar tree_4_3_u10_r2_network.node[26].content_store 	misses[26] 	8793
scalar tree_4_3_u10_r2_network.node[26].content_store 	decision_yes[26] 	396
scalar tree_4_3_u10_r2_network.node[26].content_store 	decision_no[26] 	8397
scalar tree_4_3_u10_r2_network.node[26].content_store 	decision_ratio[26] 	0.04503582395087
scalar tree_4_3_u10_r2_network.node[27].core_layer 	interests[27] 	12473
scalar tree_4_3_u10_r2_network.node[27].core_layer 	data[27] 	8926
scalar tree_4_3_u10_r2_network.node[27].content_store 	p_hit[27] 	0.28437424837649
scalar tree_4_3_u10_r2_network.node[27].content_store 	hits[27] 	3547
scalar tree_4_3_u10_r2_network.node[27].content_store 	misses[27] 	8926
scalar tree_4_3_u10_r2_network.node[27].content_store 	decision_yes[27] 	693
scalar tree_4_3_u10_r2_network.node[27].content_store 	decision_no[27] 	8233
scalar tree_4_3_u10_r2_network.node[27].content_store 	decision_ratio[27] 	0.077638359847636
scalar tree_4_3_u10_r2_network.node[28].core_layer 	interests[28] 	12600
scalar tree_4_3_u10_r2_network.node[28].core_layer 	data[28] 	9037
scalar tree_4_3_u10_r2_network.node[28].content_store 	p_hit[28] 	0.28277777777778
scalar tree_4_3_u10_r2_network.node[28].content_store 	hits[28] 	3563
scalar tree_4_3_u10_r2_network.node[28].content_store 	misses[28] 	9037
scalar tree_4_3_u10_r2_network.node[28].content_store 	decision_yes[28] 	770
scalar tree_4_3_u10_r2_network.node[28].content_store 	decision_no[28] 	8267
scalar tree_4_3_u10_r2_network.node[28].content_store 	decision_ratio[28] 	0.085205267234702
scalar tree_4_3_u10_r2_network.node[29].core_layer 	interests[29] 	12716
scalar tree_4_3_u10_r2_network.node[29].core_layer 	data[29] 	8909
scalar tree_4_3_u10_r2_network.node[29].content_store 	p_hit[29] 	0.29938659955961
scalar tree_4_3_u10_r2_network.node[29].content_store 	hits[29] 	3807
scalar tree_4_3_u10_r2_network.node[29].content_store 	misses[29] 	8909
scalar tree_4_3_u10_r2_network.node[29].content_store 	decision_yes[29] 	743
scalar tree_4_3_u10_r2_network.node[29].content_store 	decision_no[29] 	8166
scalar tree_4_3_u10_r2_network.node[29].content_store 	decision_ratio[29] 	0.083398810191941
scalar tree_4_3_u10_r2_network.node[30].core_layer 	interests[30] 	12322
scalar tree_4_3_u10_r2_network.node[30].core_layer 	data[30] 	8807
scalar tree_4_3_u10_r2_network.node[30].content_store 	p_hit[30] 	0.28526213277065
scalar tree_4_3_u10_r2_network.node[30].content_store 	hits[30] 	3515
scalar tree_4_3_u10_r2_network.node[30].content_store 	misses[30] 	8807
scalar tree_4_3_u10_r2_network.node[30].content_store 	decision_yes[30] 	370
scalar tree_4_3_u10_r2_network.node[30].content_store 	decision_no[30] 	8437
scalar tree_4_3_u10_r2_network.node[30].content_store 	decision_ratio[30] 	0.04201203588055
scalar tree_4_3_u10_r2_network.node[31].core_layer 	interests[31] 	12304
scalar tree_4_3_u10_r2_network.node[31].core_layer 	data[31] 	8778
scalar tree_4_3_u10_r2_network.node[31].content_store 	p_hit[31] 	0.28657347204161
scalar tree_4_3_u10_r2_network.node[31].content_store 	hits[31] 	3526
scalar tree_4_3_u10_r2_network.node[31].content_store 	misses[31] 	8778
scalar tree_4_3_u10_r2_network.node[31].content_store 	decision_yes[31] 	375
scalar tree_4_3_u10_r2_network.node[31].content_store 	decision_no[31] 	8403
scalar tree_4_3_u10_r2_network.node[31].content_store 	decision_ratio[31] 	0.04272043745728
scalar tree_4_3_u10_r2_network.node[32].core_layer 	interests[32] 	12462
scalar tree_4_3_u10_r2_network.node[32].core_layer 	data[32] 	8883
scalar tree_4_3_u10_r2_network.node[32].content_store 	p_hit[32] 	0.28719306692345
scalar tree_4_3_u10_r2_network.node[32].content_store 	hits[32] 	3579
scalar tree_4_3_u10_r2_network.node[32].content_store 	misses[32] 	8883
scalar tree_4_3_u10_r2_network.node[32].content_store 	decision_yes[32] 	711
scalar tree_4_3_u10_r2_network.node[32].content_store 	decision_no[32] 	8172
scalar tree_4_3_u10_r2_network.node[32].content_store 	decision_ratio[32] 	0.080040526849037
scalar tree_4_3_u10_r2_network.node[33].core_layer 	interests[33] 	12549
scalar tree_4_3_u10_r2_network.node[33].core_layer 	data[33] 	8846
scalar tree_4_3_u10_r2_network.node[33].content_store 	p_hit[33] 	0.2950035859431
scalar tree_4_3_u10_r2_network.node[33].content_store 	hits[33] 	3702
scalar tree_4_3_u10_r2_network.node[33].content_store 	misses[33] 	8847
scalar tree_4_3_u10_r2_network.node[33].content_store 	decision_yes[33] 	782
scalar tree_4_3_u10_r2_network.node[33].content_store 	decision_no[33] 	8064
scalar tree_4_3_u10_r2_network.node[33].content_store 	decision_ratio[33] 	0.088401537418042
scalar tree_4_3_u10_r2_network.node[34].core_layer 	interests[34] 	12790
scalar tree_4_3_u10_r2_network.node[34].core_layer 	data[34] 	9095
scalar tree_4_3_u10_r2_network.node[34].content_store 	p_hit[34] 	0.28889757623143
scalar tree_4_3_u10_r2_network.node[34].content_store 	hits[34] 	3695
scalar tree_4_3_u10_r2_network.node[34].content_store 	misses[34] 	9095
scalar tree_4_3_u10_r2_network.node[34].content_store 	decision_yes[34] 	772
scalar tree_4_3_u10_r2_network.node[34].content_store 	decision_no[34] 	8323
scalar tree_4_3_u10_r2_network.node[34].content_store 	decision_ratio[34] 	0.084881803188565
scalar tree_4_3_u10_r2_network.node[35].core_layer 	interests[35] 	12187
scalar tree_4_3_u10_r2_network.node[35].core_layer 	data[35] 	8760
scalar tree_4_3_u10_r2_network.node[35].content_store 	p_hit[35] 	0.28120128005251
scalar tree_4_3_u10_r2_network.node[35].content_store 	hits[35] 	3427
scalar tree_4_3_u10_r2_network.node[35].content_store 	misses[35] 	8760
scalar tree_4_3_u10_r2_network.node[35].content_store 	decision_yes[35] 	439
scalar tree_4_3_u10_r2_network.node[35].content_store 	decision_no[35] 	8321
scalar tree_4_3_u10_r2_network.node[35].content_store 	decision_ratio[35] 	0.050114155251142
scalar tree_4_3_u10_r2_network.node[36].core_layer 	interests[36] 	12523
scalar tree_4_3_u10_r2_network.node[36].core_layer 	data[36] 	8961
scalar tree_4_3_u10_r2_network.node[36].content_store 	p_hit[36] 	0.28443663658868
scalar tree_4_3_u10_r2_network.node[36].content_store 	hits[36] 	3562
scalar tree_4_3_u10_r2_network.node[36].content_store 	misses[36] 	8961
scalar tree_4_3_u10_r2_network.node[36].content_store 	decision_yes[36] 	741
scalar tree_4_3_u10_r2_network.node[36].content_store 	decision_no[36] 	8220
scalar tree_4_3_u10_r2_network.node[36].content_store 	decision_ratio[36] 	0.082691663876799
scalar tree_4_3_u10_r2_network.node[37].core_layer 	interests[37] 	12829
scalar tree_4_3_u10_r2_network.node[37].core_layer 	data[37] 	9009
scalar tree_4_3_u10_r2_network.node[37].content_store 	p_hit[37] 	0.2977628809728
scalar tree_4_3_u10_r2_network.node[37].content_store 	hits[37] 	3820
scalar tree_4_3_u10_r2_network.node[37].content_store 	misses[37] 	9009
scalar tree_4_3_u10_r2_network.node[37].content_store 	decision_yes[37] 	751
scalar tree_4_3_u10_r2_network.node[37].content_store 	decision_no[37] 	8258
scalar tree_4_3_u10_r2_network.node[37].content_store 	decision_ratio[37] 	0.083361083361083
scalar tree_4_3_u10_r2_network.node[38].core_layer 	interests[38] 	12378
scalar tree_4_3_u10_r2_network.node[38].core_layer 	data[38] 	8732
scalar tree_4_3_u10_r2_network.node[38].content_store 	p_hit[38] 	0.29447406689287
scalar tree_4_3_u10_r2_network.node[38].content_store 	hits[38] 	3645
scalar tree_4_3_u10_r2_network.node[38].content_store 	misses[38] 	8733
scalar tree_4_3_u10_r2_network.node[38].content_store 	decision_yes[38] 	722
scalar tree_4_3_u10_r2_network.node[38].content_store 	decision_no[38] 	8010
scalar tree_4_3_u10_r2_network.node[38].content_store 	decision_ratio[38] 	0.082684379294549
scalar tree_4_3_u10_r2_network.node[39].core_layer 	interests[39] 	12365
scalar tree_4_3_u10_r2_network.node[39].core_layer 	data[39] 	8855
scalar tree_4_3_u10_r2_network.node[39].content_store 	p_hit[39] 	0.28386575010109
scalar tree_4_3_u10_r2_network.node[39].content_store 	hits[39] 	3510
scalar tree_4_3_u10_r2_network.node[39].content_store 	misses[39] 	8855
scalar tree_4_3_u10_r2_network.node[39].content_store 	decision_yes[39] 	350
scalar tree_4_3_u10_r2_network.node[39].content_store 	decision_no[39] 	8505
scalar tree_4_3_u10_r2_network.node[39].content_store 	decision_ratio[39] 	0.039525691699605
scalar tree_4_3_u10_r2_network.client[13] 	hdistance[13] 	2.6822556137093
scalar tree_4_3_u10_r2_network.client[13] 	downloads[13] 	11846
scalar tree_4_3_u10_r2_network.client[13] 	avg_time[13] 	0.004153973055
scalar tree_4_3_u10_r2_network.client[14] 	hdistance[14] 	2.6387378480804
scalar tree_4_3_u10_r2_network.client[14] 	downloads[14] 	12138
scalar tree_4_3_u10_r2_network.client[14] 	avg_time[14] 	0.004074803356
scalar tree_4_3_u10_r2_network.client[15] 	hdistance[15] 	2.6483352658605
scalar tree_4_3_u10_r2_network.client[15] 	downloads[15] 	12074
scalar tree_4_3_u10_r2_network.client[15] 	avg_time[15] 	0.004089776686
scalar tree_4_3_u10_r2_network.client[16] 	hdistance[16] 	2.6238690574108
scalar tree_4_3_u10_r2_network.client[16] 	downloads[16] 	12158
scalar tree_4_3_u10_r2_network.client[16] 	avg_time[16] 	0.004052637169
scalar tree_4_3_u10_r2_network.client[17] 	hdistance[17] 	2.6747476418997
scalar tree_4_3_u10_r2_network.client[17] 	downloads[17] 	12086
scalar tree_4_3_u10_r2_network.client[17] 	avg_time[17] 	0.004133491681
scalar tree_4_3_u10_r2_network.client[18] 	hdistance[18] 	2.630109670987
scalar tree_4_3_u10_r2_network.client[18] 	downloads[18] 	12036
scalar tree_4_3_u10_r2_network.client[18] 	avg_time[18] 	0.004062310052
scalar tree_4_3_u10_r2_network.client[19] 	hdistance[19] 	2.6632533154272
scalar tree_4_3_u10_r2_network.client[19] 	downloads[19] 	11914
scalar tree_4_3_u10_r2_network.client[19] 	avg_time[19] 	0.004111705246
scalar tree_4_3_u10_r2_network.client[20] 	hdistance[20] 	2.6581146088278
scalar tree_4_3_u10_r2_network.client[20] 	downloads[20] 	11849
scalar tree_4_3_u10_r2_network.client[20] 	avg_time[20] 	0.004095870112
scalar tree_4_3_u10_r2_network.client[21] 	hdistance[21] 	2.7023563455973
scalar tree_4_3_u10_r2_network.client[21] 	downloads[21] 	12095
scalar tree_4_3_u10_r2_network.client[21] 	avg_time[21] 	0.004177756414
scalar tree_4_3_u10_r2_network.client[22] 	hdistance[22] 	2.6722667576326
scalar tree_4_3_u10_r2_network.client[22] 	downloads[22] 	11726
scalar tree_4_3_u10_r2_network.client[22] 	avg_time[22] 	0.004134058117
scalar tree_4_3_u10_r2_network.client[23] 	hdistance[23] 	2.6344481605351
scalar tree_4_3_u10_r2_network.client[23] 	downloads[23] 	11960
scalar tree_4_3_u10_r2_network.client[23] 	avg_time[23] 	0.004066838852
scalar tree_4_3_u10_r2_network.client[24] 	hdistance[24] 	2.6605450733753
scalar tree_4_3_u10_r2_network.client[24] 	downloads[24] 	11925
scalar tree_4_3_u10_r2_network.client[24] 	avg_time[24] 	0.004103812551
scalar tree_4_3_u10_r2_network.client[25] 	hdistance[25] 	2.6428393109761
scalar tree_4_3_u10_r2_network.client[25] 	downloads[25] 	12017
scalar tree_4_3_u10_r2_network.client[25] 	avg_time[25] 	0.004081560906
scalar tree_4_3_u10_r2_network.client[26] 	hdistance[26] 	2.6825186412593
scalar tree_4_3_u10_r2_network.client[26] 	downloads[26] 	12070
scalar tree_4_3_u10_r2_network.client[26] 	avg_time[26] 	0.004150286969
scalar tree_4_3_u10_r2_network.client[27] 	hdistance[27] 	2.6941600939755
scalar tree_4_3_u10_r2_network.client[27] 	downloads[27] 	11918
scalar tree_4_3_u10_r2_network.client[27] 	avg_time[27] 	0.004158916309
scalar tree_4_3_u10_r2_network.client[28] 	hdistance[28] 	2.6732590992189
scalar tree_4_3_u10_r2_network.client[28] 	downloads[28] 	12034
scalar tree_4_3_u10_r2_network.client[28] 	avg_time[28] 	0.004124810054
scalar tree_4_3_u10_r2_network.client[29] 	hdistance[29] 	2.6318826244642
scalar tree_4_3_u10_r2_network.client[29] 	downloads[29] 	12132
scalar tree_4_3_u10_r2_network.client[29] 	avg_time[29] 	0.004059014472
scalar tree_4_3_u10_r2_network.client[30] 	hdistance[30] 	2.6823050734867
scalar tree_4_3_u10_r2_network.client[30] 	downloads[30] 	12043
scalar tree_4_3_u10_r2_network.client[30] 	avg_time[30] 	0.004144112566
scalar tree_4_3_u10_r2_network.client[31] 	hdistance[31] 	2.678625062573
scalar tree_4_3_u10_r2_network.client[31] 	downloads[31] 	11986
scalar tree_4_3_u10_r2_network.client[31] 	avg_time[31] 	0.004139187544
scalar tree_4_3_u10_r2_network.client[32] 	hdistance[32] 	2.6658240647118
scalar tree_4_3_u10_r2_network.client[32] 	downloads[32] 	11868
scalar tree_4_3_u10_r2_network.client[32] 	avg_time[32] 	0.004120826136
scalar tree_4_3_u10_r2_network.client[33] 	hdistance[33] 	2.6324679647196
scalar tree_4_3_u10_r2_network.client[33] 	downloads[33] 	12018
scalar tree_4_3_u10_r2_network.client[33] 	avg_time[33] 	0.004060672581
scalar tree_4_3_u10_r2_network.client[34] 	hdistance[34] 	2.6576243321003
scalar tree_4_3_u10_r2_network.client[34] 	downloads[34] 	12165
scalar tree_4_3_u10_r2_network.client[34] 	avg_time[34] 	0.004101106698
scalar tree_4_3_u10_r2_network.client[35] 	hdistance[35] 	2.6758094279483
scalar tree_4_3_u10_r2_network.client[35] 	downloads[35] 	11922
scalar tree_4_3_u10_r2_network.client[35] 	avg_time[35] 	0.004136833858
scalar tree_4_3_u10_r2_network.client[36] 	hdistance[36] 	2.6765635395875
scalar tree_4_3_u10_r2_network.client[36] 	downloads[36] 	12024
scalar tree_4_3_u10_r2_network.client[36] 	avg_time[36] 	0.004126410853
scalar tree_4_3_u10_r2_network.client[37] 	hdistance[37] 	2.6346860455622
scalar tree_4_3_u10_r2_network.client[37] 	downloads[37] 	12247
scalar tree_4_3_u10_r2_network.client[37] 	avg_time[37] 	0.004064502548
scalar tree_4_3_u10_r2_network.client[38] 	hdistance[38] 	2.6533672172808
scalar tree_4_3_u10_r2_network.client[38] 	downloads[38] 	11805
scalar tree_4_3_u10_r2_network.client[38] 	avg_time[38] 	0.004092182493
scalar tree_4_3_u10_r2_network.client[39] 	hdistance[39] 	2.711582757486
scalar tree_4_3_u10_r2_network.client[39] 	downloads[39] 	12156
scalar tree_4_3_u10_r2_network.client[39] 	avg_time[39] 	0.004176864361
