version 2
run General-200-20160819-14:18:38-2054
attr a 0.9
attr cd lcd
attr configname General
attr cr lru
attr datetime 20160819-14:18:38
attr experiment General
attr fsize 1
attr inifile hw5115/scenario_A/NRR-LCD.ini
attr iterationvars "$name=tree_4_3, $un=10, $rep=1, $cd=lcd, $cr=lru, $fsize=1, $a=0.9, $sl=nrr, $ttl=1000, $variance=0.05"
attr iterationvars2 "$name=tree_4_3, $un=10, $rep=1, $cd=lcd, $cr=lru, $fsize=1, $a=0.9, $sl=nrr, $ttl=1000, $variance=0.05, $repetition=0"
attr measurement "$name=tree_4_3, $un=10, $rep=1, $cd=lcd, $cr=lru, $fsize=1, $a=0.9, $sl=nrr, $ttl=1000, $variance=0.05"
attr name tree_4_3
attr network networks.${name}_u${un}_r${rep}_network
attr processid 2054
attr rep 1
attr repetition 0
attr replication #0
attr resultdir results
attr runnumber 200
attr seedset 1
attr sl nrr
attr ttl 1000
attr un 10
attr variance 0.05

scalar . 	a 	0.9
scalar . 	fsize 	1
scalar . 	rep 	1
scalar . 	ttl 	1000
scalar . 	un 	10
scalar . 	variance 	0.05
scalar tree_4_3_u10_r1_network.content_distribution 	repo-0 	0
scalar tree_4_3_u10_r1_network.content_distribution 	client-0 	13
scalar tree_4_3_u10_r1_network.content_distribution 	client-1 	14
scalar tree_4_3_u10_r1_network.content_distribution 	client-2 	15
scalar tree_4_3_u10_r1_network.content_distribution 	client-3 	16
scalar tree_4_3_u10_r1_network.content_distribution 	client-4 	17
scalar tree_4_3_u10_r1_network.content_distribution 	client-5 	18
scalar tree_4_3_u10_r1_network.content_distribution 	client-6 	19
scalar tree_4_3_u10_r1_network.content_distribution 	client-7 	20
scalar tree_4_3_u10_r1_network.content_distribution 	client-8 	21
scalar tree_4_3_u10_r1_network.content_distribution 	client-9 	22
scalar tree_4_3_u10_r1_network.content_distribution 	client-10 	23
scalar tree_4_3_u10_r1_network.content_distribution 	client-11 	24
scalar tree_4_3_u10_r1_network.content_distribution 	client-12 	25
scalar tree_4_3_u10_r1_network.content_distribution 	client-13 	26
scalar tree_4_3_u10_r1_network.content_distribution 	client-14 	27
scalar tree_4_3_u10_r1_network.content_distribution 	client-15 	28
scalar tree_4_3_u10_r1_network.content_distribution 	client-16 	29
scalar tree_4_3_u10_r1_network.content_distribution 	client-17 	30
scalar tree_4_3_u10_r1_network.content_distribution 	client-18 	31
scalar tree_4_3_u10_r1_network.content_distribution 	client-19 	32
scalar tree_4_3_u10_r1_network.content_distribution 	client-20 	33
scalar tree_4_3_u10_r1_network.content_distribution 	client-21 	34
scalar tree_4_3_u10_r1_network.content_distribution 	client-22 	35
scalar tree_4_3_u10_r1_network.content_distribution 	client-23 	36
scalar tree_4_3_u10_r1_network.content_distribution 	client-24 	37
scalar tree_4_3_u10_r1_network.content_distribution 	client-25 	38
scalar tree_4_3_u10_r1_network.content_distribution 	client-26 	39
scalar tree_4_3_u10_r1_network.content_distribution 	repo-0_card 	100000
scalar tree_4_3_u10_r1_network.content_distribution 	repo-0_price 	0
scalar tree_4_3_u10_r1_network.statistics 	stabilization_time 	858.3
scalar tree_4_3_u10_r1_network.statistics 	p_hit 	0.22764030346719
scalar tree_4_3_u10_r1_network.statistics 	interests 	24785.575
scalar tree_4_3_u10_r1_network.statistics 	data 	16682.075
scalar tree_4_3_u10_r1_network.statistics 	hdistance 	2.6659293128134
scalar tree_4_3_u10_r1_network.statistics 	avg_time 	0.004117441615
scalar tree_4_3_u10_r1_network.statistics 	downloads 	324130
scalar tree_4_3_u10_r1_network.statistics 	total_cost 	0
scalar tree_4_3_u10_r1_network.statistics 	total_replicas 	100000
scalar tree_4_3_u10_r1_network.statistics 	inner_hit 	0.3928300373307
scalar tree_4_3_u10_r1_network.node[0].core_layer 	interests[0] 	198001
scalar tree_4_3_u10_r1_network.node[0].core_layer 	repo_load[0] 	196802
scalar tree_4_3_u10_r1_network.node[0].core_layer 	data[0] 	0
scalar tree_4_3_u10_r1_network.node[0].core_layer 	repo_int[0] 	196802
scalar tree_4_3_u10_r1_network.node[0].content_store 	p_hit[0] 	0.0060555249720961
scalar tree_4_3_u10_r1_network.node[0].content_store 	hits[0] 	1199
scalar tree_4_3_u10_r1_network.node[0].content_store 	misses[0] 	196802
scalar tree_4_3_u10_r1_network.node[0].content_store 	decision_yes[0] 	196802
scalar tree_4_3_u10_r1_network.node[0].content_store 	decision_no[0] 	0
scalar tree_4_3_u10_r1_network.node[0].content_store 	decision_ratio[0] 	1
scalar tree_4_3_u10_r1_network.node[1].core_layer 	interests[1] 	144134
scalar tree_4_3_u10_r1_network.node[1].core_layer 	data[1] 	141660
scalar tree_4_3_u10_r1_network.node[1].content_store 	p_hit[1] 	0.017129893016221
scalar tree_4_3_u10_r1_network.node[1].content_store 	hits[1] 	2469
scalar tree_4_3_u10_r1_network.node[1].content_store 	misses[1] 	141665
scalar tree_4_3_u10_r1_network.node[1].content_store 	decision_yes[1] 	2561
scalar tree_4_3_u10_r1_network.node[1].content_store 	decision_no[1] 	139099
scalar tree_4_3_u10_r1_network.node[1].content_store 	decision_ratio[1] 	0.018078497811662
scalar tree_4_3_u10_r1_network.node[2].core_layer 	interests[2] 	55414
scalar tree_4_3_u10_r1_network.node[2].core_layer 	data[2] 	52951
scalar tree_4_3_u10_r1_network.node[2].content_store 	p_hit[2] 	0.044447251597069
scalar tree_4_3_u10_r1_network.node[2].content_store 	hits[2] 	2463
scalar tree_4_3_u10_r1_network.node[2].content_store 	misses[2] 	52951
scalar tree_4_3_u10_r1_network.node[2].content_store 	decision_yes[2] 	1654
scalar tree_4_3_u10_r1_network.node[2].content_store 	decision_no[2] 	51297
scalar tree_4_3_u10_r1_network.node[2].content_store 	decision_ratio[2] 	0.031236426129818
scalar tree_4_3_u10_r1_network.node[3].core_layer 	interests[3] 	11260
scalar tree_4_3_u10_r1_network.node[3].core_layer 	data[3] 	8773
scalar tree_4_3_u10_r1_network.node[3].content_store 	p_hit[3] 	0.2208703374778
scalar tree_4_3_u10_r1_network.node[3].content_store 	hits[3] 	2487
scalar tree_4_3_u10_r1_network.node[3].content_store 	misses[3] 	8773
scalar tree_4_3_u10_r1_network.node[3].content_store 	decision_yes[3] 	1187
scalar tree_4_3_u10_r1_network.node[3].content_store 	decision_no[3] 	7586
scalar tree_4_3_u10_r1_network.node[3].content_store 	decision_ratio[3] 	0.13530149321783
scalar tree_4_3_u10_r1_network.node[4].core_layer 	interests[4] 	41446
scalar tree_4_3_u10_r1_network.node[4].core_layer 	data[4] 	39327
scalar tree_4_3_u10_r1_network.node[4].content_store 	p_hit[4] 	0.051054384017758
scalar tree_4_3_u10_r1_network.node[4].content_store 	hits[4] 	2116
scalar tree_4_3_u10_r1_network.node[4].content_store 	misses[4] 	39330
scalar tree_4_3_u10_r1_network.node[4].content_store 	decision_yes[4] 	2202
scalar tree_4_3_u10_r1_network.node[4].content_store 	decision_no[4] 	37125
scalar tree_4_3_u10_r1_network.node[4].content_store 	decision_ratio[4] 	0.055992066519185
scalar tree_4_3_u10_r1_network.node[5].core_layer 	interests[5] 	27762
scalar tree_4_3_u10_r1_network.node[5].core_layer 	data[5] 	25310
scalar tree_4_3_u10_r1_network.node[5].content_store 	p_hit[5] 	0.088322166990851
scalar tree_4_3_u10_r1_network.node[5].content_store 	hits[5] 	2452
scalar tree_4_3_u10_r1_network.node[5].content_store 	misses[5] 	25310
scalar tree_4_3_u10_r1_network.node[5].content_store 	decision_yes[5] 	2684
scalar tree_4_3_u10_r1_network.node[5].content_store 	decision_no[5] 	22626
scalar tree_4_3_u10_r1_network.node[5].content_store 	decision_ratio[5] 	0.10604504148558
scalar tree_4_3_u10_r1_network.node[6].core_layer 	interests[6] 	12697
scalar tree_4_3_u10_r1_network.node[6].core_layer 	data[6] 	10173
scalar tree_4_3_u10_r1_network.node[6].content_store 	p_hit[6] 	0.19878711506655
scalar tree_4_3_u10_r1_network.node[6].content_store 	hits[6] 	2524
scalar tree_4_3_u10_r1_network.node[6].content_store 	misses[6] 	10173
scalar tree_4_3_u10_r1_network.node[6].content_store 	decision_yes[6] 	2231
scalar tree_4_3_u10_r1_network.node[6].content_store 	decision_no[6] 	7942
scalar tree_4_3_u10_r1_network.node[6].content_store 	decision_ratio[6] 	0.21930600609456
scalar tree_4_3_u10_r1_network.node[7].core_layer 	interests[7] 	42845
scalar tree_4_3_u10_r1_network.node[7].core_layer 	data[7] 	40427
scalar tree_4_3_u10_r1_network.node[7].content_store 	p_hit[7] 	0.056389310304586
scalar tree_4_3_u10_r1_network.node[7].content_store 	hits[7] 	2416
scalar tree_4_3_u10_r1_network.node[7].content_store 	misses[7] 	40429
scalar tree_4_3_u10_r1_network.node[7].content_store 	decision_yes[7] 	2967
scalar tree_4_3_u10_r1_network.node[7].content_store 	decision_no[7] 	37460
scalar tree_4_3_u10_r1_network.node[7].content_store 	decision_ratio[7] 	0.073391545254409
scalar tree_4_3_u10_r1_network.node[8].core_layer 	interests[8] 	26240
scalar tree_4_3_u10_r1_network.node[8].core_layer 	data[8] 	24161
scalar tree_4_3_u10_r1_network.node[8].content_store 	p_hit[8] 	0.079192073170732
scalar tree_4_3_u10_r1_network.node[8].content_store 	hits[8] 	2078
scalar tree_4_3_u10_r1_network.node[8].content_store 	misses[8] 	24162
scalar tree_4_3_u10_r1_network.node[8].content_store 	decision_yes[8] 	1741
scalar tree_4_3_u10_r1_network.node[8].content_store 	decision_no[8] 	22420
scalar tree_4_3_u10_r1_network.node[8].content_store 	decision_ratio[8] 	0.07205827573362
scalar tree_4_3_u10_r1_network.node[9].core_layer 	interests[9] 	12461
scalar tree_4_3_u10_r1_network.node[9].core_layer 	data[9] 	10058
scalar tree_4_3_u10_r1_network.node[9].content_store 	p_hit[9] 	0.19284166599791
scalar tree_4_3_u10_r1_network.node[9].content_store 	hits[9] 	2403
scalar tree_4_3_u10_r1_network.node[9].content_store 	misses[9] 	10058
scalar tree_4_3_u10_r1_network.node[9].content_store 	decision_yes[9] 	2235
scalar tree_4_3_u10_r1_network.node[9].content_store 	decision_no[9] 	7823
scalar tree_4_3_u10_r1_network.node[9].content_store 	decision_ratio[9] 	0.22221117518393
scalar tree_4_3_u10_r1_network.node[10].core_layer 	interests[10] 	43009
scalar tree_4_3_u10_r1_network.node[10].core_layer 	data[10] 	40536
scalar tree_4_3_u10_r1_network.node[10].content_store 	p_hit[10] 	0.057453091213467
scalar tree_4_3_u10_r1_network.node[10].content_store 	hits[10] 	2471
scalar tree_4_3_u10_r1_network.node[10].content_store 	misses[10] 	40538
scalar tree_4_3_u10_r1_network.node[10].content_store 	decision_yes[10] 	2906
scalar tree_4_3_u10_r1_network.node[10].content_store 	decision_no[10] 	37630
scalar tree_4_3_u10_r1_network.node[10].content_store 	decision_ratio[10] 	0.071689362541938
scalar tree_4_3_u10_r1_network.node[11].core_layer 	interests[11] 	27626
scalar tree_4_3_u10_r1_network.node[11].core_layer 	data[11] 	25174
scalar tree_4_3_u10_r1_network.node[11].content_store 	p_hit[11] 	0.088756968073554
scalar tree_4_3_u10_r1_network.node[11].content_store 	hits[11] 	2452
scalar tree_4_3_u10_r1_network.node[11].content_store 	misses[11] 	25174
scalar tree_4_3_u10_r1_network.node[11].content_store 	decision_yes[11] 	2530
scalar tree_4_3_u10_r1_network.node[11].content_store 	decision_no[11] 	22644
scalar tree_4_3_u10_r1_network.node[11].content_store 	decision_ratio[11] 	0.10050051640582
scalar tree_4_3_u10_r1_network.node[12].core_layer 	interests[12] 	11052
scalar tree_4_3_u10_r1_network.node[12].core_layer 	data[12] 	8982
scalar tree_4_3_u10_r1_network.node[12].content_store 	p_hit[12] 	0.18729641693811
scalar tree_4_3_u10_r1_network.node[12].content_store 	hits[12] 	2070
scalar tree_4_3_u10_r1_network.node[12].content_store 	misses[12] 	8982
scalar tree_4_3_u10_r1_network.node[12].content_store 	decision_yes[12] 	1266
scalar tree_4_3_u10_r1_network.node[12].content_store 	decision_no[12] 	7716
scalar tree_4_3_u10_r1_network.node[12].content_store 	decision_ratio[12] 	0.14094856379426
scalar tree_4_3_u10_r1_network.node[13].core_layer 	interests[13] 	12294
scalar tree_4_3_u10_r1_network.node[13].core_layer 	data[13] 	8715
scalar tree_4_3_u10_r1_network.node[13].content_store 	p_hit[13] 	0.29111761835041
scalar tree_4_3_u10_r1_network.node[13].content_store 	hits[13] 	3579
scalar tree_4_3_u10_r1_network.node[13].content_store 	misses[13] 	8715
scalar tree_4_3_u10_r1_network.node[13].content_store 	decision_yes[13] 	398
scalar tree_4_3_u10_r1_network.node[13].content_store 	decision_no[13] 	8317
scalar tree_4_3_u10_r1_network.node[13].content_store 	decision_ratio[13] 	0.045668387837063
scalar tree_4_3_u10_r1_network.node[14].core_layer 	interests[14] 	12606
scalar tree_4_3_u10_r1_network.node[14].core_layer 	data[14] 	8877
scalar tree_4_3_u10_r1_network.node[14].content_store 	p_hit[14] 	0.29581151832461
scalar tree_4_3_u10_r1_network.node[14].content_store 	hits[14] 	3729
scalar tree_4_3_u10_r1_network.node[14].content_store 	misses[14] 	8877
scalar tree_4_3_u10_r1_network.node[14].content_store 	decision_yes[14] 	717
scalar tree_4_3_u10_r1_network.node[14].content_store 	decision_no[14] 	8160
scalar tree_4_3_u10_r1_network.node[14].content_store 	decision_ratio[14] 	0.080770530584657
scalar tree_4_3_u10_r1_network.node[15].core_layer 	interests[15] 	12587
scalar tree_4_3_u10_r1_network.node[15].core_layer 	data[15] 	8863
scalar tree_4_3_u10_r1_network.node[15].content_store 	p_hit[15] 	0.29586080877095
scalar tree_4_3_u10_r1_network.node[15].content_store 	hits[15] 	3724
scalar tree_4_3_u10_r1_network.node[15].content_store 	misses[15] 	8863
scalar tree_4_3_u10_r1_network.node[15].content_store 	decision_yes[15] 	741
scalar tree_4_3_u10_r1_network.node[15].content_store 	decision_no[15] 	8122
scalar tree_4_3_u10_r1_network.node[15].content_store 	decision_ratio[15] 	0.083606002482229
scalar tree_4_3_u10_r1_network.node[16].core_layer 	interests[16] 	12699
scalar tree_4_3_u10_r1_network.node[16].core_layer 	data[16] 	8962
scalar tree_4_3_u10_r1_network.node[16].content_store 	p_hit[16] 	0.29427513977479
scalar tree_4_3_u10_r1_network.node[16].content_store 	hits[16] 	3737
scalar tree_4_3_u10_r1_network.node[16].content_store 	misses[16] 	8962
scalar tree_4_3_u10_r1_network.node[16].content_store 	decision_yes[16] 	705
scalar tree_4_3_u10_r1_network.node[16].content_store 	decision_no[16] 	8257
scalar tree_4_3_u10_r1_network.node[16].content_store 	decision_ratio[16] 	0.078665476456148
scalar tree_4_3_u10_r1_network.node[17].core_layer 	interests[17] 	12327
scalar tree_4_3_u10_r1_network.node[17].core_layer 	data[17] 	8799
scalar tree_4_3_u10_r1_network.node[17].content_store 	p_hit[17] 	0.28620102214651
scalar tree_4_3_u10_r1_network.node[17].content_store 	hits[17] 	3528
scalar tree_4_3_u10_r1_network.node[17].content_store 	misses[17] 	8799
scalar tree_4_3_u10_r1_network.node[17].content_store 	decision_yes[17] 	350
scalar tree_4_3_u10_r1_network.node[17].content_store 	decision_no[17] 	8449
scalar tree_4_3_u10_r1_network.node[17].content_store 	decision_ratio[17] 	0.039777247414479
scalar tree_4_3_u10_r1_network.node[18].core_layer 	interests[18] 	12522
scalar tree_4_3_u10_r1_network.node[18].core_layer 	data[18] 	8897
scalar tree_4_3_u10_r1_network.node[18].content_store 	p_hit[18] 	0.28949049672576
scalar tree_4_3_u10_r1_network.node[18].content_store 	hits[18] 	3625
scalar tree_4_3_u10_r1_network.node[18].content_store 	misses[18] 	8897
scalar tree_4_3_u10_r1_network.node[18].content_store 	decision_yes[18] 	790
scalar tree_4_3_u10_r1_network.node[18].content_store 	decision_no[18] 	8107
scalar tree_4_3_u10_r1_network.node[18].content_store 	decision_ratio[18] 	0.088793975497359
scalar tree_4_3_u10_r1_network.node[19].core_layer 	interests[19] 	12488
scalar tree_4_3_u10_r1_network.node[19].core_layer 	data[19] 	8869
scalar tree_4_3_u10_r1_network.node[19].content_store 	p_hit[19] 	0.28971812940423
scalar tree_4_3_u10_r1_network.node[19].content_store 	hits[19] 	3618
scalar tree_4_3_u10_r1_network.node[19].content_store 	misses[19] 	8870
scalar tree_4_3_u10_r1_network.node[19].content_store 	decision_yes[19] 	763
scalar tree_4_3_u10_r1_network.node[19].content_store 	decision_no[19] 	8106
scalar tree_4_3_u10_r1_network.node[19].content_store 	decision_ratio[19] 	0.08602999210734
scalar tree_4_3_u10_r1_network.node[20].core_layer 	interests[20] 	12788
scalar tree_4_3_u10_r1_network.node[20].core_layer 	data[20] 	9025
scalar tree_4_3_u10_r1_network.node[20].content_store 	p_hit[20] 	0.29426024397873
scalar tree_4_3_u10_r1_network.node[20].content_store 	hits[20] 	3763
scalar tree_4_3_u10_r1_network.node[20].content_store 	misses[20] 	9025
scalar tree_4_3_u10_r1_network.node[20].content_store 	decision_yes[20] 	739
scalar tree_4_3_u10_r1_network.node[20].content_store 	decision_no[20] 	8286
scalar tree_4_3_u10_r1_network.node[20].content_store 	decision_ratio[20] 	0.081883656509695
scalar tree_4_3_u10_r1_network.node[21].core_layer 	interests[21] 	12396
scalar tree_4_3_u10_r1_network.node[21].core_layer 	data[21] 	8947
scalar tree_4_3_u10_r1_network.node[21].content_store 	p_hit[21] 	0.27823491448854
scalar tree_4_3_u10_r1_network.node[21].content_store 	hits[21] 	3449
scalar tree_4_3_u10_r1_network.node[21].content_store 	misses[21] 	8947
scalar tree_4_3_u10_r1_network.node[21].content_store 	decision_yes[21] 	403
scalar tree_4_3_u10_r1_network.node[21].content_store 	decision_no[21] 	8544
scalar tree_4_3_u10_r1_network.node[21].content_store 	decision_ratio[21] 	0.045043031183637
scalar tree_4_3_u10_r1_network.node[22].core_layer 	interests[22] 	12381
scalar tree_4_3_u10_r1_network.node[22].core_layer 	data[22] 	8816
scalar tree_4_3_u10_r1_network.node[22].content_store 	p_hit[22] 	0.28794120022615
scalar tree_4_3_u10_r1_network.node[22].content_store 	hits[22] 	3565
scalar tree_4_3_u10_r1_network.node[22].content_store 	misses[22] 	8816
scalar tree_4_3_u10_r1_network.node[22].content_store 	decision_yes[22] 	384
scalar tree_4_3_u10_r1_network.node[22].content_store 	decision_no[22] 	8432
scalar tree_4_3_u10_r1_network.node[22].content_store 	decision_ratio[22] 	0.043557168784029
scalar tree_4_3_u10_r1_network.node[23].core_layer 	interests[23] 	12396
scalar tree_4_3_u10_r1_network.node[23].core_layer 	data[23] 	8772
scalar tree_4_3_u10_r1_network.node[23].content_store 	p_hit[23] 	0.29235237173282
scalar tree_4_3_u10_r1_network.node[23].content_store 	hits[23] 	3624
scalar tree_4_3_u10_r1_network.node[23].content_store 	misses[23] 	8772
scalar tree_4_3_u10_r1_network.node[23].content_store 	decision_yes[23] 	662
scalar tree_4_3_u10_r1_network.node[23].content_store 	decision_no[23] 	8110
scalar tree_4_3_u10_r1_network.node[23].content_store 	decision_ratio[23] 	0.07546739626083
scalar tree_4_3_u10_r1_network.node[24].core_layer 	interests[24] 	12686
scalar tree_4_3_u10_r1_network.node[24].core_layer 	data[24] 	8980
scalar tree_4_3_u10_r1_network.node[24].content_store 	p_hit[24] 	0.29213306006621
scalar tree_4_3_u10_r1_network.node[24].content_store 	hits[24] 	3706
scalar tree_4_3_u10_r1_network.node[24].content_store 	misses[24] 	8980
scalar tree_4_3_u10_r1_network.node[24].content_store 	decision_yes[24] 	749
scalar tree_4_3_u10_r1_network.node[24].content_store 	decision_no[24] 	8231
scalar tree_4_3_u10_r1_network.node[24].content_store 	decision_ratio[24] 	0.083407572383074
scalar tree_4_3_u10_r1_network.node[25].core_layer 	interests[25] 	12735
scalar tree_4_3_u10_r1_network.node[25].core_layer 	data[25] 	8989
scalar tree_4_3_u10_r1_network.node[25].content_store 	p_hit[25] 	0.29414998036906
scalar tree_4_3_u10_r1_network.node[25].content_store 	hits[25] 	3746
scalar tree_4_3_u10_r1_network.node[25].content_store 	misses[25] 	8989
scalar tree_4_3_u10_r1_network.node[25].content_store 	decision_yes[25] 	709
scalar tree_4_3_u10_r1_network.node[25].content_store 	decision_no[25] 	8280
scalar tree_4_3_u10_r1_network.node[25].content_store 	decision_ratio[25] 	0.078874179552787
scalar tree_4_3_u10_r1_network.node[26].core_layer 	interests[26] 	12363
scalar tree_4_3_u10_r1_network.node[26].core_layer 	data[26] 	8828
scalar tree_4_3_u10_r1_network.node[26].content_store 	p_hit[26] 	0.28593383482973
scalar tree_4_3_u10_r1_network.node[26].content_store 	hits[26] 	3535
scalar tree_4_3_u10_r1_network.node[26].content_store 	misses[26] 	8828
scalar tree_4_3_u10_r1_network.node[26].content_store 	decision_yes[26] 	414
scalar tree_4_3_u10_r1_network.node[26].content_store 	decision_no[26] 	8414
scalar tree_4_3_u10_r1_network.node[26].content_store 	decision_ratio[26] 	0.046896239238786
scalar tree_4_3_u10_r1_network.node[27].core_layer 	interests[27] 	12540
scalar tree_4_3_u10_r1_network.node[27].core_layer 	data[27] 	8957
scalar tree_4_3_u10_r1_network.node[27].content_store 	p_hit[27] 	0.28572567783094
scalar tree_4_3_u10_r1_network.node[27].content_store 	hits[27] 	3583
scalar tree_4_3_u10_r1_network.node[27].content_store 	misses[27] 	8957
scalar tree_4_3_u10_r1_network.node[27].content_store 	decision_yes[27] 	737
scalar tree_4_3_u10_r1_network.node[27].content_store 	decision_no[27] 	8220
scalar tree_4_3_u10_r1_network.node[27].content_store 	decision_ratio[27] 	0.08228201406721
scalar tree_4_3_u10_r1_network.node[28].core_layer 	interests[28] 	12719
scalar tree_4_3_u10_r1_network.node[28].core_layer 	data[28] 	8927
scalar tree_4_3_u10_r1_network.node[28].content_store 	p_hit[28] 	0.29813664596273
scalar tree_4_3_u10_r1_network.node[28].content_store 	hits[28] 	3792
scalar tree_4_3_u10_r1_network.node[28].content_store 	misses[28] 	8927
scalar tree_4_3_u10_r1_network.node[28].content_store 	decision_yes[28] 	746
scalar tree_4_3_u10_r1_network.node[28].content_store 	decision_no[28] 	8181
scalar tree_4_3_u10_r1_network.node[28].content_store 	decision_ratio[28] 	0.083566707740562
scalar tree_4_3_u10_r1_network.node[29].core_layer 	interests[29] 	12425
scalar tree_4_3_u10_r1_network.node[29].core_layer 	data[29] 	8737
scalar tree_4_3_u10_r1_network.node[29].content_store 	p_hit[29] 	0.29682092555332
scalar tree_4_3_u10_r1_network.node[29].content_store 	hits[29] 	3688
scalar tree_4_3_u10_r1_network.node[29].content_store 	misses[29] 	8737
scalar tree_4_3_u10_r1_network.node[29].content_store 	decision_yes[29] 	740
scalar tree_4_3_u10_r1_network.node[29].content_store 	decision_no[29] 	7997
scalar tree_4_3_u10_r1_network.node[29].content_store 	decision_ratio[29] 	0.084697264507268
scalar tree_4_3_u10_r1_network.node[30].core_layer 	interests[30] 	12284
scalar tree_4_3_u10_r1_network.node[30].core_layer 	data[30] 	8803
scalar tree_4_3_u10_r1_network.node[30].content_store 	p_hit[30] 	0.28337675024422
scalar tree_4_3_u10_r1_network.node[30].content_store 	hits[30] 	3481
scalar tree_4_3_u10_r1_network.node[30].content_store 	misses[30] 	8803
scalar tree_4_3_u10_r1_network.node[30].content_store 	decision_yes[30] 	392
scalar tree_4_3_u10_r1_network.node[30].content_store 	decision_no[30] 	8411
scalar tree_4_3_u10_r1_network.node[30].content_store 	decision_ratio[30] 	0.044530273770306
scalar tree_4_3_u10_r1_network.node[31].core_layer 	interests[31] 	12177
scalar tree_4_3_u10_r1_network.node[31].core_layer 	data[31] 	8763
scalar tree_4_3_u10_r1_network.node[31].content_store 	p_hit[31] 	0.28036462182804
scalar tree_4_3_u10_r1_network.node[31].content_store 	hits[31] 	3414
scalar tree_4_3_u10_r1_network.node[31].content_store 	misses[31] 	8763
scalar tree_4_3_u10_r1_network.node[31].content_store 	decision_yes[31] 	402
scalar tree_4_3_u10_r1_network.node[31].content_store 	decision_no[31] 	8361
scalar tree_4_3_u10_r1_network.node[31].content_store 	decision_ratio[31] 	0.045874700445053
scalar tree_4_3_u10_r1_network.node[32].core_layer 	interests[32] 	12710
scalar tree_4_3_u10_r1_network.node[32].core_layer 	data[32] 	8966
scalar tree_4_3_u10_r1_network.node[32].content_store 	p_hit[32] 	0.29457120377655
scalar tree_4_3_u10_r1_network.node[32].content_store 	hits[32] 	3744
scalar tree_4_3_u10_r1_network.node[32].content_store 	misses[32] 	8966
scalar tree_4_3_u10_r1_network.node[32].content_store 	decision_yes[32] 	771
scalar tree_4_3_u10_r1_network.node[32].content_store 	decision_no[32] 	8195
scalar tree_4_3_u10_r1_network.node[32].content_store 	decision_ratio[32] 	0.085991523533348
scalar tree_4_3_u10_r1_network.node[33].core_layer 	interests[33] 	12609
scalar tree_4_3_u10_r1_network.node[33].core_layer 	data[33] 	8990
scalar tree_4_3_u10_r1_network.node[33].content_store 	p_hit[33] 	0.28701720992942
scalar tree_4_3_u10_r1_network.node[33].content_store 	hits[33] 	3619
scalar tree_4_3_u10_r1_network.node[33].content_store 	misses[33] 	8990
scalar tree_4_3_u10_r1_network.node[33].content_store 	decision_yes[33] 	735
scalar tree_4_3_u10_r1_network.node[33].content_store 	decision_no[33] 	8255
scalar tree_4_3_u10_r1_network.node[33].content_store 	decision_ratio[33] 	0.081757508342603
scalar tree_4_3_u10_r1_network.node[34].core_layer 	interests[34] 	12670
scalar tree_4_3_u10_r1_network.node[34].core_layer 	data[34] 	8968
scalar tree_4_3_u10_r1_network.node[34].content_store 	p_hit[34] 	0.2921862667719
scalar tree_4_3_u10_r1_network.node[34].content_store 	hits[34] 	3702
scalar tree_4_3_u10_r1_network.node[34].content_store 	misses[34] 	8968
scalar tree_4_3_u10_r1_network.node[34].content_store 	decision_yes[34] 	760
scalar tree_4_3_u10_r1_network.node[34].content_store 	decision_no[34] 	8208
scalar tree_4_3_u10_r1_network.node[34].content_store 	decision_ratio[34] 	0.084745762711864
scalar tree_4_3_u10_r1_network.node[35].core_layer 	interests[35] 	12307
scalar tree_4_3_u10_r1_network.node[35].core_layer 	data[35] 	8811
scalar tree_4_3_u10_r1_network.node[35].content_store 	p_hit[35] 	0.2840659787113
scalar tree_4_3_u10_r1_network.node[35].content_store 	hits[35] 	3496
scalar tree_4_3_u10_r1_network.node[35].content_store 	misses[35] 	8811
scalar tree_4_3_u10_r1_network.node[35].content_store 	decision_yes[35] 	398
scalar tree_4_3_u10_r1_network.node[35].content_store 	decision_no[35] 	8413
scalar tree_4_3_u10_r1_network.node[35].content_store 	decision_ratio[35] 	0.045170809215753
scalar tree_4_3_u10_r1_network.node[36].core_layer 	interests[36] 	12438
scalar tree_4_3_u10_r1_network.node[36].core_layer 	data[36] 	8891
scalar tree_4_3_u10_r1_network.node[36].content_store 	p_hit[36] 	0.28517446534813
scalar tree_4_3_u10_r1_network.node[36].content_store 	hits[36] 	3547
scalar tree_4_3_u10_r1_network.node[36].content_store 	misses[36] 	8891
scalar tree_4_3_u10_r1_network.node[36].content_store 	decision_yes[36] 	740
scalar tree_4_3_u10_r1_network.node[36].content_store 	decision_no[36] 	8151
scalar tree_4_3_u10_r1_network.node[36].content_store 	decision_ratio[36] 	0.083230232819705
scalar tree_4_3_u10_r1_network.node[37].core_layer 	interests[37] 	12690
scalar tree_4_3_u10_r1_network.node[37].core_layer 	data[37] 	9032
scalar tree_4_3_u10_r1_network.node[37].content_store 	p_hit[37] 	0.28810086682427
scalar tree_4_3_u10_r1_network.node[37].content_store 	hits[37] 	3656
scalar tree_4_3_u10_r1_network.node[37].content_store 	misses[37] 	9034
scalar tree_4_3_u10_r1_network.node[37].content_store 	decision_yes[37] 	746
scalar tree_4_3_u10_r1_network.node[37].content_store 	decision_no[37] 	8286
scalar tree_4_3_u10_r1_network.node[37].content_store 	decision_ratio[37] 	0.0825952170062
scalar tree_4_3_u10_r1_network.node[38].core_layer 	interests[38] 	12514
scalar tree_4_3_u10_r1_network.node[38].core_layer 	data[38] 	8901
scalar tree_4_3_u10_r1_network.node[38].content_store 	p_hit[38] 	0.28871663736615
scalar tree_4_3_u10_r1_network.node[38].content_store 	hits[38] 	3613
scalar tree_4_3_u10_r1_network.node[38].content_store 	misses[38] 	8901
scalar tree_4_3_u10_r1_network.node[38].content_store 	decision_yes[38] 	745
scalar tree_4_3_u10_r1_network.node[38].content_store 	decision_no[38] 	8156
scalar tree_4_3_u10_r1_network.node[38].content_store 	decision_ratio[38] 	0.083698460847096
scalar tree_4_3_u10_r1_network.node[39].core_layer 	interests[39] 	12125
scalar tree_4_3_u10_r1_network.node[39].core_layer 	data[39] 	8666
scalar tree_4_3_u10_r1_network.node[39].content_store 	p_hit[39] 	0.28527835051546
scalar tree_4_3_u10_r1_network.node[39].content_store 	hits[39] 	3459
scalar tree_4_3_u10_r1_network.node[39].content_store 	misses[39] 	8666
scalar tree_4_3_u10_r1_network.node[39].content_store 	decision_yes[39] 	343
scalar tree_4_3_u10_r1_network.node[39].content_store 	decision_no[39] 	8323
scalar tree_4_3_u10_r1_network.node[39].content_store 	decision_ratio[39] 	0.039579967689822
scalar tree_4_3_u10_r1_network.client[13] 	hdistance[13] 	2.6661389768372
scalar tree_4_3_u10_r1_network.client[13] 	downloads[13] 	12002
scalar tree_4_3_u10_r1_network.client[13] 	avg_time[13] 	0.004130808526
scalar tree_4_3_u10_r1_network.client[14] 	hdistance[14] 	2.6511822207369
scalar tree_4_3_u10_r1_network.client[14] 	downloads[14] 	11969
scalar tree_4_3_u10_r1_network.client[14] 	avg_time[14] 	0.004094215312
scalar tree_4_3_u10_r1_network.client[15] 	hdistance[15] 	2.6397064954557
scalar tree_4_3_u10_r1_network.client[15] 	downloads[15] 	11993
scalar tree_4_3_u10_r1_network.client[15] 	avg_time[15] 	0.004077895421
scalar tree_4_3_u10_r1_network.client[16] 	hdistance[16] 	2.6589327146172
scalar tree_4_3_u10_r1_network.client[16] 	downloads[16] 	12068
scalar tree_4_3_u10_r1_network.client[16] 	avg_time[16] 	0.0041065904
scalar tree_4_3_u10_r1_network.client[17] 	hdistance[17] 	2.6954310488578
scalar tree_4_3_u10_r1_network.client[17] 	downloads[17] 	11994
scalar tree_4_3_u10_r1_network.client[17] 	avg_time[17] 	0.004162578282
scalar tree_4_3_u10_r1_network.client[18] 	hdistance[18] 	2.6480967985883
scalar tree_4_3_u10_r1_network.client[18] 	downloads[18] 	11901
scalar tree_4_3_u10_r1_network.client[18] 	avg_time[18] 	0.004088560992
scalar tree_4_3_u10_r1_network.client[19] 	hdistance[19] 	2.663468013468
scalar tree_4_3_u10_r1_network.client[19] 	downloads[19] 	11880
scalar tree_4_3_u10_r1_network.client[19] 	avg_time[19] 	0.004113465027
scalar tree_4_3_u10_r1_network.client[20] 	hdistance[20] 	2.6477609483043
scalar tree_4_3_u10_r1_network.client[20] 	downloads[20] 	12148
scalar tree_4_3_u10_r1_network.client[20] 	avg_time[20] 	0.00408577241
scalar tree_4_3_u10_r1_network.client[21] 	hdistance[21] 	2.702510736703
scalar tree_4_3_u10_r1_network.client[21] 	downloads[21] 	12108
scalar tree_4_3_u10_r1_network.client[21] 	avg_time[21] 	0.004177069992
scalar tree_4_3_u10_r1_network.client[22] 	hdistance[22] 	2.6734473596812
scalar tree_4_3_u10_r1_network.client[22] 	downloads[22] 	12044
scalar tree_4_3_u10_r1_network.client[22] 	avg_time[22] 	0.004135964841
scalar tree_4_3_u10_r1_network.client[23] 	hdistance[23] 	2.6767497034401
scalar tree_4_3_u10_r1_network.client[23] 	downloads[23] 	11802
scalar tree_4_3_u10_r1_network.client[23] 	avg_time[23] 	0.004129466604
scalar tree_4_3_u10_r1_network.client[24] 	hdistance[24] 	2.6561228725612
scalar tree_4_3_u10_r1_network.client[24] 	downloads[24] 	12045
scalar tree_4_3_u10_r1_network.client[24] 	avg_time[24] 	0.004098633284
scalar tree_4_3_u10_r1_network.client[25] 	hdistance[25] 	2.6513693560326
scalar tree_4_3_u10_r1_network.client[25] 	downloads[25] 	12159
scalar tree_4_3_u10_r1_network.client[25] 	avg_time[25] 	0.004093342675
scalar tree_4_3_u10_r1_network.client[26] 	hdistance[26] 	2.6861855670103
scalar tree_4_3_u10_r1_network.client[26] 	downloads[26] 	12125
scalar tree_4_3_u10_r1_network.client[26] 	avg_time[26] 	0.004148285617
scalar tree_4_3_u10_r1_network.client[27] 	hdistance[27] 	2.6836862810748
scalar tree_4_3_u10_r1_network.client[27] 	downloads[27] 	11947
scalar tree_4_3_u10_r1_network.client[27] 	avg_time[27] 	0.004140450688
scalar tree_4_3_u10_r1_network.client[28] 	hdistance[28] 	2.6342615614122
scalar tree_4_3_u10_r1_network.client[28] 	downloads[28] 	12066
scalar tree_4_3_u10_r1_network.client[28] 	avg_time[28] 	0.004065801719
scalar tree_4_3_u10_r1_network.client[29] 	hdistance[29] 	2.622534973875
scalar tree_4_3_u10_r1_network.client[29] 	downloads[29] 	11866
scalar tree_4_3_u10_r1_network.client[29] 	avg_time[29] 	0.004054775423
scalar tree_4_3_u10_r1_network.client[30] 	hdistance[30] 	2.6822538968075
scalar tree_4_3_u10_r1_network.client[30] 	downloads[30] 	11997
scalar tree_4_3_u10_r1_network.client[30] 	avg_time[30] 	0.004145866816
scalar tree_4_3_u10_r1_network.client[31] 	hdistance[31] 	2.6916736753574
scalar tree_4_3_u10_r1_network.client[31] 	downloads[31] 	11890
scalar tree_4_3_u10_r1_network.client[31] 	avg_time[31] 	0.004160972647
scalar tree_4_3_u10_r1_network.client[32] 	hdistance[32] 	2.6420416942422
scalar tree_4_3_u10_r1_network.client[32] 	downloads[32] 	12088
scalar tree_4_3_u10_r1_network.client[32] 	avg_time[32] 	0.004076270995
scalar tree_4_3_u10_r1_network.client[33] 	hdistance[33] 	2.6685998342999
scalar tree_4_3_u10_r1_network.client[33] 	downloads[33] 	12070
scalar tree_4_3_u10_r1_network.client[33] 	avg_time[33] 	0.004118646358
scalar tree_4_3_u10_r1_network.client[34] 	hdistance[34] 	2.6549892080359
scalar tree_4_3_u10_r1_network.client[34] 	downloads[34] 	12046
scalar tree_4_3_u10_r1_network.client[34] 	avg_time[34] 	0.004094136131
scalar tree_4_3_u10_r1_network.client[35] 	hdistance[35] 	2.6677760212996
scalar tree_4_3_u10_r1_network.client[35] 	downloads[35] 	12019
scalar tree_4_3_u10_r1_network.client[35] 	avg_time[35] 	0.004132786742
scalar tree_4_3_u10_r1_network.client[36] 	hdistance[36] 	2.6905463422847
scalar tree_4_3_u10_r1_network.client[36] 	downloads[36] 	11879
scalar tree_4_3_u10_r1_network.client[36] 	avg_time[36] 	0.004146979076
scalar tree_4_3_u10_r1_network.client[37] 	hdistance[37] 	2.667078697981
scalar tree_4_3_u10_r1_network.client[37] 	downloads[37] 	12135
scalar tree_4_3_u10_r1_network.client[37] 	avg_time[37] 	0.00411684907
scalar tree_4_3_u10_r1_network.client[38] 	hdistance[38] 	2.6568570237599
scalar tree_4_3_u10_r1_network.client[38] 	downloads[38] 	11995
scalar tree_4_3_u10_r1_network.client[38] 	avg_time[38] 	0.004100872384
scalar tree_4_3_u10_r1_network.client[39] 	hdistance[39] 	2.7006894232386
scalar tree_4_3_u10_r1_network.client[39] 	downloads[39] 	11894
scalar tree_4_3_u10_r1_network.client[39] 	avg_time[39] 	0.004173866196
