version 2
run General-207-20160819-14:27:33-2054
attr a 0.9
attr cd lcd
attr configname General
attr cr lru
attr datetime 20160819-14:27:33
attr experiment General
attr fsize 1
attr inifile hw5115/scenario_A/NRR-LCD.ini
attr iterationvars "$name=tree_4_3, $un=10, $rep=8, $cd=lcd, $cr=lru, $fsize=1, $a=0.9, $sl=nrr, $ttl=1000, $variance=0.05"
attr iterationvars2 "$name=tree_4_3, $un=10, $rep=8, $cd=lcd, $cr=lru, $fsize=1, $a=0.9, $sl=nrr, $ttl=1000, $variance=0.05, $repetition=0"
attr measurement "$name=tree_4_3, $un=10, $rep=8, $cd=lcd, $cr=lru, $fsize=1, $a=0.9, $sl=nrr, $ttl=1000, $variance=0.05"
attr name tree_4_3
attr network networks.${name}_u${un}_r${rep}_network
attr processid 2054
attr rep 8
attr repetition 0
attr replication #0
attr resultdir results
attr runnumber 207
attr seedset 8
attr sl nrr
attr ttl 1000
attr un 10
attr variance 0.05

scalar . 	a 	0.9
scalar . 	fsize 	1
scalar . 	rep 	8
scalar . 	ttl 	1000
scalar . 	un 	10
scalar . 	variance 	0.05
scalar tree_4_3_u10_r8_network.content_distribution 	repo-0 	0
scalar tree_4_3_u10_r8_network.content_distribution 	client-0 	13
scalar tree_4_3_u10_r8_network.content_distribution 	client-1 	14
scalar tree_4_3_u10_r8_network.content_distribution 	client-2 	15
scalar tree_4_3_u10_r8_network.content_distribution 	client-3 	16
scalar tree_4_3_u10_r8_network.content_distribution 	client-4 	17
scalar tree_4_3_u10_r8_network.content_distribution 	client-5 	18
scalar tree_4_3_u10_r8_network.content_distribution 	client-6 	19
scalar tree_4_3_u10_r8_network.content_distribution 	client-7 	20
scalar tree_4_3_u10_r8_network.content_distribution 	client-8 	21
scalar tree_4_3_u10_r8_network.content_distribution 	client-9 	22
scalar tree_4_3_u10_r8_network.content_distribution 	client-10 	23
scalar tree_4_3_u10_r8_network.content_distribution 	client-11 	24
scalar tree_4_3_u10_r8_network.content_distribution 	client-12 	25
scalar tree_4_3_u10_r8_network.content_distribution 	client-13 	26
scalar tree_4_3_u10_r8_network.content_distribution 	client-14 	27
scalar tree_4_3_u10_r8_network.content_distribution 	client-15 	28
scalar tree_4_3_u10_r8_network.content_distribution 	client-16 	29
scalar tree_4_3_u10_r8_network.content_distribution 	client-17 	30
scalar tree_4_3_u10_r8_network.content_distribution 	client-18 	31
scalar tree_4_3_u10_r8_network.content_distribution 	client-19 	32
scalar tree_4_3_u10_r8_network.content_distribution 	client-20 	33
scalar tree_4_3_u10_r8_network.content_distribution 	client-21 	34
scalar tree_4_3_u10_r8_network.content_distribution 	client-22 	35
scalar tree_4_3_u10_r8_network.content_distribution 	client-23 	36
scalar tree_4_3_u10_r8_network.content_distribution 	client-24 	37
scalar tree_4_3_u10_r8_network.content_distribution 	client-25 	38
scalar tree_4_3_u10_r8_network.content_distribution 	client-26 	39
scalar tree_4_3_u10_r8_network.content_distribution 	repo-0_card 	100000
scalar tree_4_3_u10_r8_network.content_distribution 	repo-0_price 	0
scalar tree_4_3_u10_r8_network.statistics 	stabilization_time 	706.6
scalar tree_4_3_u10_r8_network.statistics 	p_hit 	0.22813363703105
scalar tree_4_3_u10_r8_network.statistics 	interests 	24728.275
scalar tree_4_3_u10_r8_network.statistics 	data 	16635.6
scalar tree_4_3_u10_r8_network.statistics 	hdistance 	2.6616414607992
scalar tree_4_3_u10_r8_network.statistics 	avg_time 	0.004111082973
scalar tree_4_3_u10_r8_network.statistics 	downloads 	323708
scalar tree_4_3_u10_r8_network.statistics 	total_cost 	0
scalar tree_4_3_u10_r8_network.statistics 	total_replicas 	100000
scalar tree_4_3_u10_r8_network.statistics 	inner_hit 	0.39391982898167
scalar tree_4_3_u10_r8_network.node[0].core_layer 	interests[0] 	197414
scalar tree_4_3_u10_r8_network.node[0].core_layer 	repo_load[0] 	196193
scalar tree_4_3_u10_r8_network.node[0].core_layer 	data[0] 	0
scalar tree_4_3_u10_r8_network.node[0].core_layer 	repo_int[0] 	196193
scalar tree_4_3_u10_r8_network.node[0].content_store 	p_hit[0] 	0.0061849716838725
scalar tree_4_3_u10_r8_network.node[0].content_store 	hits[0] 	1221
scalar tree_4_3_u10_r8_network.node[0].content_store 	misses[0] 	196193
scalar tree_4_3_u10_r8_network.node[0].content_store 	decision_yes[0] 	196193
scalar tree_4_3_u10_r8_network.node[0].content_store 	decision_no[0] 	0
scalar tree_4_3_u10_r8_network.node[0].content_store 	decision_ratio[0] 	1
scalar tree_4_3_u10_r8_network.node[1].core_layer 	interests[1] 	143651
scalar tree_4_3_u10_r8_network.node[1].core_layer 	data[1] 	141146
scalar tree_4_3_u10_r8_network.node[1].content_store 	p_hit[1] 	0.017424173865828
scalar tree_4_3_u10_r8_network.node[1].content_store 	hits[1] 	2503
scalar tree_4_3_u10_r8_network.node[1].content_store 	misses[1] 	141148
scalar tree_4_3_u10_r8_network.node[1].content_store 	decision_yes[1] 	2559
scalar tree_4_3_u10_r8_network.node[1].content_store 	decision_no[1] 	138587
scalar tree_4_3_u10_r8_network.node[1].content_store 	decision_ratio[1] 	0.018130163093534
scalar tree_4_3_u10_r8_network.node[2].core_layer 	interests[2] 	55291
scalar tree_4_3_u10_r8_network.node[2].core_layer 	data[2] 	52790
scalar tree_4_3_u10_r8_network.node[2].content_store 	p_hit[2] 	0.045233401457742
scalar tree_4_3_u10_r8_network.node[2].content_store 	hits[2] 	2501
scalar tree_4_3_u10_r8_network.node[2].content_store 	misses[2] 	52790
scalar tree_4_3_u10_r8_network.node[2].content_store 	decision_yes[2] 	1738
scalar tree_4_3_u10_r8_network.node[2].content_store 	decision_no[2] 	51052
scalar tree_4_3_u10_r8_network.node[2].content_store 	decision_ratio[2] 	0.032922902064785
scalar tree_4_3_u10_r8_network.node[3].core_layer 	interests[3] 	11299
scalar tree_4_3_u10_r8_network.node[3].core_layer 	data[3] 	8868
scalar tree_4_3_u10_r8_network.node[3].content_store 	p_hit[3] 	0.21515178334366
scalar tree_4_3_u10_r8_network.node[3].content_store 	hits[3] 	2431
scalar tree_4_3_u10_r8_network.node[3].content_store 	misses[3] 	8868
scalar tree_4_3_u10_r8_network.node[3].content_store 	decision_yes[3] 	1139
scalar tree_4_3_u10_r8_network.node[3].content_store 	decision_no[3] 	7729
scalar tree_4_3_u10_r8_network.node[3].content_store 	decision_ratio[3] 	0.12843933243121
scalar tree_4_3_u10_r8_network.node[4].core_layer 	interests[4] 	41592
scalar tree_4_3_u10_r8_network.node[4].core_layer 	data[4] 	39480
scalar tree_4_3_u10_r8_network.node[4].content_store 	p_hit[4] 	0.05080303904597
scalar tree_4_3_u10_r8_network.node[4].content_store 	hits[4] 	2113
scalar tree_4_3_u10_r8_network.node[4].content_store 	misses[4] 	39479
scalar tree_4_3_u10_r8_network.node[4].content_store 	decision_yes[4] 	2121
scalar tree_4_3_u10_r8_network.node[4].content_store 	decision_no[4] 	37359
scalar tree_4_3_u10_r8_network.node[4].content_store 	decision_ratio[4] 	0.053723404255319
scalar tree_4_3_u10_r8_network.node[5].core_layer 	interests[5] 	27853
scalar tree_4_3_u10_r8_network.node[5].core_layer 	data[5] 	25385
scalar tree_4_3_u10_r8_network.node[5].content_store 	p_hit[5] 	0.088643952177503
scalar tree_4_3_u10_r8_network.node[5].content_store 	hits[5] 	2469
scalar tree_4_3_u10_r8_network.node[5].content_store 	misses[5] 	25384
scalar tree_4_3_u10_r8_network.node[5].content_store 	decision_yes[5] 	2723
scalar tree_4_3_u10_r8_network.node[5].content_store 	decision_no[5] 	22662
scalar tree_4_3_u10_r8_network.node[5].content_store 	decision_ratio[5] 	0.10726807169588
scalar tree_4_3_u10_r8_network.node[6].core_layer 	interests[6] 	12676
scalar tree_4_3_u10_r8_network.node[6].core_layer 	data[6] 	10228
scalar tree_4_3_u10_r8_network.node[6].content_store 	p_hit[6] 	0.19312085831493
scalar tree_4_3_u10_r8_network.node[6].content_store 	hits[6] 	2448
scalar tree_4_3_u10_r8_network.node[6].content_store 	misses[6] 	10228
scalar tree_4_3_u10_r8_network.node[6].content_store 	decision_yes[6] 	2177
scalar tree_4_3_u10_r8_network.node[6].content_store 	decision_no[6] 	8051
scalar tree_4_3_u10_r8_network.node[6].content_store 	decision_ratio[6] 	0.21284708642941
scalar tree_4_3_u10_r8_network.node[7].core_layer 	interests[7] 	42506
scalar tree_4_3_u10_r8_network.node[7].core_layer 	data[7] 	40042
scalar tree_4_3_u10_r8_network.node[7].content_store 	p_hit[7] 	0.05794476073966
scalar tree_4_3_u10_r8_network.node[7].content_store 	hits[7] 	2463
scalar tree_4_3_u10_r8_network.node[7].content_store 	misses[7] 	40043
scalar tree_4_3_u10_r8_network.node[7].content_store 	decision_yes[7] 	3102
scalar tree_4_3_u10_r8_network.node[7].content_store 	decision_no[7] 	36940
scalar tree_4_3_u10_r8_network.node[7].content_store 	decision_ratio[7] 	0.077468657909195
scalar tree_4_3_u10_r8_network.node[8].core_layer 	interests[8] 	26057
scalar tree_4_3_u10_r8_network.node[8].core_layer 	data[8] 	24008
scalar tree_4_3_u10_r8_network.node[8].content_store 	p_hit[8] 	0.078635299535633
scalar tree_4_3_u10_r8_network.node[8].content_store 	hits[8] 	2049
scalar tree_4_3_u10_r8_network.node[8].content_store 	misses[8] 	24008
scalar tree_4_3_u10_r8_network.node[8].content_store 	decision_yes[8] 	1702
scalar tree_4_3_u10_r8_network.node[8].content_store 	decision_no[8] 	22306
scalar tree_4_3_u10_r8_network.node[8].content_store 	decision_ratio[8] 	0.070893035654782
scalar tree_4_3_u10_r8_network.node[9].core_layer 	interests[9] 	12390
scalar tree_4_3_u10_r8_network.node[9].core_layer 	data[9] 	9961
scalar tree_4_3_u10_r8_network.node[9].content_store 	p_hit[9] 	0.19596448748991
scalar tree_4_3_u10_r8_network.node[9].content_store 	hits[9] 	2428
scalar tree_4_3_u10_r8_network.node[9].content_store 	misses[9] 	9962
scalar tree_4_3_u10_r8_network.node[9].content_store 	decision_yes[9] 	2191
scalar tree_4_3_u10_r8_network.node[9].content_store 	decision_no[9] 	7770
scalar tree_4_3_u10_r8_network.node[9].content_store 	decision_ratio[9] 	0.21995783555868
scalar tree_4_3_u10_r8_network.node[10].core_layer 	interests[10] 	42677
scalar tree_4_3_u10_r8_network.node[10].core_layer 	data[10] 	40238
scalar tree_4_3_u10_r8_network.node[10].content_store 	p_hit[10] 	0.057150221430747
scalar tree_4_3_u10_r8_network.node[10].content_store 	hits[10] 	2439
scalar tree_4_3_u10_r8_network.node[10].content_store 	misses[10] 	40238
scalar tree_4_3_u10_r8_network.node[10].content_store 	decision_yes[10] 	2966
scalar tree_4_3_u10_r8_network.node[10].content_store 	decision_no[10] 	37272
scalar tree_4_3_u10_r8_network.node[10].content_store 	decision_ratio[10] 	0.073711417068443
scalar tree_4_3_u10_r8_network.node[11].core_layer 	interests[11] 	27485
scalar tree_4_3_u10_r8_network.node[11].core_layer 	data[11] 	25059
scalar tree_4_3_u10_r8_network.node[11].content_store 	p_hit[11] 	0.088266327087502
scalar tree_4_3_u10_r8_network.node[11].content_store 	hits[11] 	2426
scalar tree_4_3_u10_r8_network.node[11].content_store 	misses[11] 	25059
scalar tree_4_3_u10_r8_network.node[11].content_store 	decision_yes[11] 	2464
scalar tree_4_3_u10_r8_network.node[11].content_store 	decision_no[11] 	22595
scalar tree_4_3_u10_r8_network.node[11].content_store 	decision_ratio[11] 	0.098327946047328
scalar tree_4_3_u10_r8_network.node[12].core_layer 	interests[12] 	11242
scalar tree_4_3_u10_r8_network.node[12].core_layer 	data[12] 	9129
scalar tree_4_3_u10_r8_network.node[12].content_store 	p_hit[12] 	0.1879558797367
scalar tree_4_3_u10_r8_network.node[12].content_store 	hits[12] 	2113
scalar tree_4_3_u10_r8_network.node[12].content_store 	misses[12] 	9129
scalar tree_4_3_u10_r8_network.node[12].content_store 	decision_yes[12] 	1275
scalar tree_4_3_u10_r8_network.node[12].content_store 	decision_no[12] 	7854
scalar tree_4_3_u10_r8_network.node[12].content_store 	decision_ratio[12] 	0.13966480446927
scalar tree_4_3_u10_r8_network.node[13].core_layer 	interests[13] 	12415
scalar tree_4_3_u10_r8_network.node[13].core_layer 	data[13] 	8901
scalar tree_4_3_u10_r8_network.node[13].content_store 	p_hit[13] 	0.28304470398711
scalar tree_4_3_u10_r8_network.node[13].content_store 	hits[13] 	3514
scalar tree_4_3_u10_r8_network.node[13].content_store 	misses[13] 	8901
scalar tree_4_3_u10_r8_network.node[13].content_store 	decision_yes[13] 	363
scalar tree_4_3_u10_r8_network.node[13].content_store 	decision_no[13] 	8538
scalar tree_4_3_u10_r8_network.node[13].content_store 	decision_ratio[13] 	0.040781934614088
scalar tree_4_3_u10_r8_network.node[14].core_layer 	interests[14] 	12662
scalar tree_4_3_u10_r8_network.node[14].core_layer 	data[14] 	8930
scalar tree_4_3_u10_r8_network.node[14].content_store 	p_hit[14] 	0.29474016743011
scalar tree_4_3_u10_r8_network.node[14].content_store 	hits[14] 	3732
scalar tree_4_3_u10_r8_network.node[14].content_store 	misses[14] 	8930
scalar tree_4_3_u10_r8_network.node[14].content_store 	decision_yes[14] 	685
scalar tree_4_3_u10_r8_network.node[14].content_store 	decision_no[14] 	8245
scalar tree_4_3_u10_r8_network.node[14].content_store 	decision_ratio[14] 	0.076707726763718
scalar tree_4_3_u10_r8_network.node[15].core_layer 	interests[15] 	12564
scalar tree_4_3_u10_r8_network.node[15].core_layer 	data[15] 	8866
scalar tree_4_3_u10_r8_network.node[15].content_store 	p_hit[15] 	0.29425342247692
scalar tree_4_3_u10_r8_network.node[15].content_store 	hits[15] 	3697
scalar tree_4_3_u10_r8_network.node[15].content_store 	misses[15] 	8867
scalar tree_4_3_u10_r8_network.node[15].content_store 	decision_yes[15] 	738
scalar tree_4_3_u10_r8_network.node[15].content_store 	decision_no[15] 	8128
scalar tree_4_3_u10_r8_network.node[15].content_store 	decision_ratio[15] 	0.083239341303857
scalar tree_4_3_u10_r8_network.node[16].core_layer 	interests[16] 	12542
scalar tree_4_3_u10_r8_network.node[16].core_layer 	data[16] 	8853
scalar tree_4_3_u10_r8_network.node[16].content_store 	p_hit[16] 	0.29413171742944
scalar tree_4_3_u10_r8_network.node[16].content_store 	hits[16] 	3689
scalar tree_4_3_u10_r8_network.node[16].content_store 	misses[16] 	8853
scalar tree_4_3_u10_r8_network.node[16].content_store 	decision_yes[16] 	741
scalar tree_4_3_u10_r8_network.node[16].content_store 	decision_no[16] 	8112
scalar tree_4_3_u10_r8_network.node[16].content_store 	decision_ratio[16] 	0.083700440528634
scalar tree_4_3_u10_r8_network.node[17].core_layer 	interests[17] 	12358
scalar tree_4_3_u10_r8_network.node[17].core_layer 	data[17] 	8864
scalar tree_4_3_u10_r8_network.node[17].content_store 	p_hit[17] 	0.28273183363004
scalar tree_4_3_u10_r8_network.node[17].content_store 	hits[17] 	3494
scalar tree_4_3_u10_r8_network.node[17].content_store 	misses[17] 	8864
scalar tree_4_3_u10_r8_network.node[17].content_store 	decision_yes[17] 	381
scalar tree_4_3_u10_r8_network.node[17].content_store 	decision_no[17] 	8483
scalar tree_4_3_u10_r8_network.node[17].content_store 	decision_ratio[17] 	0.04298285198556
scalar tree_4_3_u10_r8_network.node[18].core_layer 	interests[18] 	12732
scalar tree_4_3_u10_r8_network.node[18].core_layer 	data[18] 	9006
scalar tree_4_3_u10_r8_network.node[18].content_store 	p_hit[18] 	0.29272698711907
scalar tree_4_3_u10_r8_network.node[18].content_store 	hits[18] 	3727
scalar tree_4_3_u10_r8_network.node[18].content_store 	misses[18] 	9005
scalar tree_4_3_u10_r8_network.node[18].content_store 	decision_yes[18] 	768
scalar tree_4_3_u10_r8_network.node[18].content_store 	decision_no[18] 	8238
scalar tree_4_3_u10_r8_network.node[18].content_store 	decision_ratio[18] 	0.085276482345103
scalar tree_4_3_u10_r8_network.node[19].core_layer 	interests[19] 	12524
scalar tree_4_3_u10_r8_network.node[19].core_layer 	data[19] 	8882
scalar tree_4_3_u10_r8_network.node[19].content_store 	p_hit[19] 	0.29080166081124
scalar tree_4_3_u10_r8_network.node[19].content_store 	hits[19] 	3642
scalar tree_4_3_u10_r8_network.node[19].content_store 	misses[19] 	8882
scalar tree_4_3_u10_r8_network.node[19].content_store 	decision_yes[19] 	767
scalar tree_4_3_u10_r8_network.node[19].content_store 	decision_no[19] 	8115
scalar tree_4_3_u10_r8_network.node[19].content_store 	decision_ratio[19] 	0.086354424679126
scalar tree_4_3_u10_r8_network.node[20].core_layer 	interests[20] 	12575
scalar tree_4_3_u10_r8_network.node[20].core_layer 	data[20] 	8856
scalar tree_4_3_u10_r8_network.node[20].content_store 	p_hit[20] 	0.29574552683897
scalar tree_4_3_u10_r8_network.node[20].content_store 	hits[20] 	3719
scalar tree_4_3_u10_r8_network.node[20].content_store 	misses[20] 	8856
scalar tree_4_3_u10_r8_network.node[20].content_store 	decision_yes[20] 	755
scalar tree_4_3_u10_r8_network.node[20].content_store 	decision_no[20] 	8101
scalar tree_4_3_u10_r8_network.node[20].content_store 	decision_ratio[20] 	0.085252935862692
scalar tree_4_3_u10_r8_network.node[21].core_layer 	interests[21] 	12649
scalar tree_4_3_u10_r8_network.node[21].core_layer 	data[21] 	9084
scalar tree_4_3_u10_r8_network.node[21].content_store 	p_hit[21] 	0.28176140406356
scalar tree_4_3_u10_r8_network.node[21].content_store 	hits[21] 	3564
scalar tree_4_3_u10_r8_network.node[21].content_store 	misses[21] 	9085
scalar tree_4_3_u10_r8_network.node[21].content_store 	decision_yes[21] 	388
scalar tree_4_3_u10_r8_network.node[21].content_store 	decision_no[21] 	8696
scalar tree_4_3_u10_r8_network.node[21].content_store 	decision_ratio[21] 	0.042712461470718
scalar tree_4_3_u10_r8_network.node[22].core_layer 	interests[22] 	12364
scalar tree_4_3_u10_r8_network.node[22].core_layer 	data[22] 	8932
scalar tree_4_3_u10_r8_network.node[22].content_store 	p_hit[22] 	0.27758007117438
scalar tree_4_3_u10_r8_network.node[22].content_store 	hits[22] 	3432
scalar tree_4_3_u10_r8_network.node[22].content_store 	misses[22] 	8932
scalar tree_4_3_u10_r8_network.node[22].content_store 	decision_yes[22] 	415
scalar tree_4_3_u10_r8_network.node[22].content_store 	decision_no[22] 	8517
scalar tree_4_3_u10_r8_network.node[22].content_store 	decision_ratio[22] 	0.046462158531124
scalar tree_4_3_u10_r8_network.node[23].core_layer 	interests[23] 	12492
scalar tree_4_3_u10_r8_network.node[23].core_layer 	data[23] 	8724
scalar tree_4_3_u10_r8_network.node[23].content_store 	p_hit[23] 	0.30155299391611
scalar tree_4_3_u10_r8_network.node[23].content_store 	hits[23] 	3767
scalar tree_4_3_u10_r8_network.node[23].content_store 	misses[23] 	8725
scalar tree_4_3_u10_r8_network.node[23].content_store 	decision_yes[23] 	703
scalar tree_4_3_u10_r8_network.node[23].content_store 	decision_no[23] 	8021
scalar tree_4_3_u10_r8_network.node[23].content_store 	decision_ratio[23] 	0.08058230169647
scalar tree_4_3_u10_r8_network.node[24].core_layer 	interests[24] 	12510
scalar tree_4_3_u10_r8_network.node[24].core_layer 	data[24] 	8844
scalar tree_4_3_u10_r8_network.node[24].content_store 	p_hit[24] 	0.29304556354916
scalar tree_4_3_u10_r8_network.node[24].content_store 	hits[24] 	3666
scalar tree_4_3_u10_r8_network.node[24].content_store 	misses[24] 	8844
scalar tree_4_3_u10_r8_network.node[24].content_store 	decision_yes[24] 	750
scalar tree_4_3_u10_r8_network.node[24].content_store 	decision_no[24] 	8094
scalar tree_4_3_u10_r8_network.node[24].content_store 	decision_ratio[24] 	0.084803256445047
scalar tree_4_3_u10_r8_network.node[25].core_layer 	interests[25] 	12625
scalar tree_4_3_u10_r8_network.node[25].core_layer 	data[25] 	8767
scalar tree_4_3_u10_r8_network.node[25].content_store 	p_hit[25] 	0.30558415841584
scalar tree_4_3_u10_r8_network.node[25].content_store 	hits[25] 	3858
scalar tree_4_3_u10_r8_network.node[25].content_store 	misses[25] 	8767
scalar tree_4_3_u10_r8_network.node[25].content_store 	decision_yes[25] 	679
scalar tree_4_3_u10_r8_network.node[25].content_store 	decision_no[25] 	8088
scalar tree_4_3_u10_r8_network.node[25].content_store 	decision_ratio[25] 	0.077449526633968
scalar tree_4_3_u10_r8_network.node[26].core_layer 	interests[26] 	12226
scalar tree_4_3_u10_r8_network.node[26].core_layer 	data[26] 	8607
scalar tree_4_3_u10_r8_network.node[26].content_store 	p_hit[26] 	0.29600850646164
scalar tree_4_3_u10_r8_network.node[26].content_store 	hits[26] 	3619
scalar tree_4_3_u10_r8_network.node[26].content_store 	misses[26] 	8607
scalar tree_4_3_u10_r8_network.node[26].content_store 	decision_yes[26] 	344
scalar tree_4_3_u10_r8_network.node[26].content_store 	decision_no[26] 	8263
scalar tree_4_3_u10_r8_network.node[26].content_store 	decision_ratio[26] 	0.039967468339723
scalar tree_4_3_u10_r8_network.node[27].core_layer 	interests[27] 	12584
scalar tree_4_3_u10_r8_network.node[27].core_layer 	data[27] 	8893
scalar tree_4_3_u10_r8_network.node[27].content_store 	p_hit[27] 	0.29330896376351
scalar tree_4_3_u10_r8_network.node[27].content_store 	hits[27] 	3691
scalar tree_4_3_u10_r8_network.node[27].content_store 	misses[27] 	8893
scalar tree_4_3_u10_r8_network.node[27].content_store 	decision_yes[27] 	774
scalar tree_4_3_u10_r8_network.node[27].content_store 	decision_no[27] 	8119
scalar tree_4_3_u10_r8_network.node[27].content_store 	decision_ratio[27] 	0.087034746429776
scalar tree_4_3_u10_r8_network.node[28].core_layer 	interests[28] 	12546
scalar tree_4_3_u10_r8_network.node[28].core_layer 	data[28] 	8859
scalar tree_4_3_u10_r8_network.node[28].content_store 	p_hit[28] 	0.29387852702056
scalar tree_4_3_u10_r8_network.node[28].content_store 	hits[28] 	3687
scalar tree_4_3_u10_r8_network.node[28].content_store 	misses[28] 	8859
scalar tree_4_3_u10_r8_network.node[28].content_store 	decision_yes[28] 	743
scalar tree_4_3_u10_r8_network.node[28].content_store 	decision_no[28] 	8116
scalar tree_4_3_u10_r8_network.node[28].content_store 	decision_ratio[28] 	0.083869511231516
scalar tree_4_3_u10_r8_network.node[29].core_layer 	interests[29] 	12428
scalar tree_4_3_u10_r8_network.node[29].core_layer 	data[29] 	8699
scalar tree_4_3_u10_r8_network.node[29].content_store 	p_hit[29] 	0.29996781461217
scalar tree_4_3_u10_r8_network.node[29].content_store 	hits[29] 	3728
scalar tree_4_3_u10_r8_network.node[29].content_store 	misses[29] 	8700
scalar tree_4_3_u10_r8_network.node[29].content_store 	decision_yes[29] 	704
scalar tree_4_3_u10_r8_network.node[29].content_store 	decision_no[29] 	7995
scalar tree_4_3_u10_r8_network.node[29].content_store 	decision_ratio[29] 	0.080928842395678
scalar tree_4_3_u10_r8_network.node[30].core_layer 	interests[30] 	12180
scalar tree_4_3_u10_r8_network.node[30].core_layer 	data[30] 	8804
scalar tree_4_3_u10_r8_network.node[30].content_store 	p_hit[30] 	0.27717569786535
scalar tree_4_3_u10_r8_network.node[30].content_store 	hits[30] 	3376
scalar tree_4_3_u10_r8_network.node[30].content_store 	misses[30] 	8804
scalar tree_4_3_u10_r8_network.node[30].content_store 	decision_yes[30] 	406
scalar tree_4_3_u10_r8_network.node[30].content_store 	decision_no[30] 	8398
scalar tree_4_3_u10_r8_network.node[30].content_store 	decision_ratio[30] 	0.046115402089959
scalar tree_4_3_u10_r8_network.node[31].core_layer 	interests[31] 	12371
scalar tree_4_3_u10_r8_network.node[31].core_layer 	data[31] 	8881
scalar tree_4_3_u10_r8_network.node[31].content_store 	p_hit[31] 	0.28211138954005
scalar tree_4_3_u10_r8_network.node[31].content_store 	hits[31] 	3490
scalar tree_4_3_u10_r8_network.node[31].content_store 	misses[31] 	8881
scalar tree_4_3_u10_r8_network.node[31].content_store 	decision_yes[31] 	409
scalar tree_4_3_u10_r8_network.node[31].content_store 	decision_no[31] 	8472
scalar tree_4_3_u10_r8_network.node[31].content_store 	decision_ratio[31] 	0.046053372367977
scalar tree_4_3_u10_r8_network.node[32].core_layer 	interests[32] 	12684
scalar tree_4_3_u10_r8_network.node[32].core_layer 	data[32] 	8961
scalar tree_4_3_u10_r8_network.node[32].content_store 	p_hit[32] 	0.29344055502996
scalar tree_4_3_u10_r8_network.node[32].content_store 	hits[32] 	3722
scalar tree_4_3_u10_r8_network.node[32].content_store 	misses[32] 	8962
scalar tree_4_3_u10_r8_network.node[32].content_store 	decision_yes[32] 	748
scalar tree_4_3_u10_r8_network.node[32].content_store 	decision_no[32] 	8213
scalar tree_4_3_u10_r8_network.node[32].content_store 	decision_ratio[32] 	0.083472826693449
scalar tree_4_3_u10_r8_network.node[33].core_layer 	interests[33] 	12515
scalar tree_4_3_u10_r8_network.node[33].core_layer 	data[33] 	8828
scalar tree_4_3_u10_r8_network.node[33].content_store 	p_hit[33] 	0.29460647223332
scalar tree_4_3_u10_r8_network.node[33].content_store 	hits[33] 	3687
scalar tree_4_3_u10_r8_network.node[33].content_store 	misses[33] 	8828
scalar tree_4_3_u10_r8_network.node[33].content_store 	decision_yes[33] 	719
scalar tree_4_3_u10_r8_network.node[33].content_store 	decision_no[33] 	8109
scalar tree_4_3_u10_r8_network.node[33].content_store 	decision_ratio[33] 	0.081445400996828
scalar tree_4_3_u10_r8_network.node[34].core_layer 	interests[34] 	12557
scalar tree_4_3_u10_r8_network.node[34].core_layer 	data[34] 	8864
scalar tree_4_3_u10_r8_network.node[34].content_store 	p_hit[34] 	0.29409890897507
scalar tree_4_3_u10_r8_network.node[34].content_store 	hits[34] 	3693
scalar tree_4_3_u10_r8_network.node[34].content_store 	misses[34] 	8864
scalar tree_4_3_u10_r8_network.node[34].content_store 	decision_yes[34] 	755
scalar tree_4_3_u10_r8_network.node[34].content_store 	decision_no[34] 	8109
scalar tree_4_3_u10_r8_network.node[34].content_store 	decision_ratio[34] 	0.085175992779783
scalar tree_4_3_u10_r8_network.node[35].core_layer 	interests[35] 	12316
scalar tree_4_3_u10_r8_network.node[35].core_layer 	data[35] 	8813
scalar tree_4_3_u10_r8_network.node[35].content_store 	p_hit[35] 	0.28442676193569
scalar tree_4_3_u10_r8_network.node[35].content_store 	hits[35] 	3503
scalar tree_4_3_u10_r8_network.node[35].content_store 	misses[35] 	8813
scalar tree_4_3_u10_r8_network.node[35].content_store 	decision_yes[35] 	378
scalar tree_4_3_u10_r8_network.node[35].content_store 	decision_no[35] 	8435
scalar tree_4_3_u10_r8_network.node[35].content_store 	decision_ratio[35] 	0.042891183478952
scalar tree_4_3_u10_r8_network.node[36].core_layer 	interests[36] 	12413
scalar tree_4_3_u10_r8_network.node[36].core_layer 	data[36] 	8772
scalar tree_4_3_u10_r8_network.node[36].content_store 	p_hit[36] 	0.29332151776363
scalar tree_4_3_u10_r8_network.node[36].content_store 	hits[36] 	3641
scalar tree_4_3_u10_r8_network.node[36].content_store 	misses[36] 	8772
scalar tree_4_3_u10_r8_network.node[36].content_store 	decision_yes[36] 	721
scalar tree_4_3_u10_r8_network.node[36].content_store 	decision_no[36] 	8051
scalar tree_4_3_u10_r8_network.node[36].content_store 	decision_ratio[36] 	0.08219334245326
scalar tree_4_3_u10_r8_network.node[37].core_layer 	interests[37] 	12373
scalar tree_4_3_u10_r8_network.node[37].core_layer 	data[37] 	8823
scalar tree_4_3_u10_r8_network.node[37].content_store 	p_hit[37] 	0.28691505697891
scalar tree_4_3_u10_r8_network.node[37].content_store 	hits[37] 	3550
scalar tree_4_3_u10_r8_network.node[37].content_store 	misses[37] 	8823
scalar tree_4_3_u10_r8_network.node[37].content_store 	decision_yes[37] 	711
scalar tree_4_3_u10_r8_network.node[37].content_store 	decision_no[37] 	8112
scalar tree_4_3_u10_r8_network.node[37].content_store 	decision_ratio[37] 	0.080584835090105
scalar tree_4_3_u10_r8_network.node[38].core_layer 	interests[38] 	12505
scalar tree_4_3_u10_r8_network.node[38].core_layer 	data[38] 	8867
scalar tree_4_3_u10_r8_network.node[38].content_store 	p_hit[38] 	0.29100359856058
scalar tree_4_3_u10_r8_network.node[38].content_store 	hits[38] 	3639
scalar tree_4_3_u10_r8_network.node[38].content_store 	misses[38] 	8866
scalar tree_4_3_u10_r8_network.node[38].content_store 	decision_yes[38] 	764
scalar tree_4_3_u10_r8_network.node[38].content_store 	decision_no[38] 	8103
scalar tree_4_3_u10_r8_network.node[38].content_store 	decision_ratio[38] 	0.086162174354348
scalar tree_4_3_u10_r8_network.node[39].core_layer 	interests[39] 	12288
scalar tree_4_3_u10_r8_network.node[39].core_layer 	data[39] 	8910
scalar tree_4_3_u10_r8_network.node[39].content_store 	p_hit[39] 	0.27490234375
scalar tree_4_3_u10_r8_network.node[39].content_store 	hits[39] 	3378
scalar tree_4_3_u10_r8_network.node[39].content_store 	misses[39] 	8910
scalar tree_4_3_u10_r8_network.node[39].content_store 	decision_yes[39] 	424
scalar tree_4_3_u10_r8_network.node[39].content_store 	decision_no[39] 	8486
scalar tree_4_3_u10_r8_network.node[39].content_store 	decision_ratio[39] 	0.047586980920314
scalar tree_4_3_u10_r8_network.client[13] 	hdistance[13] 	2.7135914332784
scalar tree_4_3_u10_r8_network.client[13] 	downloads[13] 	12140
scalar tree_4_3_u10_r8_network.client[13] 	avg_time[13] 	0.00419575238
scalar tree_4_3_u10_r8_network.client[14] 	hdistance[14] 	2.6618160651921
scalar tree_4_3_u10_r8_network.client[14] 	downloads[14] 	12026
scalar tree_4_3_u10_r8_network.client[14] 	avg_time[14] 	0.004110258106
scalar tree_4_3_u10_r8_network.client[15] 	hdistance[15] 	2.6471619365609
scalar tree_4_3_u10_r8_network.client[15] 	downloads[15] 	11980
scalar tree_4_3_u10_r8_network.client[15] 	avg_time[15] 	0.004086545024
scalar tree_4_3_u10_r8_network.client[16] 	hdistance[16] 	2.6509639564124
scalar tree_4_3_u10_r8_network.client[16] 	downloads[16] 	11930
scalar tree_4_3_u10_r8_network.client[16] 	avg_time[16] 	0.004092002252
scalar tree_4_3_u10_r8_network.client[17] 	hdistance[17] 	2.6959346884372
scalar tree_4_3_u10_r8_network.client[17] 	downloads[17] 	12004
scalar tree_4_3_u10_r8_network.client[17] 	avg_time[17] 	0.004171273229
scalar tree_4_3_u10_r8_network.client[18] 	hdistance[18] 	2.6540625517127
scalar tree_4_3_u10_r8_network.client[18] 	downloads[18] 	12086
scalar tree_4_3_u10_r8_network.client[18] 	avg_time[18] 	0.004092831659
scalar tree_4_3_u10_r8_network.client[19] 	hdistance[19] 	2.6513185433236
scalar tree_4_3_u10_r8_network.client[19] 	downloads[19] 	11945
scalar tree_4_3_u10_r8_network.client[19] 	avg_time[19] 	0.004095099584
scalar tree_4_3_u10_r8_network.client[20] 	hdistance[20] 	2.6441188781917
scalar tree_4_3_u10_r8_network.client[20] 	downloads[20] 	11945
scalar tree_4_3_u10_r8_network.client[20] 	avg_time[20] 	0.004076012084
scalar tree_4_3_u10_r8_network.client[21] 	hdistance[21] 	2.6836281398918
scalar tree_4_3_u10_r8_network.client[21] 	downloads[21] 	12381
scalar tree_4_3_u10_r8_network.client[21] 	avg_time[21] 	0.004148962046
scalar tree_4_3_u10_r8_network.client[22] 	hdistance[22] 	2.7001998667555
scalar tree_4_3_u10_r8_network.client[22] 	downloads[22] 	12008
scalar tree_4_3_u10_r8_network.client[22] 	avg_time[22] 	0.004184540648
scalar tree_4_3_u10_r8_network.client[23] 	hdistance[23] 	2.6232968881413
scalar tree_4_3_u10_r8_network.client[23] 	downloads[23] 	11890
scalar tree_4_3_u10_r8_network.client[23] 	avg_time[23] 	0.00405449656
scalar tree_4_3_u10_r8_network.client[24] 	hdistance[24] 	2.653599730231
scalar tree_4_3_u10_r8_network.client[24] 	downloads[24] 	11862
scalar tree_4_3_u10_r8_network.client[24] 	avg_time[24] 	0.004095427831
scalar tree_4_3_u10_r8_network.client[25] 	hdistance[25] 	2.6272658925737
scalar tree_4_3_u10_r8_network.client[25] 	downloads[25] 	11971
scalar tree_4_3_u10_r8_network.client[25] 	avg_time[25] 	0.004054458988
scalar tree_4_3_u10_r8_network.client[26] 	hdistance[26] 	2.654988321655
scalar tree_4_3_u10_r8_network.client[26] 	downloads[26] 	11988
scalar tree_4_3_u10_r8_network.client[26] 	avg_time[26] 	0.004104101077
scalar tree_4_3_u10_r8_network.client[27] 	hdistance[27] 	2.6421271292065
scalar tree_4_3_u10_r8_network.client[27] 	downloads[27] 	12035
scalar tree_4_3_u10_r8_network.client[27] 	avg_time[27] 	0.004078933425
scalar tree_4_3_u10_r8_network.client[28] 	hdistance[28] 	2.6410643834467
scalar tree_4_3_u10_r8_network.client[28] 	downloads[28] 	11913
scalar tree_4_3_u10_r8_network.client[28] 	avg_time[28] 	0.004081666546
scalar tree_4_3_u10_r8_network.client[29] 	hdistance[29] 	2.6331899822919
scalar tree_4_3_u10_r8_network.client[29] 	downloads[29] 	11859
scalar tree_4_3_u10_r8_network.client[29] 	avg_time[29] 	0.004060413031
scalar tree_4_3_u10_r8_network.client[30] 	hdistance[30] 	2.6967075424156
scalar tree_4_3_u10_r8_network.client[30] 	downloads[30] 	11906
scalar tree_4_3_u10_r8_network.client[30] 	avg_time[30] 	0.004173016099
scalar tree_4_3_u10_r8_network.client[31] 	hdistance[31] 	2.6831921607706
scalar tree_4_3_u10_r8_network.client[31] 	downloads[31] 	12042
scalar tree_4_3_u10_r8_network.client[31] 	avg_time[31] 	0.004155785097
scalar tree_4_3_u10_r8_network.client[32] 	hdistance[32] 	2.6526647849909
scalar tree_4_3_u10_r8_network.client[32] 	downloads[32] 	12046
scalar tree_4_3_u10_r8_network.client[32] 	avg_time[32] 	0.004093357884
scalar tree_4_3_u10_r8_network.client[33] 	hdistance[33] 	2.6483231579828
scalar tree_4_3_u10_r8_network.client[33] 	downloads[33] 	11957
scalar tree_4_3_u10_r8_network.client[33] 	avg_time[33] 	0.004087309912
scalar tree_4_3_u10_r8_network.client[34] 	hdistance[34] 	2.634364548495
scalar tree_4_3_u10_r8_network.client[34] 	downloads[34] 	11960
scalar tree_4_3_u10_r8_network.client[34] 	avg_time[34] 	0.004067388316
scalar tree_4_3_u10_r8_network.client[35] 	hdistance[35] 	2.6829896907216
scalar tree_4_3_u10_r8_network.client[35] 	downloads[35] 	12028
scalar tree_4_3_u10_r8_network.client[35] 	avg_time[35] 	0.00414499197
scalar tree_4_3_u10_r8_network.client[36] 	hdistance[36] 	2.6486713757148
scalar tree_4_3_u10_r8_network.client[36] 	downloads[36] 	11892
scalar tree_4_3_u10_r8_network.client[36] 	avg_time[36] 	0.004087450763
scalar tree_4_3_u10_r8_network.client[37] 	hdistance[37] 	2.6798984341938
scalar tree_4_3_u10_r8_network.client[37] 	downloads[37] 	11815
scalar tree_4_3_u10_r8_network.client[37] 	avg_time[37] 	0.00413592591
scalar tree_4_3_u10_r8_network.client[38] 	hdistance[38] 	2.6468528553564
scalar tree_4_3_u10_r8_network.client[38] 	downloads[38] 	11995
scalar tree_4_3_u10_r8_network.client[38] 	avg_time[38] 	0.004084032038
scalar tree_4_3_u10_r8_network.client[39] 	hdistance[39] 	2.7123265036352
scalar tree_4_3_u10_r8_network.client[39] 	downloads[39] 	12104
scalar tree_4_3_u10_r8_network.client[39] 	avg_time[39] 	0.004187207812
