version 2
run General-216-20160819-14:36:58-2054
attr a 0.9
attr cd lcd
attr configname General
attr cr lru
attr datetime 20160819-14:36:58
attr experiment General
attr fsize 1
attr inifile hw5115/scenario_A/NRR-LCD.ini
attr iterationvars "$name=tree_4_3, $un=10, $rep=17, $cd=lcd, $cr=lru, $fsize=1, $a=0.9, $sl=nrr, $ttl=1000, $variance=0.05"
attr iterationvars2 "$name=tree_4_3, $un=10, $rep=17, $cd=lcd, $cr=lru, $fsize=1, $a=0.9, $sl=nrr, $ttl=1000, $variance=0.05, $repetition=0"
attr measurement "$name=tree_4_3, $un=10, $rep=17, $cd=lcd, $cr=lru, $fsize=1, $a=0.9, $sl=nrr, $ttl=1000, $variance=0.05"
attr name tree_4_3
attr network networks.${name}_u${un}_r${rep}_network
attr processid 2054
attr rep 17
attr repetition 0
attr replication #0
attr resultdir results
attr runnumber 216
attr seedset 17
attr sl nrr
attr ttl 1000
attr un 10
attr variance 0.05

scalar . 	a 	0.9
scalar . 	fsize 	1
scalar . 	rep 	17
scalar . 	ttl 	1000
scalar . 	un 	10
scalar . 	variance 	0.05
scalar tree_4_3_u10_r17_network.content_distribution 	repo-0 	0
scalar tree_4_3_u10_r17_network.content_distribution 	client-0 	13
scalar tree_4_3_u10_r17_network.content_distribution 	client-1 	14
scalar tree_4_3_u10_r17_network.content_distribution 	client-2 	15
scalar tree_4_3_u10_r17_network.content_distribution 	client-3 	16
scalar tree_4_3_u10_r17_network.content_distribution 	client-4 	17
scalar tree_4_3_u10_r17_network.content_distribution 	client-5 	18
scalar tree_4_3_u10_r17_network.content_distribution 	client-6 	19
scalar tree_4_3_u10_r17_network.content_distribution 	client-7 	20
scalar tree_4_3_u10_r17_network.content_distribution 	client-8 	21
scalar tree_4_3_u10_r17_network.content_distribution 	client-9 	22
scalar tree_4_3_u10_r17_network.content_distribution 	client-10 	23
scalar tree_4_3_u10_r17_network.content_distribution 	client-11 	24
scalar tree_4_3_u10_r17_network.content_distribution 	client-12 	25
scalar tree_4_3_u10_r17_network.content_distribution 	client-13 	26
scalar tree_4_3_u10_r17_network.content_distribution 	client-14 	27
scalar tree_4_3_u10_r17_network.content_distribution 	client-15 	28
scalar tree_4_3_u10_r17_network.content_distribution 	client-16 	29
scalar tree_4_3_u10_r17_network.content_distribution 	client-17 	30
scalar tree_4_3_u10_r17_network.content_distribution 	client-18 	31
scalar tree_4_3_u10_r17_network.content_distribution 	client-19 	32
scalar tree_4_3_u10_r17_network.content_distribution 	client-20 	33
scalar tree_4_3_u10_r17_network.content_distribution 	client-21 	34
scalar tree_4_3_u10_r17_network.content_distribution 	client-22 	35
scalar tree_4_3_u10_r17_network.content_distribution 	client-23 	36
scalar tree_4_3_u10_r17_network.content_distribution 	client-24 	37
scalar tree_4_3_u10_r17_network.content_distribution 	client-25 	38
scalar tree_4_3_u10_r17_network.content_distribution 	client-26 	39
scalar tree_4_3_u10_r17_network.content_distribution 	repo-0_card 	100000
scalar tree_4_3_u10_r17_network.content_distribution 	repo-0_price 	0
scalar tree_4_3_u10_r17_network.statistics 	stabilization_time 	717.7
scalar tree_4_3_u10_r17_network.statistics 	p_hit 	0.22857366023902
scalar tree_4_3_u10_r17_network.statistics 	interests 	24676.275
scalar tree_4_3_u10_r17_network.statistics 	data 	16594.25
scalar tree_4_3_u10_r17_network.statistics 	hdistance 	2.659981476034
scalar tree_4_3_u10_r17_network.statistics 	avg_time 	0.004106436943
scalar tree_4_3_u10_r17_network.statistics 	downloads 	323281
scalar tree_4_3_u10_r17_network.statistics 	total_cost 	0
scalar tree_4_3_u10_r17_network.statistics 	total_replicas 	100000
scalar tree_4_3_u10_r17_network.statistics 	inner_hit 	0.39324303005744
scalar tree_4_3_u10_r17_network.node[0].core_layer 	interests[0] 	197342
scalar tree_4_3_u10_r17_network.node[0].core_layer 	repo_load[0] 	196153
scalar tree_4_3_u10_r17_network.node[0].core_layer 	data[0] 	0
scalar tree_4_3_u10_r17_network.node[0].core_layer 	repo_int[0] 	196153
scalar tree_4_3_u10_r17_network.node[0].content_store 	p_hit[0] 	0.0060250732231355
scalar tree_4_3_u10_r17_network.node[0].content_store 	hits[0] 	1189
scalar tree_4_3_u10_r17_network.node[0].content_store 	misses[0] 	196153
scalar tree_4_3_u10_r17_network.node[0].content_store 	decision_yes[0] 	196153
scalar tree_4_3_u10_r17_network.node[0].content_store 	decision_no[0] 	0
scalar tree_4_3_u10_r17_network.node[0].content_store 	decision_ratio[0] 	1
scalar tree_4_3_u10_r17_network.node[1].core_layer 	interests[1] 	143033
scalar tree_4_3_u10_r17_network.node[1].core_layer 	data[1] 	140657
scalar tree_4_3_u10_r17_network.node[1].content_store 	p_hit[1] 	0.016583585606119
scalar tree_4_3_u10_r17_network.node[1].content_store 	hits[1] 	2372
scalar tree_4_3_u10_r17_network.node[1].content_store 	misses[1] 	140661
scalar tree_4_3_u10_r17_network.node[1].content_store 	decision_yes[1] 	2487
scalar tree_4_3_u10_r17_network.node[1].content_store 	decision_no[1] 	138170
scalar tree_4_3_u10_r17_network.node[1].content_store 	decision_ratio[1] 	0.017681309853047
scalar tree_4_3_u10_r17_network.node[2].core_layer 	interests[2] 	55701
scalar tree_4_3_u10_r17_network.node[2].core_layer 	data[2] 	53184
scalar tree_4_3_u10_r17_network.node[2].content_store 	p_hit[2] 	0.045223604603149
scalar tree_4_3_u10_r17_network.node[2].content_store 	hits[2] 	2519
scalar tree_4_3_u10_r17_network.node[2].content_store 	misses[2] 	53182
scalar tree_4_3_u10_r17_network.node[2].content_store 	decision_yes[2] 	1647
scalar tree_4_3_u10_r17_network.node[2].content_store 	decision_no[2] 	51537
scalar tree_4_3_u10_r17_network.node[2].content_store 	decision_ratio[2] 	0.030967960288809
scalar tree_4_3_u10_r17_network.node[3].core_layer 	interests[3] 	11218
scalar tree_4_3_u10_r17_network.node[3].core_layer 	data[3] 	8686
scalar tree_4_3_u10_r17_network.node[3].content_store 	p_hit[3] 	0.22570868247459
scalar tree_4_3_u10_r17_network.node[3].content_store 	hits[3] 	2532
scalar tree_4_3_u10_r17_network.node[3].content_store 	misses[3] 	8686
scalar tree_4_3_u10_r17_network.node[3].content_store 	decision_yes[3] 	1107
scalar tree_4_3_u10_r17_network.node[3].content_store 	decision_no[3] 	7579
scalar tree_4_3_u10_r17_network.node[3].content_store 	decision_ratio[3] 	0.12744646557679
scalar tree_4_3_u10_r17_network.node[4].core_layer 	interests[4] 	41333
scalar tree_4_3_u10_r17_network.node[4].core_layer 	data[4] 	39299
scalar tree_4_3_u10_r17_network.node[4].content_store 	p_hit[4] 	0.049210074274793
scalar tree_4_3_u10_r17_network.node[4].content_store 	hits[4] 	2034
scalar tree_4_3_u10_r17_network.node[4].content_store 	misses[4] 	39299
scalar tree_4_3_u10_r17_network.node[4].content_store 	decision_yes[4] 	2065
scalar tree_4_3_u10_r17_network.node[4].content_store 	decision_no[4] 	37234
scalar tree_4_3_u10_r17_network.node[4].content_store 	decision_ratio[4] 	0.052545866307031
scalar tree_4_3_u10_r17_network.node[5].core_layer 	interests[5] 	27479
scalar tree_4_3_u10_r17_network.node[5].core_layer 	data[5] 	25118
scalar tree_4_3_u10_r17_network.node[5].content_store 	p_hit[5] 	0.085920157210961
scalar tree_4_3_u10_r17_network.node[5].content_store 	hits[5] 	2361
scalar tree_4_3_u10_r17_network.node[5].content_store 	misses[5] 	25118
scalar tree_4_3_u10_r17_network.node[5].content_store 	decision_yes[5] 	2497
scalar tree_4_3_u10_r17_network.node[5].content_store 	decision_no[5] 	22621
scalar tree_4_3_u10_r17_network.node[5].content_store 	decision_ratio[5] 	0.099410781113146
scalar tree_4_3_u10_r17_network.node[6].core_layer 	interests[6] 	12184
scalar tree_4_3_u10_r17_network.node[6].core_layer 	data[6] 	9770
scalar tree_4_3_u10_r17_network.node[6].content_store 	p_hit[6] 	0.19812869336835
scalar tree_4_3_u10_r17_network.node[6].content_store 	hits[6] 	2414
scalar tree_4_3_u10_r17_network.node[6].content_store 	misses[6] 	9770
scalar tree_4_3_u10_r17_network.node[6].content_store 	decision_yes[6] 	2130
scalar tree_4_3_u10_r17_network.node[6].content_store 	decision_no[6] 	7640
scalar tree_4_3_u10_r17_network.node[6].content_store 	decision_ratio[6] 	0.21801432958035
scalar tree_4_3_u10_r17_network.node[7].core_layer 	interests[7] 	42648
scalar tree_4_3_u10_r17_network.node[7].core_layer 	data[7] 	40212
scalar tree_4_3_u10_r17_network.node[7].content_store 	p_hit[7] 	0.057095291690114
scalar tree_4_3_u10_r17_network.node[7].content_store 	hits[7] 	2435
scalar tree_4_3_u10_r17_network.node[7].content_store 	misses[7] 	40213
scalar tree_4_3_u10_r17_network.node[7].content_store 	decision_yes[7] 	2919
scalar tree_4_3_u10_r17_network.node[7].content_store 	decision_no[7] 	37292
scalar tree_4_3_u10_r17_network.node[7].content_store 	decision_ratio[7] 	0.072592076794907
scalar tree_4_3_u10_r17_network.node[8].core_layer 	interests[8] 	26272
scalar tree_4_3_u10_r17_network.node[8].core_layer 	data[8] 	24200
scalar tree_4_3_u10_r17_network.node[8].content_store 	p_hit[8] 	0.078867235079172
scalar tree_4_3_u10_r17_network.node[8].content_store 	hits[8] 	2072
scalar tree_4_3_u10_r17_network.node[8].content_store 	misses[8] 	24200
scalar tree_4_3_u10_r17_network.node[8].content_store 	decision_yes[8] 	1709
scalar tree_4_3_u10_r17_network.node[8].content_store 	decision_no[8] 	22491
scalar tree_4_3_u10_r17_network.node[8].content_store 	decision_ratio[8] 	0.070619834710744
scalar tree_4_3_u10_r17_network.node[9].core_layer 	interests[9] 	12474
scalar tree_4_3_u10_r17_network.node[9].core_layer 	data[9] 	9959
scalar tree_4_3_u10_r17_network.node[9].content_store 	p_hit[9] 	0.20169953503287
scalar tree_4_3_u10_r17_network.node[9].content_store 	hits[9] 	2516
scalar tree_4_3_u10_r17_network.node[9].content_store 	misses[9] 	9958
scalar tree_4_3_u10_r17_network.node[9].content_store 	decision_yes[9] 	2138
scalar tree_4_3_u10_r17_network.node[9].content_store 	decision_no[9] 	7821
scalar tree_4_3_u10_r17_network.node[9].content_store 	decision_ratio[9] 	0.21468018877397
scalar tree_4_3_u10_r17_network.node[10].core_layer 	interests[10] 	42493
scalar tree_4_3_u10_r17_network.node[10].core_layer 	data[10] 	40004
scalar tree_4_3_u10_r17_network.node[10].content_store 	p_hit[10] 	0.058574353422917
scalar tree_4_3_u10_r17_network.node[10].content_store 	hits[10] 	2489
scalar tree_4_3_u10_r17_network.node[10].content_store 	misses[10] 	40004
scalar tree_4_3_u10_r17_network.node[10].content_store 	decision_yes[10] 	3038
scalar tree_4_3_u10_r17_network.node[10].content_store 	decision_no[10] 	36966
scalar tree_4_3_u10_r17_network.node[10].content_store 	decision_ratio[10] 	0.075942405759424
scalar tree_4_3_u10_r17_network.node[11].core_layer 	interests[11] 	27735
scalar tree_4_3_u10_r17_network.node[11].core_layer 	data[11] 	25301
scalar tree_4_3_u10_r17_network.node[11].content_store 	p_hit[11] 	0.087795204615107
scalar tree_4_3_u10_r17_network.node[11].content_store 	hits[11] 	2435
scalar tree_4_3_u10_r17_network.node[11].content_store 	misses[11] 	25300
scalar tree_4_3_u10_r17_network.node[11].content_store 	decision_yes[11] 	2528
scalar tree_4_3_u10_r17_network.node[11].content_store 	decision_no[11] 	22773
scalar tree_4_3_u10_r17_network.node[11].content_store 	decision_ratio[11] 	0.09991699932809
scalar tree_4_3_u10_r17_network.node[12].core_layer 	interests[12] 	10952
scalar tree_4_3_u10_r17_network.node[12].core_layer 	data[12] 	8995
scalar tree_4_3_u10_r17_network.node[12].content_store 	p_hit[12] 	0.17868882395909
scalar tree_4_3_u10_r17_network.node[12].content_store 	hits[12] 	1957
scalar tree_4_3_u10_r17_network.node[12].content_store 	misses[12] 	8995
scalar tree_4_3_u10_r17_network.node[12].content_store 	decision_yes[12] 	1303
scalar tree_4_3_u10_r17_network.node[12].content_store 	decision_no[12] 	7692
scalar tree_4_3_u10_r17_network.node[12].content_store 	decision_ratio[12] 	0.14485825458588
scalar tree_4_3_u10_r17_network.node[13].core_layer 	interests[13] 	12171
scalar tree_4_3_u10_r17_network.node[13].core_layer 	data[13] 	8672
scalar tree_4_3_u10_r17_network.node[13].content_store 	p_hit[13] 	0.28748664859091
scalar tree_4_3_u10_r17_network.node[13].content_store 	hits[13] 	3499
scalar tree_4_3_u10_r17_network.node[13].content_store 	misses[13] 	8672
scalar tree_4_3_u10_r17_network.node[13].content_store 	decision_yes[13] 	356
scalar tree_4_3_u10_r17_network.node[13].content_store 	decision_no[13] 	8316
scalar tree_4_3_u10_r17_network.node[13].content_store 	decision_ratio[13] 	0.041051660516605
scalar tree_4_3_u10_r17_network.node[14].core_layer 	interests[14] 	12493
scalar tree_4_3_u10_r17_network.node[14].core_layer 	data[14] 	8825
scalar tree_4_3_u10_r17_network.node[14].content_store 	p_hit[14] 	0.29360441847435
scalar tree_4_3_u10_r17_network.node[14].content_store 	hits[14] 	3668
scalar tree_4_3_u10_r17_network.node[14].content_store 	misses[14] 	8825
scalar tree_4_3_u10_r17_network.node[14].content_store 	decision_yes[14] 	725
scalar tree_4_3_u10_r17_network.node[14].content_store 	decision_no[14] 	8100
scalar tree_4_3_u10_r17_network.node[14].content_store 	decision_ratio[14] 	0.082152974504249
scalar tree_4_3_u10_r17_network.node[15].core_layer 	interests[15] 	12501
scalar tree_4_3_u10_r17_network.node[15].core_layer 	data[15] 	8883
scalar tree_4_3_u10_r17_network.node[15].content_store 	p_hit[15] 	0.28941684665227
scalar tree_4_3_u10_r17_network.node[15].content_store 	hits[15] 	3618
scalar tree_4_3_u10_r17_network.node[15].content_store 	misses[15] 	8883
scalar tree_4_3_u10_r17_network.node[15].content_store 	decision_yes[15] 	719
scalar tree_4_3_u10_r17_network.node[15].content_store 	decision_no[15] 	8164
scalar tree_4_3_u10_r17_network.node[15].content_store 	decision_ratio[15] 	0.080941123494315
scalar tree_4_3_u10_r17_network.node[16].core_layer 	interests[16] 	12570
scalar tree_4_3_u10_r17_network.node[16].core_layer 	data[16] 	8807
scalar tree_4_3_u10_r17_network.node[16].content_store 	p_hit[16] 	0.29928400954654
scalar tree_4_3_u10_r17_network.node[16].content_store 	hits[16] 	3762
scalar tree_4_3_u10_r17_network.node[16].content_store 	misses[16] 	8808
scalar tree_4_3_u10_r17_network.node[16].content_store 	decision_yes[16] 	648
scalar tree_4_3_u10_r17_network.node[16].content_store 	decision_no[16] 	8159
scalar tree_4_3_u10_r17_network.node[16].content_store 	decision_ratio[16] 	0.073577835812422
scalar tree_4_3_u10_r17_network.node[17].core_layer 	interests[17] 	12446
scalar tree_4_3_u10_r17_network.node[17].core_layer 	data[17] 	8966
scalar tree_4_3_u10_r17_network.node[17].content_store 	p_hit[17] 	0.27960790615459
scalar tree_4_3_u10_r17_network.node[17].content_store 	hits[17] 	3480
scalar tree_4_3_u10_r17_network.node[17].content_store 	misses[17] 	8966
scalar tree_4_3_u10_r17_network.node[17].content_store 	decision_yes[17] 	379
scalar tree_4_3_u10_r17_network.node[17].content_store 	decision_no[17] 	8587
scalar tree_4_3_u10_r17_network.node[17].content_store 	decision_ratio[17] 	0.042270800803034
scalar tree_4_3_u10_r17_network.node[18].core_layer 	interests[18] 	12694
scalar tree_4_3_u10_r17_network.node[18].core_layer 	data[18] 	9008
scalar tree_4_3_u10_r17_network.node[18].content_store 	p_hit[18] 	0.29037340475815
scalar tree_4_3_u10_r17_network.node[18].content_store 	hits[18] 	3686
scalar tree_4_3_u10_r17_network.node[18].content_store 	misses[18] 	9008
scalar tree_4_3_u10_r17_network.node[18].content_store 	decision_yes[18] 	783
scalar tree_4_3_u10_r17_network.node[18].content_store 	decision_no[18] 	8225
scalar tree_4_3_u10_r17_network.node[18].content_store 	decision_ratio[18] 	0.086922735346359
scalar tree_4_3_u10_r17_network.node[19].core_layer 	interests[19] 	12506
scalar tree_4_3_u10_r17_network.node[19].core_layer 	data[19] 	8737
scalar tree_4_3_u10_r17_network.node[19].content_store 	p_hit[19] 	0.30137533983688
scalar tree_4_3_u10_r17_network.node[19].content_store 	hits[19] 	3769
scalar tree_4_3_u10_r17_network.node[19].content_store 	misses[19] 	8737
scalar tree_4_3_u10_r17_network.node[19].content_store 	decision_yes[19] 	718
scalar tree_4_3_u10_r17_network.node[19].content_store 	decision_no[19] 	8019
scalar tree_4_3_u10_r17_network.node[19].content_store 	decision_ratio[19] 	0.082179237724619
scalar tree_4_3_u10_r17_network.node[20].core_layer 	interests[20] 	12401
scalar tree_4_3_u10_r17_network.node[20].core_layer 	data[20] 	8774
scalar tree_4_3_u10_r17_network.node[20].content_store 	p_hit[20] 	0.29247641319248
scalar tree_4_3_u10_r17_network.node[20].content_store 	hits[20] 	3627
scalar tree_4_3_u10_r17_network.node[20].content_store 	misses[20] 	8774
scalar tree_4_3_u10_r17_network.node[20].content_store 	decision_yes[20] 	759
scalar tree_4_3_u10_r17_network.node[20].content_store 	decision_no[20] 	8015
scalar tree_4_3_u10_r17_network.node[20].content_store 	decision_ratio[20] 	0.086505584682015
scalar tree_4_3_u10_r17_network.node[21].core_layer 	interests[21] 	12114
scalar tree_4_3_u10_r17_network.node[21].core_layer 	data[21] 	8617
scalar tree_4_3_u10_r17_network.node[21].content_store 	p_hit[21] 	0.28867426118541
scalar tree_4_3_u10_r17_network.node[21].content_store 	hits[21] 	3497
scalar tree_4_3_u10_r17_network.node[21].content_store 	misses[21] 	8617
scalar tree_4_3_u10_r17_network.node[21].content_store 	decision_yes[21] 	385
scalar tree_4_3_u10_r17_network.node[21].content_store 	decision_no[21] 	8232
scalar tree_4_3_u10_r17_network.node[21].content_store 	decision_ratio[21] 	0.0446791226645
scalar tree_4_3_u10_r17_network.node[22].core_layer 	interests[22] 	12408
scalar tree_4_3_u10_r17_network.node[22].core_layer 	data[22] 	8931
scalar tree_4_3_u10_r17_network.node[22].content_store 	p_hit[22] 	0.28014184397163
scalar tree_4_3_u10_r17_network.node[22].content_store 	hits[22] 	3476
scalar tree_4_3_u10_r17_network.node[22].content_store 	misses[22] 	8932
scalar tree_4_3_u10_r17_network.node[22].content_store 	decision_yes[22] 	408
scalar tree_4_3_u10_r17_network.node[22].content_store 	decision_no[22] 	8523
scalar tree_4_3_u10_r17_network.node[22].content_store 	decision_ratio[22] 	0.045683574067854
scalar tree_4_3_u10_r17_network.node[23].core_layer 	interests[23] 	12617
scalar tree_4_3_u10_r17_network.node[23].core_layer 	data[23] 	8847
scalar tree_4_3_u10_r17_network.node[23].content_store 	p_hit[23] 	0.29880320202901
scalar tree_4_3_u10_r17_network.node[23].content_store 	hits[23] 	3770
scalar tree_4_3_u10_r17_network.node[23].content_store 	misses[23] 	8847
scalar tree_4_3_u10_r17_network.node[23].content_store 	decision_yes[23] 	721
scalar tree_4_3_u10_r17_network.node[23].content_store 	decision_no[23] 	8126
scalar tree_4_3_u10_r17_network.node[23].content_store 	decision_ratio[23] 	0.081496552503674
scalar tree_4_3_u10_r17_network.node[24].core_layer 	interests[24] 	12561
scalar tree_4_3_u10_r17_network.node[24].core_layer 	data[24] 	8916
scalar tree_4_3_u10_r17_network.node[24].content_store 	p_hit[24] 	0.29018390255553
scalar tree_4_3_u10_r17_network.node[24].content_store 	hits[24] 	3645
scalar tree_4_3_u10_r17_network.node[24].content_store 	misses[24] 	8916
scalar tree_4_3_u10_r17_network.node[24].content_store 	decision_yes[24] 	800
scalar tree_4_3_u10_r17_network.node[24].content_store 	decision_no[24] 	8116
scalar tree_4_3_u10_r17_network.node[24].content_store 	decision_ratio[24] 	0.089726334679228
scalar tree_4_3_u10_r17_network.node[25].core_layer 	interests[25] 	12302
scalar tree_4_3_u10_r17_network.node[25].core_layer 	data[25] 	8612
scalar tree_4_3_u10_r17_network.node[25].content_store 	p_hit[25] 	0.29995122744269
scalar tree_4_3_u10_r17_network.node[25].content_store 	hits[25] 	3690
scalar tree_4_3_u10_r17_network.node[25].content_store 	misses[25] 	8612
scalar tree_4_3_u10_r17_network.node[25].content_store 	decision_yes[25] 	667
scalar tree_4_3_u10_r17_network.node[25].content_store 	decision_no[25] 	7945
scalar tree_4_3_u10_r17_network.node[25].content_store 	decision_ratio[25] 	0.077450069670228
scalar tree_4_3_u10_r17_network.node[26].core_layer 	interests[26] 	12090
scalar tree_4_3_u10_r17_network.node[26].core_layer 	data[26] 	8699
scalar tree_4_3_u10_r17_network.node[26].content_store 	p_hit[26] 	0.28047973531845
scalar tree_4_3_u10_r17_network.node[26].content_store 	hits[26] 	3391
scalar tree_4_3_u10_r17_network.node[26].content_store 	misses[26] 	8699
scalar tree_4_3_u10_r17_network.node[26].content_store 	decision_yes[26] 	384
scalar tree_4_3_u10_r17_network.node[26].content_store 	decision_no[26] 	8315
scalar tree_4_3_u10_r17_network.node[26].content_store 	decision_ratio[26] 	0.044143004943097
scalar tree_4_3_u10_r17_network.node[27].core_layer 	interests[27] 	12448
scalar tree_4_3_u10_r17_network.node[27].core_layer 	data[27] 	8854
scalar tree_4_3_u10_r17_network.node[27].content_store 	p_hit[27] 	0.28872107969152
scalar tree_4_3_u10_r17_network.node[27].content_store 	hits[27] 	3594
scalar tree_4_3_u10_r17_network.node[27].content_store 	misses[27] 	8854
scalar tree_4_3_u10_r17_network.node[27].content_store 	decision_yes[27] 	762
scalar tree_4_3_u10_r17_network.node[27].content_store 	decision_no[27] 	8092
scalar tree_4_3_u10_r17_network.node[27].content_store 	decision_ratio[27] 	0.086062796476169
scalar tree_4_3_u10_r17_network.node[28].core_layer 	interests[28] 	12680
scalar tree_4_3_u10_r17_network.node[28].core_layer 	data[28] 	8951
scalar tree_4_3_u10_r17_network.node[28].content_store 	p_hit[28] 	0.29408517350158
scalar tree_4_3_u10_r17_network.node[28].content_store 	hits[28] 	3729
scalar tree_4_3_u10_r17_network.node[28].content_store 	misses[28] 	8951
scalar tree_4_3_u10_r17_network.node[28].content_store 	decision_yes[28] 	718
scalar tree_4_3_u10_r17_network.node[28].content_store 	decision_no[28] 	8233
scalar tree_4_3_u10_r17_network.node[28].content_store 	decision_ratio[28] 	0.080214501173053
scalar tree_4_3_u10_r17_network.node[29].core_layer 	interests[29] 	12617
scalar tree_4_3_u10_r17_network.node[29].core_layer 	data[29] 	8921
scalar tree_4_3_u10_r17_network.node[29].content_store 	p_hit[29] 	0.29293809938971
scalar tree_4_3_u10_r17_network.node[29].content_store 	hits[29] 	3696
scalar tree_4_3_u10_r17_network.node[29].content_store 	misses[29] 	8921
scalar tree_4_3_u10_r17_network.node[29].content_store 	decision_yes[29] 	746
scalar tree_4_3_u10_r17_network.node[29].content_store 	decision_no[29] 	8175
scalar tree_4_3_u10_r17_network.node[29].content_store 	decision_ratio[29] 	0.083622912229571
scalar tree_4_3_u10_r17_network.node[30].core_layer 	interests[30] 	12335
scalar tree_4_3_u10_r17_network.node[30].core_layer 	data[30] 	8894
scalar tree_4_3_u10_r17_network.node[30].content_store 	p_hit[30] 	0.27904337251723
scalar tree_4_3_u10_r17_network.node[30].content_store 	hits[30] 	3442
scalar tree_4_3_u10_r17_network.node[30].content_store 	misses[30] 	8893
scalar tree_4_3_u10_r17_network.node[30].content_store 	decision_yes[30] 	421
scalar tree_4_3_u10_r17_network.node[30].content_store 	decision_no[30] 	8473
scalar tree_4_3_u10_r17_network.node[30].content_store 	decision_ratio[30] 	0.047335282212728
scalar tree_4_3_u10_r17_network.node[31].core_layer 	interests[31] 	12160
scalar tree_4_3_u10_r17_network.node[31].core_layer 	data[31] 	8668
scalar tree_4_3_u10_r17_network.node[31].content_store 	p_hit[31] 	0.28717105263158
scalar tree_4_3_u10_r17_network.node[31].content_store 	hits[31] 	3492
scalar tree_4_3_u10_r17_network.node[31].content_store 	misses[31] 	8668
scalar tree_4_3_u10_r17_network.node[31].content_store 	decision_yes[31] 	398
scalar tree_4_3_u10_r17_network.node[31].content_store 	decision_no[31] 	8270
scalar tree_4_3_u10_r17_network.node[31].content_store 	decision_ratio[31] 	0.045916012921089
scalar tree_4_3_u10_r17_network.node[32].core_layer 	interests[32] 	12563
scalar tree_4_3_u10_r17_network.node[32].core_layer 	data[32] 	8840
scalar tree_4_3_u10_r17_network.node[32].content_store 	p_hit[32] 	0.29634641407307
scalar tree_4_3_u10_r17_network.node[32].content_store 	hits[32] 	3723
scalar tree_4_3_u10_r17_network.node[32].content_store 	misses[32] 	8840
scalar tree_4_3_u10_r17_network.node[32].content_store 	decision_yes[32] 	804
scalar tree_4_3_u10_r17_network.node[32].content_store 	decision_no[32] 	8036
scalar tree_4_3_u10_r17_network.node[32].content_store 	decision_ratio[32] 	0.090950226244344
scalar tree_4_3_u10_r17_network.node[33].core_layer 	interests[33] 	12494
scalar tree_4_3_u10_r17_network.node[33].core_layer 	data[33] 	8841
scalar tree_4_3_u10_r17_network.node[33].content_store 	p_hit[33] 	0.29238034256443
scalar tree_4_3_u10_r17_network.node[33].content_store 	hits[33] 	3653
scalar tree_4_3_u10_r17_network.node[33].content_store 	misses[33] 	8841
scalar tree_4_3_u10_r17_network.node[33].content_store 	decision_yes[33] 	692
scalar tree_4_3_u10_r17_network.node[33].content_store 	decision_no[33] 	8149
scalar tree_4_3_u10_r17_network.node[33].content_store 	decision_ratio[33] 	0.078271688722995
scalar tree_4_3_u10_r17_network.node[34].core_layer 	interests[34] 	12668
scalar tree_4_3_u10_r17_network.node[34].core_layer 	data[34] 	8906
scalar tree_4_3_u10_r17_network.node[34].content_store 	p_hit[34] 	0.29696874013262
scalar tree_4_3_u10_r17_network.node[34].content_store 	hits[34] 	3762
scalar tree_4_3_u10_r17_network.node[34].content_store 	misses[34] 	8906
scalar tree_4_3_u10_r17_network.node[34].content_store 	decision_yes[34] 	725
scalar tree_4_3_u10_r17_network.node[34].content_store 	decision_no[34] 	8181
scalar tree_4_3_u10_r17_network.node[34].content_store 	decision_ratio[34] 	0.081405793846845
scalar tree_4_3_u10_r17_network.node[35].core_layer 	interests[35] 	12301
scalar tree_4_3_u10_r17_network.node[35].core_layer 	data[35] 	8795
scalar tree_4_3_u10_r17_network.node[35].content_store 	p_hit[35] 	0.2850174782538
scalar tree_4_3_u10_r17_network.node[35].content_store 	hits[35] 	3506
scalar tree_4_3_u10_r17_network.node[35].content_store 	misses[35] 	8795
scalar tree_4_3_u10_r17_network.node[35].content_store 	decision_yes[35] 	403
scalar tree_4_3_u10_r17_network.node[35].content_store 	decision_no[35] 	8392
scalar tree_4_3_u10_r17_network.node[35].content_store 	decision_ratio[35] 	0.045821489482661
scalar tree_4_3_u10_r17_network.node[36].core_layer 	interests[36] 	12432
scalar tree_4_3_u10_r17_network.node[36].core_layer 	data[36] 	8814
scalar tree_4_3_u10_r17_network.node[36].content_store 	p_hit[36] 	0.29102316602317
scalar tree_4_3_u10_r17_network.node[36].content_store 	hits[36] 	3618
scalar tree_4_3_u10_r17_network.node[36].content_store 	misses[36] 	8814
scalar tree_4_3_u10_r17_network.node[36].content_store 	decision_yes[36] 	719
scalar tree_4_3_u10_r17_network.node[36].content_store 	decision_no[36] 	8095
scalar tree_4_3_u10_r17_network.node[36].content_store 	decision_ratio[36] 	0.081574767415475
scalar tree_4_3_u10_r17_network.node[37].core_layer 	interests[37] 	12625
scalar tree_4_3_u10_r17_network.node[37].core_layer 	data[37] 	8894
scalar tree_4_3_u10_r17_network.node[37].content_store 	p_hit[37] 	0.29552475247525
scalar tree_4_3_u10_r17_network.node[37].content_store 	hits[37] 	3731
scalar tree_4_3_u10_r17_network.node[37].content_store 	misses[37] 	8894
scalar tree_4_3_u10_r17_network.node[37].content_store 	decision_yes[37] 	741
scalar tree_4_3_u10_r17_network.node[37].content_store 	decision_no[37] 	8153
scalar tree_4_3_u10_r17_network.node[37].content_store 	decision_ratio[37] 	0.083314594108388
scalar tree_4_3_u10_r17_network.node[38].core_layer 	interests[38] 	12780
scalar tree_4_3_u10_r17_network.node[38].core_layer 	data[38] 	9046
scalar tree_4_3_u10_r17_network.node[38].content_store 	p_hit[38] 	0.29217527386541
scalar tree_4_3_u10_r17_network.node[38].content_store 	hits[38] 	3734
scalar tree_4_3_u10_r17_network.node[38].content_store 	misses[38] 	9046
scalar tree_4_3_u10_r17_network.node[38].content_store 	decision_yes[38] 	726
scalar tree_4_3_u10_r17_network.node[38].content_store 	decision_no[38] 	8320
scalar tree_4_3_u10_r17_network.node[38].content_store 	decision_ratio[38] 	0.080256466946717
scalar tree_4_3_u10_r17_network.node[39].core_layer 	interests[39] 	12210
scalar tree_4_3_u10_r17_network.node[39].core_layer 	data[39] 	8667
scalar tree_4_3_u10_r17_network.node[39].content_store 	p_hit[39] 	0.29017199017199
scalar tree_4_3_u10_r17_network.node[39].content_store 	hits[39] 	3543
scalar tree_4_3_u10_r17_network.node[39].content_store 	misses[39] 	8667
scalar tree_4_3_u10_r17_network.node[39].content_store 	decision_yes[39] 	354
scalar tree_4_3_u10_r17_network.node[39].content_store 	decision_no[39] 	8313
scalar tree_4_3_u10_r17_network.node[39].content_store 	decision_ratio[39] 	0.040844582900658
scalar tree_4_3_u10_r17_network.client[13] 	hdistance[13] 	2.6865759408602
scalar tree_4_3_u10_r17_network.client[13] 	downloads[13] 	11904
scalar tree_4_3_u10_r17_network.client[13] 	avg_time[13] 	0.004157986771
scalar tree_4_3_u10_r17_network.client[14] 	hdistance[14] 	2.6506326992374
scalar tree_4_3_u10_r17_network.client[14] 	downloads[14] 	11933
scalar tree_4_3_u10_r17_network.client[14] 	avg_time[14] 	0.004087485484
scalar tree_4_3_u10_r17_network.client[15] 	hdistance[15] 	2.6720160481444
scalar tree_4_3_u10_r17_network.client[15] 	downloads[15] 	11964
scalar tree_4_3_u10_r17_network.client[15] 	avg_time[15] 	0.004116680409
scalar tree_4_3_u10_r17_network.client[16] 	hdistance[16] 	2.6585610428679
scalar tree_4_3_u10_r17_network.client[16] 	downloads[16] 	11967
scalar tree_4_3_u10_r17_network.client[16] 	avg_time[16] 	0.004098169851
scalar tree_4_3_u10_r17_network.client[17] 	hdistance[17] 	2.6972839506173
scalar tree_4_3_u10_r17_network.client[17] 	downloads[17] 	12150
scalar tree_4_3_u10_r17_network.client[17] 	avg_time[17] 	0.004174082791
scalar tree_4_3_u10_r17_network.client[18] 	hdistance[18] 	2.6339998354316
scalar tree_4_3_u10_r17_network.client[18] 	downloads[18] 	12153
scalar tree_4_3_u10_r17_network.client[18] 	avg_time[18] 	0.004067470037
scalar tree_4_3_u10_r17_network.client[19] 	hdistance[19] 	2.6320033599328
scalar tree_4_3_u10_r17_network.client[19] 	downloads[19] 	11905
scalar tree_4_3_u10_r17_network.client[19] 	avg_time[19] 	0.00405980383
scalar tree_4_3_u10_r17_network.client[20] 	hdistance[20] 	2.6407914764079
scalar tree_4_3_u10_r17_network.client[20] 	downloads[20] 	11826
scalar tree_4_3_u10_r17_network.client[20] 	avg_time[20] 	0.004073732866
scalar tree_4_3_u10_r17_network.client[21] 	hdistance[21] 	2.6686430628494
scalar tree_4_3_u10_r17_network.client[21] 	downloads[21] 	11806
scalar tree_4_3_u10_r17_network.client[21] 	avg_time[21] 	0.004125357015
scalar tree_4_3_u10_r17_network.client[22] 	hdistance[22] 	2.6901396809654
scalar tree_4_3_u10_r17_network.client[22] 	downloads[22] 	12099
scalar tree_4_3_u10_r17_network.client[22] 	avg_time[22] 	0.004163526335
scalar tree_4_3_u10_r17_network.client[23] 	hdistance[23] 	2.6451236778546
scalar tree_4_3_u10_r17_network.client[23] 	downloads[23] 	12007
scalar tree_4_3_u10_r17_network.client[23] 	avg_time[23] 	0.004077285259
scalar tree_4_3_u10_r17_network.client[24] 	hdistance[24] 	2.6434659090909
scalar tree_4_3_u10_r17_network.client[24] 	downloads[24] 	11968
scalar tree_4_3_u10_r17_network.client[24] 	avg_time[24] 	0.004081213582
scalar tree_4_3_u10_r17_network.client[25] 	hdistance[25] 	2.6492486338798
scalar tree_4_3_u10_r17_network.client[25] 	downloads[25] 	11712
scalar tree_4_3_u10_r17_network.client[25] 	avg_time[25] 	0.004082818125
scalar tree_4_3_u10_r17_network.client[26] 	hdistance[26] 	2.7134527632246
scalar tree_4_3_u10_r17_network.client[26] 	downloads[26] 	11834
scalar tree_4_3_u10_r17_network.client[26] 	avg_time[26] 	0.004197225328
scalar tree_4_3_u10_r17_network.client[27] 	hdistance[27] 	2.653340038555
scalar tree_4_3_u10_r17_network.client[27] 	downloads[27] 	11931
scalar tree_4_3_u10_r17_network.client[27] 	avg_time[27] 	0.004089679354
scalar tree_4_3_u10_r17_network.client[28] 	hdistance[28] 	2.6572306159721
scalar tree_4_3_u10_r17_network.client[28] 	downloads[28] 	12046
scalar tree_4_3_u10_r17_network.client[28] 	avg_time[28] 	0.00409812087
scalar tree_4_3_u10_r17_network.client[29] 	hdistance[29] 	2.6445124979308
scalar tree_4_3_u10_r17_network.client[29] 	downloads[29] 	12082
scalar tree_4_3_u10_r17_network.client[29] 	avg_time[29] 	0.004080116135
scalar tree_4_3_u10_r17_network.client[30] 	hdistance[30] 	2.6889146836912
scalar tree_4_3_u10_r17_network.client[30] 	downloads[30] 	12061
scalar tree_4_3_u10_r17_network.client[30] 	avg_time[30] 	0.004154047196
scalar tree_4_3_u10_r17_network.client[31] 	hdistance[31] 	2.6675951717734
scalar tree_4_3_u10_r17_network.client[31] 	downloads[31] 	11847
scalar tree_4_3_u10_r17_network.client[31] 	avg_time[31] 	0.004124247916
scalar tree_4_3_u10_r17_network.client[32] 	hdistance[32] 	2.6170159262364
scalar tree_4_3_u10_r17_network.client[32] 	downloads[32] 	11930
scalar tree_4_3_u10_r17_network.client[32] 	avg_time[32] 	0.004046602184
scalar tree_4_3_u10_r17_network.client[33] 	hdistance[33] 	2.660903139164
scalar tree_4_3_u10_r17_network.client[33] 	downloads[33] 	11914
scalar tree_4_3_u10_r17_network.client[33] 	avg_time[33] 	0.00410844087
scalar tree_4_3_u10_r17_network.client[34] 	hdistance[34] 	2.6422467435493
scalar tree_4_3_u10_r17_network.client[34] 	downloads[34] 	12053
scalar tree_4_3_u10_r17_network.client[34] 	avg_time[34] 	0.004072012235
scalar tree_4_3_u10_r17_network.client[35] 	hdistance[35] 	2.671712550944
scalar tree_4_3_u10_r17_network.client[35] 	downloads[35] 	12023
scalar tree_4_3_u10_r17_network.client[35] 	avg_time[35] 	0.004131578171
scalar tree_4_3_u10_r17_network.client[36] 	hdistance[36] 	2.6563261874737
scalar tree_4_3_u10_r17_network.client[36] 	downloads[36] 	11895
scalar tree_4_3_u10_r17_network.client[36] 	avg_time[36] 	0.004099252488
scalar tree_4_3_u10_r17_network.client[37] 	hdistance[37] 	2.6385292164675
scalar tree_4_3_u10_r17_network.client[37] 	downloads[37] 	12048
scalar tree_4_3_u10_r17_network.client[37] 	avg_time[37] 	0.004074200174
scalar tree_4_3_u10_r17_network.client[38] 	hdistance[38] 	2.6642933136918
scalar tree_4_3_u10_r17_network.client[38] 	downloads[38] 	12219
scalar tree_4_3_u10_r17_network.client[38] 	avg_time[38] 	0.004107207035
scalar tree_4_3_u10_r17_network.client[39] 	hdistance[39] 	2.6749416861046
scalar tree_4_3_u10_r17_network.client[39] 	downloads[39] 	12004
scalar tree_4_3_u10_r17_network.client[39] 	avg_time[39] 	0.00412545515
