version 2
run General-151-20160818-23:02:36-32642
attr a 0.9
attr cd lce
attr configname General
attr cr lru
attr datetime 20160818-23:02:36
attr experiment General
attr fsize 1
attr inifile hw5115/scenario_A/Edge.ini
attr iterationvars "$name=tree_4_3, $un=07, $rep=12, $scenario=Edge, $cd=lce, $cr=lru, $fsize=1, $a=0.9, $sl=spr, $ttl=1000, $variance=0.05"
attr iterationvars2 "$name=tree_4_3, $un=07, $rep=12, $scenario=Edge, $cd=lce, $cr=lru, $fsize=1, $a=0.9, $sl=spr, $ttl=1000, $variance=0.05, $repetition=0"
attr measurement "$name=tree_4_3, $un=07, $rep=12, $scenario=Edge, $cd=lce, $cr=lru, $fsize=1, $a=0.9, $sl=spr, $ttl=1000, $variance=0.05"
attr name tree_4_3
attr network networks.${name}_u${un}_r${rep}_network
attr processid 32642
attr rep 12
attr repetition 0
attr replication #0
attr resultdir results
attr runnumber 151
attr scenario Edge
attr seedset 12
attr sl spr
attr ttl 1000
attr un 07
attr variance 0.05

scalar . 	a 	0.9
scalar . 	fsize 	1
scalar . 	rep 	12
scalar . 	ttl 	1000
scalar . 	un 	07
scalar . 	variance 	0.05
scalar tree_4_3_u07_r12_network.content_distribution 	repo-0 	0
scalar tree_4_3_u07_r12_network.content_distribution 	client-0 	13
scalar tree_4_3_u07_r12_network.content_distribution 	client-1 	14
scalar tree_4_3_u07_r12_network.content_distribution 	client-2 	15
scalar tree_4_3_u07_r12_network.content_distribution 	client-3 	16
scalar tree_4_3_u07_r12_network.content_distribution 	client-4 	17
scalar tree_4_3_u07_r12_network.content_distribution 	client-5 	18
scalar tree_4_3_u07_r12_network.content_distribution 	client-6 	19
scalar tree_4_3_u07_r12_network.content_distribution 	client-7 	20
scalar tree_4_3_u07_r12_network.content_distribution 	client-8 	21
scalar tree_4_3_u07_r12_network.content_distribution 	client-9 	22
scalar tree_4_3_u07_r12_network.content_distribution 	client-10 	23
scalar tree_4_3_u07_r12_network.content_distribution 	client-11 	24
scalar tree_4_3_u07_r12_network.content_distribution 	client-12 	25
scalar tree_4_3_u07_r12_network.content_distribution 	client-13 	26
scalar tree_4_3_u07_r12_network.content_distribution 	client-14 	27
scalar tree_4_3_u07_r12_network.content_distribution 	client-15 	28
scalar tree_4_3_u07_r12_network.content_distribution 	client-16 	29
scalar tree_4_3_u07_r12_network.content_distribution 	client-17 	30
scalar tree_4_3_u07_r12_network.content_distribution 	client-18 	31
scalar tree_4_3_u07_r12_network.content_distribution 	client-19 	32
scalar tree_4_3_u07_r12_network.content_distribution 	client-20 	33
scalar tree_4_3_u07_r12_network.content_distribution 	client-21 	34
scalar tree_4_3_u07_r12_network.content_distribution 	client-22 	35
scalar tree_4_3_u07_r12_network.content_distribution 	client-23 	36
scalar tree_4_3_u07_r12_network.content_distribution 	client-24 	37
scalar tree_4_3_u07_r12_network.content_distribution 	client-25 	38
scalar tree_4_3_u07_r12_network.content_distribution 	client-26 	39
scalar tree_4_3_u07_r12_network.content_distribution 	repo-0_card 	100000
scalar tree_4_3_u07_r12_network.content_distribution 	repo-0_price 	0
scalar tree_4_3_u07_r12_network.statistics 	stabilization_time 	424.3
scalar tree_4_3_u07_r12_network.statistics 	p_hit 	0.10575055383584
scalar tree_4_3_u07_r12_network.statistics 	interests 	28597.675
scalar tree_4_3_u07_r12_network.statistics 	data 	20495.425
scalar tree_4_3_u07_r12_network.statistics 	hdistance 	3.3733012583283
scalar tree_4_3_u07_r12_network.statistics 	avg_time 	0.005059639624
scalar tree_4_3_u07_r12_network.statistics 	downloads 	324071
scalar tree_4_3_u07_r12_network.statistics 	total_cost 	0
scalar tree_4_3_u07_r12_network.statistics 	total_replicas 	100000
scalar tree_4_3_u07_r12_network.statistics 	inner_hit 	0.15684525921789
scalar tree_4_3_u07_r12_network.node[0].core_layer 	interests[0] 	273242
scalar tree_4_3_u07_r12_network.node[0].core_layer 	repo_load[0] 	273242
scalar tree_4_3_u07_r12_network.node[0].core_layer 	data[0] 	0
scalar tree_4_3_u07_r12_network.node[0].core_layer 	repo_int[0] 	273242
scalar tree_4_3_u07_r12_network.node[0].content_store 	p_hit[0] 	0
scalar tree_4_3_u07_r12_network.node[0].content_store 	hits[0] 	0
scalar tree_4_3_u07_r12_network.node[0].content_store 	misses[0] 	273242
scalar tree_4_3_u07_r12_network.node[0].content_store 	decision_yes[0] 	0
scalar tree_4_3_u07_r12_network.node[0].content_store 	decision_no[0] 	273242
scalar tree_4_3_u07_r12_network.node[0].content_store 	decision_ratio[0] 	0
scalar tree_4_3_u07_r12_network.node[1].core_layer 	interests[1] 	182066
scalar tree_4_3_u07_r12_network.node[1].core_layer 	data[1] 	182033
scalar tree_4_3_u07_r12_network.node[1].content_store 	p_hit[1] 	0
scalar tree_4_3_u07_r12_network.node[1].content_store 	hits[1] 	0
scalar tree_4_3_u07_r12_network.node[1].content_store 	misses[1] 	182066
scalar tree_4_3_u07_r12_network.node[1].content_store 	decision_yes[1] 	0
scalar tree_4_3_u07_r12_network.node[1].content_store 	decision_no[1] 	182033
scalar tree_4_3_u07_r12_network.node[1].content_store 	decision_ratio[1] 	0
scalar tree_4_3_u07_r12_network.node[2].core_layer 	interests[2] 	50658
scalar tree_4_3_u07_r12_network.node[2].core_layer 	data[2] 	50656
scalar tree_4_3_u07_r12_network.node[2].content_store 	p_hit[2] 	0
scalar tree_4_3_u07_r12_network.node[2].content_store 	hits[2] 	0
scalar tree_4_3_u07_r12_network.node[2].content_store 	misses[2] 	50658
scalar tree_4_3_u07_r12_network.node[2].content_store 	decision_yes[2] 	0
scalar tree_4_3_u07_r12_network.node[2].content_store 	decision_no[2] 	50656
scalar tree_4_3_u07_r12_network.node[2].content_store 	decision_ratio[2] 	0
scalar tree_4_3_u07_r12_network.node[3].core_layer 	interests[3] 	40553
scalar tree_4_3_u07_r12_network.node[3].core_layer 	data[3] 	40552
scalar tree_4_3_u07_r12_network.node[3].content_store 	p_hit[3] 	0
scalar tree_4_3_u07_r12_network.node[3].content_store 	hits[3] 	0
scalar tree_4_3_u07_r12_network.node[3].content_store 	misses[3] 	40553
scalar tree_4_3_u07_r12_network.node[3].content_store 	decision_yes[3] 	0
scalar tree_4_3_u07_r12_network.node[3].content_store 	decision_no[3] 	40552
scalar tree_4_3_u07_r12_network.node[3].content_store 	decision_ratio[3] 	0
scalar tree_4_3_u07_r12_network.node[4].core_layer 	interests[4] 	50709
scalar tree_4_3_u07_r12_network.node[4].core_layer 	data[4] 	50703
scalar tree_4_3_u07_r12_network.node[4].content_store 	p_hit[4] 	0
scalar tree_4_3_u07_r12_network.node[4].content_store 	hits[4] 	0
scalar tree_4_3_u07_r12_network.node[4].content_store 	misses[4] 	50709
scalar tree_4_3_u07_r12_network.node[4].content_store 	decision_yes[4] 	0
scalar tree_4_3_u07_r12_network.node[4].content_store 	decision_no[4] 	50703
scalar tree_4_3_u07_r12_network.node[4].content_store 	decision_ratio[4] 	0
scalar tree_4_3_u07_r12_network.node[5].core_layer 	interests[5] 	20457
scalar tree_4_3_u07_r12_network.node[5].core_layer 	data[5] 	20455
scalar tree_4_3_u07_r12_network.node[5].content_store 	p_hit[5] 	0
scalar tree_4_3_u07_r12_network.node[5].content_store 	hits[5] 	0
scalar tree_4_3_u07_r12_network.node[5].content_store 	misses[5] 	20457
scalar tree_4_3_u07_r12_network.node[5].content_store 	decision_yes[5] 	0
scalar tree_4_3_u07_r12_network.node[5].content_store 	decision_no[5] 	20455
scalar tree_4_3_u07_r12_network.node[5].content_store 	decision_ratio[5] 	0
scalar tree_4_3_u07_r12_network.node[6].core_layer 	interests[6] 	20465
scalar tree_4_3_u07_r12_network.node[6].core_layer 	data[6] 	20465
scalar tree_4_3_u07_r12_network.node[6].content_store 	p_hit[6] 	0
scalar tree_4_3_u07_r12_network.node[6].content_store 	hits[6] 	0
scalar tree_4_3_u07_r12_network.node[6].content_store 	misses[6] 	20465
scalar tree_4_3_u07_r12_network.node[6].content_store 	decision_yes[6] 	0
scalar tree_4_3_u07_r12_network.node[6].content_store 	decision_no[6] 	20465
scalar tree_4_3_u07_r12_network.node[6].content_store 	decision_ratio[6] 	0
scalar tree_4_3_u07_r12_network.node[7].core_layer 	interests[7] 	40244
scalar tree_4_3_u07_r12_network.node[7].core_layer 	data[7] 	40240
scalar tree_4_3_u07_r12_network.node[7].content_store 	p_hit[7] 	0
scalar tree_4_3_u07_r12_network.node[7].content_store 	hits[7] 	0
scalar tree_4_3_u07_r12_network.node[7].content_store 	misses[7] 	40244
scalar tree_4_3_u07_r12_network.node[7].content_store 	decision_yes[7] 	0
scalar tree_4_3_u07_r12_network.node[7].content_store 	decision_no[7] 	40240
scalar tree_4_3_u07_r12_network.node[7].content_store 	decision_ratio[7] 	0
scalar tree_4_3_u07_r12_network.node[8].core_layer 	interests[8] 	40674
scalar tree_4_3_u07_r12_network.node[8].core_layer 	data[8] 	40670
scalar tree_4_3_u07_r12_network.node[8].content_store 	p_hit[8] 	0
scalar tree_4_3_u07_r12_network.node[8].content_store 	hits[8] 	0
scalar tree_4_3_u07_r12_network.node[8].content_store 	misses[8] 	40674
scalar tree_4_3_u07_r12_network.node[8].content_store 	decision_yes[8] 	0
scalar tree_4_3_u07_r12_network.node[8].content_store 	decision_no[8] 	40670
scalar tree_4_3_u07_r12_network.node[8].content_store 	decision_ratio[8] 	0
scalar tree_4_3_u07_r12_network.node[9].core_layer 	interests[9] 	9987
scalar tree_4_3_u07_r12_network.node[9].core_layer 	data[9] 	9987
scalar tree_4_3_u07_r12_network.node[9].content_store 	p_hit[9] 	0
scalar tree_4_3_u07_r12_network.node[9].content_store 	hits[9] 	0
scalar tree_4_3_u07_r12_network.node[9].content_store 	misses[9] 	9987
scalar tree_4_3_u07_r12_network.node[9].content_store 	decision_yes[9] 	0
scalar tree_4_3_u07_r12_network.node[9].content_store 	decision_no[9] 	9987
scalar tree_4_3_u07_r12_network.node[9].content_store 	decision_ratio[9] 	0
scalar tree_4_3_u07_r12_network.node[10].core_layer 	interests[10] 	50210
scalar tree_4_3_u07_r12_network.node[10].core_layer 	data[10] 	50202
scalar tree_4_3_u07_r12_network.node[10].content_store 	p_hit[10] 	0
scalar tree_4_3_u07_r12_network.node[10].content_store 	hits[10] 	0
scalar tree_4_3_u07_r12_network.node[10].content_store 	misses[10] 	50210
scalar tree_4_3_u07_r12_network.node[10].content_store 	decision_yes[10] 	0
scalar tree_4_3_u07_r12_network.node[10].content_store 	decision_no[10] 	50202
scalar tree_4_3_u07_r12_network.node[10].content_store 	decision_ratio[10] 	0
scalar tree_4_3_u07_r12_network.node[11].core_layer 	interests[11] 	30559
scalar tree_4_3_u07_r12_network.node[11].core_layer 	data[11] 	30556
scalar tree_4_3_u07_r12_network.node[11].content_store 	p_hit[11] 	0
scalar tree_4_3_u07_r12_network.node[11].content_store 	hits[11] 	0
scalar tree_4_3_u07_r12_network.node[11].content_store 	misses[11] 	30559
scalar tree_4_3_u07_r12_network.node[11].content_store 	decision_yes[11] 	0
scalar tree_4_3_u07_r12_network.node[11].content_store 	decision_no[11] 	30556
scalar tree_4_3_u07_r12_network.node[11].content_store 	decision_ratio[11] 	0
scalar tree_4_3_u07_r12_network.node[12].core_layer 	interests[12] 	9997
scalar tree_4_3_u07_r12_network.node[12].core_layer 	data[12] 	9997
scalar tree_4_3_u07_r12_network.node[12].content_store 	p_hit[12] 	0
scalar tree_4_3_u07_r12_network.node[12].content_store 	hits[12] 	0
scalar tree_4_3_u07_r12_network.node[12].content_store 	misses[12] 	9997
scalar tree_4_3_u07_r12_network.node[12].content_store 	decision_yes[12] 	0
scalar tree_4_3_u07_r12_network.node[12].content_store 	decision_no[12] 	9997
scalar tree_4_3_u07_r12_network.node[12].content_store 	decision_ratio[12] 	0
scalar tree_4_3_u07_r12_network.node[13].core_layer 	interests[13] 	11914
scalar tree_4_3_u07_r12_network.node[13].core_layer 	data[13] 	10088
scalar tree_4_3_u07_r12_network.node[13].content_store 	p_hit[13] 	0.15326506630854
scalar tree_4_3_u07_r12_network.node[13].content_store 	hits[13] 	1826
scalar tree_4_3_u07_r12_network.node[13].content_store 	misses[13] 	10088
scalar tree_4_3_u07_r12_network.node[13].content_store 	decision_yes[13] 	10088
scalar tree_4_3_u07_r12_network.node[13].content_store 	decision_no[13] 	0
scalar tree_4_3_u07_r12_network.node[13].content_store 	decision_ratio[13] 	1
scalar tree_4_3_u07_r12_network.node[14].core_layer 	interests[14] 	12047
scalar tree_4_3_u07_r12_network.node[14].core_layer 	data[14] 	10061
scalar tree_4_3_u07_r12_network.node[14].content_store 	p_hit[14] 	0.16485432057774
scalar tree_4_3_u07_r12_network.node[14].content_store 	hits[14] 	1986
scalar tree_4_3_u07_r12_network.node[14].content_store 	misses[14] 	10061
scalar tree_4_3_u07_r12_network.node[14].content_store 	decision_yes[14] 	10061
scalar tree_4_3_u07_r12_network.node[14].content_store 	decision_no[14] 	0
scalar tree_4_3_u07_r12_network.node[14].content_store 	decision_ratio[14] 	1
scalar tree_4_3_u07_r12_network.node[15].core_layer 	interests[15] 	12029
scalar tree_4_3_u07_r12_network.node[15].core_layer 	data[15] 	10087
scalar tree_4_3_u07_r12_network.node[15].content_store 	p_hit[15] 	0.16144317898412
scalar tree_4_3_u07_r12_network.node[15].content_store 	hits[15] 	1942
scalar tree_4_3_u07_r12_network.node[15].content_store 	misses[15] 	10087
scalar tree_4_3_u07_r12_network.node[15].content_store 	decision_yes[15] 	10087
scalar tree_4_3_u07_r12_network.node[15].content_store 	decision_no[15] 	0
scalar tree_4_3_u07_r12_network.node[15].content_store 	decision_ratio[15] 	1
scalar tree_4_3_u07_r12_network.node[16].core_layer 	interests[16] 	12290
scalar tree_4_3_u07_r12_network.node[16].core_layer 	data[16] 	10431
scalar tree_4_3_u07_r12_network.node[16].content_store 	p_hit[16] 	0.15126118795769
scalar tree_4_3_u07_r12_network.node[16].content_store 	hits[16] 	1859
scalar tree_4_3_u07_r12_network.node[16].content_store 	misses[16] 	10431
scalar tree_4_3_u07_r12_network.node[16].content_store 	decision_yes[16] 	10431
scalar tree_4_3_u07_r12_network.node[16].content_store 	decision_no[16] 	0
scalar tree_4_3_u07_r12_network.node[16].content_store 	decision_ratio[16] 	1
scalar tree_4_3_u07_r12_network.node[17].core_layer 	interests[17] 	12034
scalar tree_4_3_u07_r12_network.node[17].core_layer 	data[17] 	10236
scalar tree_4_3_u07_r12_network.node[17].content_store 	p_hit[17] 	0.14941000498587
scalar tree_4_3_u07_r12_network.node[17].content_store 	hits[17] 	1798
scalar tree_4_3_u07_r12_network.node[17].content_store 	misses[17] 	10236
scalar tree_4_3_u07_r12_network.node[17].content_store 	decision_yes[17] 	10236
scalar tree_4_3_u07_r12_network.node[17].content_store 	decision_no[17] 	0
scalar tree_4_3_u07_r12_network.node[17].content_store 	decision_ratio[17] 	1
scalar tree_4_3_u07_r12_network.node[18].core_layer 	interests[18] 	12113
scalar tree_4_3_u07_r12_network.node[18].core_layer 	data[18] 	10221
scalar tree_4_3_u07_r12_network.node[18].content_store 	p_hit[18] 	0.15619582266986
scalar tree_4_3_u07_r12_network.node[18].content_store 	hits[18] 	1892
scalar tree_4_3_u07_r12_network.node[18].content_store 	misses[18] 	10221
scalar tree_4_3_u07_r12_network.node[18].content_store 	decision_yes[18] 	10221
scalar tree_4_3_u07_r12_network.node[18].content_store 	decision_no[18] 	0
scalar tree_4_3_u07_r12_network.node[18].content_store 	decision_ratio[18] 	1
scalar tree_4_3_u07_r12_network.node[19].core_layer 	interests[19] 	11855
scalar tree_4_3_u07_r12_network.node[19].core_layer 	data[19] 	10042
scalar tree_4_3_u07_r12_network.node[19].content_store 	p_hit[19] 	0.15293125263602
scalar tree_4_3_u07_r12_network.node[19].content_store 	hits[19] 	1813
scalar tree_4_3_u07_r12_network.node[19].content_store 	misses[19] 	10042
scalar tree_4_3_u07_r12_network.node[19].content_store 	decision_yes[19] 	10042
scalar tree_4_3_u07_r12_network.node[19].content_store 	decision_no[19] 	0
scalar tree_4_3_u07_r12_network.node[19].content_store 	decision_ratio[19] 	1
scalar tree_4_3_u07_r12_network.node[20].core_layer 	interests[20] 	12055
scalar tree_4_3_u07_r12_network.node[20].core_layer 	data[20] 	10175
scalar tree_4_3_u07_r12_network.node[20].content_store 	p_hit[20] 	0.15595188718374
scalar tree_4_3_u07_r12_network.node[20].content_store 	hits[20] 	1880
scalar tree_4_3_u07_r12_network.node[20].content_store 	misses[20] 	10175
scalar tree_4_3_u07_r12_network.node[20].content_store 	decision_yes[20] 	10175
scalar tree_4_3_u07_r12_network.node[20].content_store 	decision_no[20] 	0
scalar tree_4_3_u07_r12_network.node[20].content_store 	decision_ratio[20] 	1
scalar tree_4_3_u07_r12_network.node[21].core_layer 	interests[21] 	12211
scalar tree_4_3_u07_r12_network.node[21].core_layer 	data[21] 	10290
scalar tree_4_3_u07_r12_network.node[21].content_store 	p_hit[21] 	0.15723527966588
scalar tree_4_3_u07_r12_network.node[21].content_store 	hits[21] 	1920
scalar tree_4_3_u07_r12_network.node[21].content_store 	misses[21] 	10291
scalar tree_4_3_u07_r12_network.node[21].content_store 	decision_yes[21] 	10290
scalar tree_4_3_u07_r12_network.node[21].content_store 	decision_no[21] 	0
scalar tree_4_3_u07_r12_network.node[21].content_store 	decision_ratio[21] 	1
scalar tree_4_3_u07_r12_network.node[22].core_layer 	interests[22] 	11878
scalar tree_4_3_u07_r12_network.node[22].core_layer 	data[22] 	9990
scalar tree_4_3_u07_r12_network.node[22].content_store 	p_hit[22] 	0.15886512880956
scalar tree_4_3_u07_r12_network.node[22].content_store 	hits[22] 	1887
scalar tree_4_3_u07_r12_network.node[22].content_store 	misses[22] 	9991
scalar tree_4_3_u07_r12_network.node[22].content_store 	decision_yes[22] 	9990
scalar tree_4_3_u07_r12_network.node[22].content_store 	decision_no[22] 	0
scalar tree_4_3_u07_r12_network.node[22].content_store 	decision_ratio[22] 	1
scalar tree_4_3_u07_r12_network.node[23].core_layer 	interests[23] 	11942
scalar tree_4_3_u07_r12_network.node[23].core_layer 	data[23] 	10163
scalar tree_4_3_u07_r12_network.node[23].content_store 	p_hit[23] 	0.1489700217719
scalar tree_4_3_u07_r12_network.node[23].content_store 	hits[23] 	1779
scalar tree_4_3_u07_r12_network.node[23].content_store 	misses[23] 	10163
scalar tree_4_3_u07_r12_network.node[23].content_store 	decision_yes[23] 	10163
scalar tree_4_3_u07_r12_network.node[23].content_store 	decision_no[23] 	0
scalar tree_4_3_u07_r12_network.node[23].content_store 	decision_ratio[23] 	1
scalar tree_4_3_u07_r12_network.node[24].core_layer 	interests[24] 	11937
scalar tree_4_3_u07_r12_network.node[24].core_layer 	data[24] 	10071
scalar tree_4_3_u07_r12_network.node[24].content_store 	p_hit[24] 	0.15615313730418
scalar tree_4_3_u07_r12_network.node[24].content_store 	hits[24] 	1864
scalar tree_4_3_u07_r12_network.node[24].content_store 	misses[24] 	10073
scalar tree_4_3_u07_r12_network.node[24].content_store 	decision_yes[24] 	10071
scalar tree_4_3_u07_r12_network.node[24].content_store 	decision_no[24] 	0
scalar tree_4_3_u07_r12_network.node[24].content_store 	decision_ratio[24] 	1
scalar tree_4_3_u07_r12_network.node[25].core_layer 	interests[25] 	12139
scalar tree_4_3_u07_r12_network.node[25].core_layer 	data[25] 	10258
scalar tree_4_3_u07_r12_network.node[25].content_store 	p_hit[25] 	0.15495510338578
scalar tree_4_3_u07_r12_network.node[25].content_store 	hits[25] 	1881
scalar tree_4_3_u07_r12_network.node[25].content_store 	misses[25] 	10258
scalar tree_4_3_u07_r12_network.node[25].content_store 	decision_yes[25] 	10258
scalar tree_4_3_u07_r12_network.node[25].content_store 	decision_no[25] 	0
scalar tree_4_3_u07_r12_network.node[25].content_store 	decision_ratio[25] 	1
scalar tree_4_3_u07_r12_network.node[26].core_layer 	interests[26] 	11743
scalar tree_4_3_u07_r12_network.node[26].core_layer 	data[26] 	9898
scalar tree_4_3_u07_r12_network.node[26].content_store 	p_hit[26] 	0.15711487694797
scalar tree_4_3_u07_r12_network.node[26].content_store 	hits[26] 	1845
scalar tree_4_3_u07_r12_network.node[26].content_store 	misses[26] 	9898
scalar tree_4_3_u07_r12_network.node[26].content_store 	decision_yes[26] 	9898
scalar tree_4_3_u07_r12_network.node[26].content_store 	decision_no[26] 	0
scalar tree_4_3_u07_r12_network.node[26].content_store 	decision_ratio[26] 	1
scalar tree_4_3_u07_r12_network.node[27].core_layer 	interests[27] 	12069
scalar tree_4_3_u07_r12_network.node[27].core_layer 	data[27] 	10126
scalar tree_4_3_u07_r12_network.node[27].content_store 	p_hit[27] 	0.16090811169111
scalar tree_4_3_u07_r12_network.node[27].content_store 	hits[27] 	1942
scalar tree_4_3_u07_r12_network.node[27].content_store 	misses[27] 	10127
scalar tree_4_3_u07_r12_network.node[27].content_store 	decision_yes[27] 	10126
scalar tree_4_3_u07_r12_network.node[27].content_store 	decision_no[27] 	0
scalar tree_4_3_u07_r12_network.node[27].content_store 	decision_ratio[27] 	1
scalar tree_4_3_u07_r12_network.node[28].core_layer 	interests[28] 	11900
scalar tree_4_3_u07_r12_network.node[28].core_layer 	data[28] 	10021
scalar tree_4_3_u07_r12_network.node[28].content_store 	p_hit[28] 	0.15789915966387
scalar tree_4_3_u07_r12_network.node[28].content_store 	hits[28] 	1879
scalar tree_4_3_u07_r12_network.node[28].content_store 	misses[28] 	10021
scalar tree_4_3_u07_r12_network.node[28].content_store 	decision_yes[28] 	10021
scalar tree_4_3_u07_r12_network.node[28].content_store 	decision_no[28] 	0
scalar tree_4_3_u07_r12_network.node[28].content_store 	decision_ratio[28] 	1
scalar tree_4_3_u07_r12_network.node[29].core_layer 	interests[29] 	12244
scalar tree_4_3_u07_r12_network.node[29].core_layer 	data[29] 	10391
scalar tree_4_3_u07_r12_network.node[29].content_store 	p_hit[29] 	0.15109441359033
scalar tree_4_3_u07_r12_network.node[29].content_store 	hits[29] 	1850
scalar tree_4_3_u07_r12_network.node[29].content_store 	misses[29] 	10394
scalar tree_4_3_u07_r12_network.node[29].content_store 	decision_yes[29] 	10391
scalar tree_4_3_u07_r12_network.node[29].content_store 	decision_no[29] 	0
scalar tree_4_3_u07_r12_network.node[29].content_store 	decision_ratio[29] 	1
scalar tree_4_3_u07_r12_network.node[30].core_layer 	interests[30] 	11894
scalar tree_4_3_u07_r12_network.node[30].core_layer 	data[30] 	9987
scalar tree_4_3_u07_r12_network.node[30].content_store 	p_hit[30] 	0.16033294097864
scalar tree_4_3_u07_r12_network.node[30].content_store 	hits[30] 	1907
scalar tree_4_3_u07_r12_network.node[30].content_store 	misses[30] 	9987
scalar tree_4_3_u07_r12_network.node[30].content_store 	decision_yes[30] 	9987
scalar tree_4_3_u07_r12_network.node[30].content_store 	decision_no[30] 	0
scalar tree_4_3_u07_r12_network.node[30].content_store 	decision_ratio[30] 	1
scalar tree_4_3_u07_r12_network.node[31].core_layer 	interests[31] 	11904
scalar tree_4_3_u07_r12_network.node[31].core_layer 	data[31] 	10038
scalar tree_4_3_u07_r12_network.node[31].content_store 	p_hit[31] 	0.15667002688172
scalar tree_4_3_u07_r12_network.node[31].content_store 	hits[31] 	1865
scalar tree_4_3_u07_r12_network.node[31].content_store 	misses[31] 	10039
scalar tree_4_3_u07_r12_network.node[31].content_store 	decision_yes[31] 	10038
scalar tree_4_3_u07_r12_network.node[31].content_store 	decision_no[31] 	0
scalar tree_4_3_u07_r12_network.node[31].content_store 	decision_ratio[31] 	1
scalar tree_4_3_u07_r12_network.node[32].core_layer 	interests[32] 	11832
scalar tree_4_3_u07_r12_network.node[32].core_layer 	data[32] 	9978
scalar tree_4_3_u07_r12_network.node[32].content_store 	p_hit[32] 	0.1566091954023
scalar tree_4_3_u07_r12_network.node[32].content_store 	hits[32] 	1853
scalar tree_4_3_u07_r12_network.node[32].content_store 	misses[32] 	9979
scalar tree_4_3_u07_r12_network.node[32].content_store 	decision_yes[32] 	9978
scalar tree_4_3_u07_r12_network.node[32].content_store 	decision_no[32] 	0
scalar tree_4_3_u07_r12_network.node[32].content_store 	decision_ratio[32] 	1
scalar tree_4_3_u07_r12_network.node[33].core_layer 	interests[33] 	12069
scalar tree_4_3_u07_r12_network.node[33].core_layer 	data[33] 	10148
scalar tree_4_3_u07_r12_network.node[33].content_store 	p_hit[33] 	0.1590852597564
scalar tree_4_3_u07_r12_network.node[33].content_store 	hits[33] 	1920
scalar tree_4_3_u07_r12_network.node[33].content_store 	misses[33] 	10149
scalar tree_4_3_u07_r12_network.node[33].content_store 	decision_yes[33] 	10148
scalar tree_4_3_u07_r12_network.node[33].content_store 	decision_no[33] 	0
scalar tree_4_3_u07_r12_network.node[33].content_store 	decision_ratio[33] 	1
scalar tree_4_3_u07_r12_network.node[34].core_layer 	interests[34] 	11694
scalar tree_4_3_u07_r12_network.node[34].core_layer 	data[34] 	9805
scalar tree_4_3_u07_r12_network.node[34].content_store 	p_hit[34] 	0.16153583034035
scalar tree_4_3_u07_r12_network.node[34].content_store 	hits[34] 	1889
scalar tree_4_3_u07_r12_network.node[34].content_store 	misses[34] 	9805
scalar tree_4_3_u07_r12_network.node[34].content_store 	decision_yes[34] 	9805
scalar tree_4_3_u07_r12_network.node[34].content_store 	decision_no[34] 	0
scalar tree_4_3_u07_r12_network.node[34].content_store 	decision_ratio[34] 	1
scalar tree_4_3_u07_r12_network.node[35].core_layer 	interests[35] 	12093
scalar tree_4_3_u07_r12_network.node[35].core_layer 	data[35] 	10168
scalar tree_4_3_u07_r12_network.node[35].content_store 	p_hit[35] 	0.15918299842884
scalar tree_4_3_u07_r12_network.node[35].content_store 	hits[35] 	1925
scalar tree_4_3_u07_r12_network.node[35].content_store 	misses[35] 	10168
scalar tree_4_3_u07_r12_network.node[35].content_store 	decision_yes[35] 	10168
scalar tree_4_3_u07_r12_network.node[35].content_store 	decision_no[35] 	0
scalar tree_4_3_u07_r12_network.node[35].content_store 	decision_ratio[35] 	1
scalar tree_4_3_u07_r12_network.node[36].core_layer 	interests[36] 	11959
scalar tree_4_3_u07_r12_network.node[36].core_layer 	data[36] 	10071
scalar tree_4_3_u07_r12_network.node[36].content_store 	p_hit[36] 	0.15770549377038
scalar tree_4_3_u07_r12_network.node[36].content_store 	hits[36] 	1886
scalar tree_4_3_u07_r12_network.node[36].content_store 	misses[36] 	10073
scalar tree_4_3_u07_r12_network.node[36].content_store 	decision_yes[36] 	10071
scalar tree_4_3_u07_r12_network.node[36].content_store 	decision_no[36] 	0
scalar tree_4_3_u07_r12_network.node[36].content_store 	decision_ratio[36] 	1
scalar tree_4_3_u07_r12_network.node[37].core_layer 	interests[37] 	12131
scalar tree_4_3_u07_r12_network.node[37].core_layer 	data[37] 	10240
scalar tree_4_3_u07_r12_network.node[37].content_store 	p_hit[37] 	0.15579919215234
scalar tree_4_3_u07_r12_network.node[37].content_store 	hits[37] 	1890
scalar tree_4_3_u07_r12_network.node[37].content_store 	misses[37] 	10241
scalar tree_4_3_u07_r12_network.node[37].content_store 	decision_yes[37] 	10240
scalar tree_4_3_u07_r12_network.node[37].content_store 	decision_no[37] 	0
scalar tree_4_3_u07_r12_network.node[37].content_store 	decision_ratio[37] 	1
scalar tree_4_3_u07_r12_network.node[38].core_layer 	interests[38] 	12230
scalar tree_4_3_u07_r12_network.node[38].core_layer 	data[38] 	10320
scalar tree_4_3_u07_r12_network.node[38].content_store 	p_hit[38] 	0.15609157808667
scalar tree_4_3_u07_r12_network.node[38].content_store 	hits[38] 	1909
scalar tree_4_3_u07_r12_network.node[38].content_store 	misses[38] 	10321
scalar tree_4_3_u07_r12_network.node[38].content_store 	decision_yes[38] 	10320
scalar tree_4_3_u07_r12_network.node[38].content_store 	decision_no[38] 	0
scalar tree_4_3_u07_r12_network.node[38].content_store 	decision_ratio[38] 	1
scalar tree_4_3_u07_r12_network.node[39].core_layer 	interests[39] 	11880
scalar tree_4_3_u07_r12_network.node[39].core_layer 	data[39] 	9997
scalar tree_4_3_u07_r12_network.node[39].content_store 	p_hit[39] 	0.15850168350168
scalar tree_4_3_u07_r12_network.node[39].content_store 	hits[39] 	1883
scalar tree_4_3_u07_r12_network.node[39].content_store 	misses[39] 	9997
scalar tree_4_3_u07_r12_network.node[39].content_store 	decision_yes[39] 	9997
scalar tree_4_3_u07_r12_network.node[39].content_store 	decision_no[39] 	0
scalar tree_4_3_u07_r12_network.node[39].content_store 	decision_ratio[39] 	1
scalar tree_4_3_u07_r12_network.client[13] 	hdistance[13] 	3.3869397347658
scalar tree_4_3_u07_r12_network.client[13] 	downloads[13] 	11914
scalar tree_4_3_u07_r12_network.client[13] 	avg_time[13] 	0.005079979271
scalar tree_4_3_u07_r12_network.client[14] 	hdistance[14] 	3.3405827176891
scalar tree_4_3_u07_r12_network.client[14] 	downloads[14] 	12047
scalar tree_4_3_u07_r12_network.client[14] 	avg_time[14] 	0.005010801489
scalar tree_4_3_u07_r12_network.client[15] 	hdistance[15] 	3.3542272840635
scalar tree_4_3_u07_r12_network.client[15] 	downloads[15] 	12029
scalar tree_4_3_u07_r12_network.client[15] 	avg_time[15] 	0.005030344443
scalar tree_4_3_u07_r12_network.client[16] 	hdistance[16] 	3.3949552481692
scalar tree_4_3_u07_r12_network.client[16] 	downloads[16] 	12290
scalar tree_4_3_u07_r12_network.client[16] 	avg_time[16] 	0.005092362518
scalar tree_4_3_u07_r12_network.client[17] 	hdistance[17] 	3.4023599800565
scalar tree_4_3_u07_r12_network.client[17] 	downloads[17] 	12034
scalar tree_4_3_u07_r12_network.client[17] 	avg_time[17] 	0.005103536972
scalar tree_4_3_u07_r12_network.client[18] 	hdistance[18] 	3.3752167093206
scalar tree_4_3_u07_r12_network.client[18] 	downloads[18] 	12113
scalar tree_4_3_u07_r12_network.client[18] 	avg_time[18] 	0.005062609279
scalar tree_4_3_u07_r12_network.client[19] 	hdistance[19] 	3.3882749894559
scalar tree_4_3_u07_r12_network.client[19] 	downloads[19] 	11855
scalar tree_4_3_u07_r12_network.client[19] 	avg_time[19] 	0.005082062406
scalar tree_4_3_u07_r12_network.client[20] 	hdistance[20] 	3.376192451265
scalar tree_4_3_u07_r12_network.client[20] 	downloads[20] 	12055
scalar tree_4_3_u07_r12_network.client[20] 	avg_time[20] 	0.005064201815
scalar tree_4_3_u07_r12_network.client[21] 	hdistance[21] 	3.3710073710074
scalar tree_4_3_u07_r12_network.client[21] 	downloads[21] 	12210
scalar tree_4_3_u07_r12_network.client[21] 	avg_time[21] 	0.005055984604
scalar tree_4_3_u07_r12_network.client[22] 	hdistance[22] 	3.3644859813084
scalar tree_4_3_u07_r12_network.client[22] 	downloads[22] 	11877
scalar tree_4_3_u07_r12_network.client[22] 	avg_time[22] 	0.005046316625
scalar tree_4_3_u07_r12_network.client[23] 	hdistance[23] 	3.4041199129124
scalar tree_4_3_u07_r12_network.client[23] 	downloads[23] 	11942
scalar tree_4_3_u07_r12_network.client[23] 	avg_time[23] 	0.00510598556
scalar tree_4_3_u07_r12_network.client[24] 	hdistance[24] 	3.3752827817344
scalar tree_4_3_u07_r12_network.client[24] 	downloads[24] 	11935
scalar tree_4_3_u07_r12_network.client[24] 	avg_time[24] 	0.005062198617
scalar tree_4_3_u07_r12_network.client[25] 	hdistance[25] 	3.3801795864569
scalar tree_4_3_u07_r12_network.client[25] 	downloads[25] 	12139
scalar tree_4_3_u07_r12_network.client[25] 	avg_time[25] 	0.005070086569
scalar tree_4_3_u07_r12_network.client[26] 	hdistance[26] 	3.3715404922081
scalar tree_4_3_u07_r12_network.client[26] 	downloads[26] 	11743
scalar tree_4_3_u07_r12_network.client[26] 	avg_time[26] 	0.005057107383
scalar tree_4_3_u07_r12_network.client[27] 	hdistance[27] 	3.3563142194233
scalar tree_4_3_u07_r12_network.client[27] 	downloads[27] 	12068
scalar tree_4_3_u07_r12_network.client[27] 	avg_time[27] 	0.005034371875
scalar tree_4_3_u07_r12_network.client[28] 	hdistance[28] 	3.3684033613445
scalar tree_4_3_u07_r12_network.client[28] 	downloads[28] 	11900
scalar tree_4_3_u07_r12_network.client[28] 	avg_time[28] 	0.005052284476
scalar tree_4_3_u07_r12_network.client[29] 	hdistance[29] 	3.3954742259619
scalar tree_4_3_u07_r12_network.client[29] 	downloads[29] 	12241
scalar tree_4_3_u07_r12_network.client[29] 	avg_time[29] 	0.005092819697
scalar tree_4_3_u07_r12_network.client[30] 	hdistance[30] 	3.3586682360854
scalar tree_4_3_u07_r12_network.client[30] 	downloads[30] 	11894
scalar tree_4_3_u07_r12_network.client[30] 	avg_time[30] 	0.005037999408
scalar tree_4_3_u07_r12_network.client[31] 	hdistance[31] 	3.373267243552
scalar tree_4_3_u07_r12_network.client[31] 	downloads[31] 	11903
scalar tree_4_3_u07_r12_network.client[31] 	avg_time[31] 	0.005059165606
scalar tree_4_3_u07_r12_network.client[32] 	hdistance[32] 	3.3735102696306
scalar tree_4_3_u07_r12_network.client[32] 	downloads[32] 	11831
scalar tree_4_3_u07_r12_network.client[32] 	avg_time[32] 	0.005059761913
scalar tree_4_3_u07_r12_network.client[33] 	hdistance[33] 	3.3636062313556
scalar tree_4_3_u07_r12_network.client[33] 	downloads[33] 	12068
scalar tree_4_3_u07_r12_network.client[33] 	avg_time[33] 	0.005045111662
scalar tree_4_3_u07_r12_network.client[34] 	hdistance[34] 	3.3538566786386
scalar tree_4_3_u07_r12_network.client[34] 	downloads[34] 	11694
scalar tree_4_3_u07_r12_network.client[34] 	avg_time[34] 	0.005030428041
scalar tree_4_3_u07_r12_network.client[35] 	hdistance[35] 	3.3632680062846
scalar tree_4_3_u07_r12_network.client[35] 	downloads[35] 	12093
scalar tree_4_3_u07_r12_network.client[35] 	avg_time[35] 	0.005044820517
scalar tree_4_3_u07_r12_network.client[36] 	hdistance[36] 	3.3690725098269
scalar tree_4_3_u07_r12_network.client[36] 	downloads[36] 	11957
scalar tree_4_3_u07_r12_network.client[36] 	avg_time[36] 	0.005053476048
scalar tree_4_3_u07_r12_network.client[37] 	hdistance[37] 	3.3767518549052
scalar tree_4_3_u07_r12_network.client[37] 	downloads[37] 	12130
scalar tree_4_3_u07_r12_network.client[37] 	avg_time[37] 	0.005064630186
scalar tree_4_3_u07_r12_network.client[38] 	hdistance[38] 	3.3755826314498
scalar tree_4_3_u07_r12_network.client[38] 	downloads[38] 	12229
scalar tree_4_3_u07_r12_network.client[38] 	avg_time[38] 	0.005062941845
scalar tree_4_3_u07_r12_network.client[39] 	hdistance[39] 	3.3659932659933
scalar tree_4_3_u07_r12_network.client[39] 	downloads[39] 	11880
scalar tree_4_3_u07_r12_network.client[39] 	avg_time[39] 	0.00504888103
