version 2
run General-150-20160818-23:01:48-32642
attr a 0.9
attr cd lce
attr configname General
attr cr lru
attr datetime 20160818-23:01:48
attr experiment General
attr fsize 1
attr inifile hw5115/scenario_A/Edge.ini
attr iterationvars "$name=tree_4_3, $un=07, $rep=11, $scenario=Edge, $cd=lce, $cr=lru, $fsize=1, $a=0.9, $sl=spr, $ttl=1000, $variance=0.05"
attr iterationvars2 "$name=tree_4_3, $un=07, $rep=11, $scenario=Edge, $cd=lce, $cr=lru, $fsize=1, $a=0.9, $sl=spr, $ttl=1000, $variance=0.05, $repetition=0"
attr measurement "$name=tree_4_3, $un=07, $rep=11, $scenario=Edge, $cd=lce, $cr=lru, $fsize=1, $a=0.9, $sl=spr, $ttl=1000, $variance=0.05"
attr name tree_4_3
attr network networks.${name}_u${un}_r${rep}_network
attr processid 32642
attr rep 11
attr repetition 0
attr replication #0
attr resultdir results
attr runnumber 150
attr scenario Edge
attr seedset 11
attr sl spr
attr ttl 1000
attr un 07
attr variance 0.05

scalar . 	a 	0.9
scalar . 	fsize 	1
scalar . 	rep 	11
scalar . 	ttl 	1000
scalar . 	un 	07
scalar . 	variance 	0.05
scalar tree_4_3_u07_r11_network.content_distribution 	repo-0 	0
scalar tree_4_3_u07_r11_network.content_distribution 	client-0 	13
scalar tree_4_3_u07_r11_network.content_distribution 	client-1 	14
scalar tree_4_3_u07_r11_network.content_distribution 	client-2 	15
scalar tree_4_3_u07_r11_network.content_distribution 	client-3 	16
scalar tree_4_3_u07_r11_network.content_distribution 	client-4 	17
scalar tree_4_3_u07_r11_network.content_distribution 	client-5 	18
scalar tree_4_3_u07_r11_network.content_distribution 	client-6 	19
scalar tree_4_3_u07_r11_network.content_distribution 	client-7 	20
scalar tree_4_3_u07_r11_network.content_distribution 	client-8 	21
scalar tree_4_3_u07_r11_network.content_distribution 	client-9 	22
scalar tree_4_3_u07_r11_network.content_distribution 	client-10 	23
scalar tree_4_3_u07_r11_network.content_distribution 	client-11 	24
scalar tree_4_3_u07_r11_network.content_distribution 	client-12 	25
scalar tree_4_3_u07_r11_network.content_distribution 	client-13 	26
scalar tree_4_3_u07_r11_network.content_distribution 	client-14 	27
scalar tree_4_3_u07_r11_network.content_distribution 	client-15 	28
scalar tree_4_3_u07_r11_network.content_distribution 	client-16 	29
scalar tree_4_3_u07_r11_network.content_distribution 	client-17 	30
scalar tree_4_3_u07_r11_network.content_distribution 	client-18 	31
scalar tree_4_3_u07_r11_network.content_distribution 	client-19 	32
scalar tree_4_3_u07_r11_network.content_distribution 	client-20 	33
scalar tree_4_3_u07_r11_network.content_distribution 	client-21 	34
scalar tree_4_3_u07_r11_network.content_distribution 	client-22 	35
scalar tree_4_3_u07_r11_network.content_distribution 	client-23 	36
scalar tree_4_3_u07_r11_network.content_distribution 	client-24 	37
scalar tree_4_3_u07_r11_network.content_distribution 	client-25 	38
scalar tree_4_3_u07_r11_network.content_distribution 	client-26 	39
scalar tree_4_3_u07_r11_network.content_distribution 	repo-0_card 	100000
scalar tree_4_3_u07_r11_network.content_distribution 	repo-0_price 	0
scalar tree_4_3_u07_r11_network.statistics 	stabilization_time 	423.6
scalar tree_4_3_u07_r11_network.statistics 	p_hit 	0.10554868084584
scalar tree_4_3_u07_r11_network.statistics 	interests 	28600.275
scalar tree_4_3_u07_r11_network.statistics 	data 	20499.2
scalar tree_4_3_u07_r11_network.statistics 	hdistance 	3.3744739180353
scalar tree_4_3_u07_r11_network.statistics 	avg_time 	0.005061246209
scalar tree_4_3_u07_r11_network.statistics 	downloads 	324016
scalar tree_4_3_u07_r11_network.statistics 	total_cost 	0
scalar tree_4_3_u07_r11_network.statistics 	total_replicas 	100000
scalar tree_4_3_u07_r11_network.statistics 	inner_hit 	0.1565632561355
scalar tree_4_3_u07_r11_network.node[0].core_layer 	interests[0] 	273287
scalar tree_4_3_u07_r11_network.node[0].core_layer 	repo_load[0] 	273287
scalar tree_4_3_u07_r11_network.node[0].core_layer 	data[0] 	0
scalar tree_4_3_u07_r11_network.node[0].core_layer 	repo_int[0] 	273287
scalar tree_4_3_u07_r11_network.node[0].content_store 	p_hit[0] 	0
scalar tree_4_3_u07_r11_network.node[0].content_store 	hits[0] 	0
scalar tree_4_3_u07_r11_network.node[0].content_store 	misses[0] 	273287
scalar tree_4_3_u07_r11_network.node[0].content_store 	decision_yes[0] 	0
scalar tree_4_3_u07_r11_network.node[0].content_store 	decision_no[0] 	273287
scalar tree_4_3_u07_r11_network.node[0].content_store 	decision_ratio[0] 	0
scalar tree_4_3_u07_r11_network.node[1].core_layer 	interests[1] 	192210
scalar tree_4_3_u07_r11_network.node[1].core_layer 	data[1] 	192168
scalar tree_4_3_u07_r11_network.node[1].content_store 	p_hit[1] 	0
scalar tree_4_3_u07_r11_network.node[1].content_store 	hits[1] 	0
scalar tree_4_3_u07_r11_network.node[1].content_store 	misses[1] 	192210
scalar tree_4_3_u07_r11_network.node[1].content_store 	decision_yes[1] 	0
scalar tree_4_3_u07_r11_network.node[1].content_store 	decision_no[1] 	192168
scalar tree_4_3_u07_r11_network.node[1].content_store 	decision_ratio[1] 	0
scalar tree_4_3_u07_r11_network.node[2].core_layer 	interests[2] 	60930
scalar tree_4_3_u07_r11_network.node[2].core_layer 	data[2] 	60928
scalar tree_4_3_u07_r11_network.node[2].content_store 	p_hit[2] 	0
scalar tree_4_3_u07_r11_network.node[2].content_store 	hits[2] 	0
scalar tree_4_3_u07_r11_network.node[2].content_store 	misses[2] 	60930
scalar tree_4_3_u07_r11_network.node[2].content_store 	decision_yes[2] 	0
scalar tree_4_3_u07_r11_network.node[2].content_store 	decision_no[2] 	60928
scalar tree_4_3_u07_r11_network.node[2].content_store 	decision_ratio[2] 	0
scalar tree_4_3_u07_r11_network.node[3].core_layer 	interests[3] 	20191
scalar tree_4_3_u07_r11_network.node[3].core_layer 	data[3] 	20191
scalar tree_4_3_u07_r11_network.node[3].content_store 	p_hit[3] 	0
scalar tree_4_3_u07_r11_network.node[3].content_store 	hits[3] 	0
scalar tree_4_3_u07_r11_network.node[3].content_store 	misses[3] 	20191
scalar tree_4_3_u07_r11_network.node[3].content_store 	decision_yes[3] 	0
scalar tree_4_3_u07_r11_network.node[3].content_store 	decision_no[3] 	20191
scalar tree_4_3_u07_r11_network.node[3].content_store 	decision_ratio[3] 	0
scalar tree_4_3_u07_r11_network.node[4].core_layer 	interests[4] 	40222
scalar tree_4_3_u07_r11_network.node[4].core_layer 	data[4] 	40216
scalar tree_4_3_u07_r11_network.node[4].content_store 	p_hit[4] 	0
scalar tree_4_3_u07_r11_network.node[4].content_store 	hits[4] 	0
scalar tree_4_3_u07_r11_network.node[4].content_store 	misses[4] 	40222
scalar tree_4_3_u07_r11_network.node[4].content_store 	decision_yes[4] 	0
scalar tree_4_3_u07_r11_network.node[4].content_store 	decision_no[4] 	40216
scalar tree_4_3_u07_r11_network.node[4].content_store 	decision_ratio[4] 	0
scalar tree_4_3_u07_r11_network.node[5].core_layer 	interests[5] 	20306
scalar tree_4_3_u07_r11_network.node[5].core_layer 	data[5] 	20307
scalar tree_4_3_u07_r11_network.node[5].content_store 	p_hit[5] 	0
scalar tree_4_3_u07_r11_network.node[5].content_store 	hits[5] 	0
scalar tree_4_3_u07_r11_network.node[5].content_store 	misses[5] 	20306
scalar tree_4_3_u07_r11_network.node[5].content_store 	decision_yes[5] 	0
scalar tree_4_3_u07_r11_network.node[5].content_store 	decision_no[5] 	20307
scalar tree_4_3_u07_r11_network.node[5].content_store 	decision_ratio[5] 	0
scalar tree_4_3_u07_r11_network.node[6].core_layer 	interests[6] 	30676
scalar tree_4_3_u07_r11_network.node[6].core_layer 	data[6] 	30674
scalar tree_4_3_u07_r11_network.node[6].content_store 	p_hit[6] 	0
scalar tree_4_3_u07_r11_network.node[6].content_store 	hits[6] 	0
scalar tree_4_3_u07_r11_network.node[6].content_store 	misses[6] 	30676
scalar tree_4_3_u07_r11_network.node[6].content_store 	decision_yes[6] 	0
scalar tree_4_3_u07_r11_network.node[6].content_store 	decision_no[6] 	30674
scalar tree_4_3_u07_r11_network.node[6].content_store 	decision_ratio[6] 	0
scalar tree_4_3_u07_r11_network.node[7].core_layer 	interests[7] 	50508
scalar tree_4_3_u07_r11_network.node[7].core_layer 	data[7] 	50505
scalar tree_4_3_u07_r11_network.node[7].content_store 	p_hit[7] 	0
scalar tree_4_3_u07_r11_network.node[7].content_store 	hits[7] 	0
scalar tree_4_3_u07_r11_network.node[7].content_store 	misses[7] 	50508
scalar tree_4_3_u07_r11_network.node[7].content_store 	decision_yes[7] 	0
scalar tree_4_3_u07_r11_network.node[7].content_store 	decision_no[7] 	50505
scalar tree_4_3_u07_r11_network.node[7].content_store 	decision_ratio[7] 	0
scalar tree_4_3_u07_r11_network.node[8].core_layer 	interests[8] 	20289
scalar tree_4_3_u07_r11_network.node[8].core_layer 	data[8] 	20288
scalar tree_4_3_u07_r11_network.node[8].content_store 	p_hit[8] 	0
scalar tree_4_3_u07_r11_network.node[8].content_store 	hits[8] 	0
scalar tree_4_3_u07_r11_network.node[8].content_store 	misses[8] 	20289
scalar tree_4_3_u07_r11_network.node[8].content_store 	decision_yes[8] 	0
scalar tree_4_3_u07_r11_network.node[8].content_store 	decision_no[8] 	20288
scalar tree_4_3_u07_r11_network.node[8].content_store 	decision_ratio[8] 	0
scalar tree_4_3_u07_r11_network.node[9].core_layer 	interests[9] 	20437
scalar tree_4_3_u07_r11_network.node[9].core_layer 	data[9] 	20438
scalar tree_4_3_u07_r11_network.node[9].content_store 	p_hit[9] 	0
scalar tree_4_3_u07_r11_network.node[9].content_store 	hits[9] 	0
scalar tree_4_3_u07_r11_network.node[9].content_store 	misses[9] 	20437
scalar tree_4_3_u07_r11_network.node[9].content_store 	decision_yes[9] 	0
scalar tree_4_3_u07_r11_network.node[9].content_store 	decision_no[9] 	20438
scalar tree_4_3_u07_r11_network.node[9].content_store 	decision_ratio[9] 	0
scalar tree_4_3_u07_r11_network.node[10].core_layer 	interests[10] 	50516
scalar tree_4_3_u07_r11_network.node[10].core_layer 	data[10] 	50508
scalar tree_4_3_u07_r11_network.node[10].content_store 	p_hit[10] 	0
scalar tree_4_3_u07_r11_network.node[10].content_store 	hits[10] 	0
scalar tree_4_3_u07_r11_network.node[10].content_store 	misses[10] 	50516
scalar tree_4_3_u07_r11_network.node[10].content_store 	decision_yes[10] 	0
scalar tree_4_3_u07_r11_network.node[10].content_store 	decision_no[10] 	50508
scalar tree_4_3_u07_r11_network.node[10].content_store 	decision_ratio[10] 	0
scalar tree_4_3_u07_r11_network.node[11].core_layer 	interests[11] 	20204
scalar tree_4_3_u07_r11_network.node[11].core_layer 	data[11] 	20204
scalar tree_4_3_u07_r11_network.node[11].content_store 	p_hit[11] 	0
scalar tree_4_3_u07_r11_network.node[11].content_store 	hits[11] 	0
scalar tree_4_3_u07_r11_network.node[11].content_store 	misses[11] 	20204
scalar tree_4_3_u07_r11_network.node[11].content_store 	decision_yes[11] 	0
scalar tree_4_3_u07_r11_network.node[11].content_store 	decision_no[11] 	20204
scalar tree_4_3_u07_r11_network.node[11].content_store 	decision_ratio[11] 	0
scalar tree_4_3_u07_r11_network.node[12].core_layer 	interests[12] 	20192
scalar tree_4_3_u07_r11_network.node[12].core_layer 	data[12] 	20191
scalar tree_4_3_u07_r11_network.node[12].content_store 	p_hit[12] 	0
scalar tree_4_3_u07_r11_network.node[12].content_store 	hits[12] 	0
scalar tree_4_3_u07_r11_network.node[12].content_store 	misses[12] 	20192
scalar tree_4_3_u07_r11_network.node[12].content_store 	decision_yes[12] 	0
scalar tree_4_3_u07_r11_network.node[12].content_store 	decision_no[12] 	20191
scalar tree_4_3_u07_r11_network.node[12].content_store 	decision_ratio[12] 	0
scalar tree_4_3_u07_r11_network.node[13].core_layer 	interests[13] 	11822
scalar tree_4_3_u07_r11_network.node[13].core_layer 	data[13] 	10000
scalar tree_4_3_u07_r11_network.node[13].content_store 	p_hit[13] 	0.15403485027914
scalar tree_4_3_u07_r11_network.node[13].content_store 	hits[13] 	1821
scalar tree_4_3_u07_r11_network.node[13].content_store 	misses[13] 	10001
scalar tree_4_3_u07_r11_network.node[13].content_store 	decision_yes[13] 	10000
scalar tree_4_3_u07_r11_network.node[13].content_store 	decision_no[13] 	0
scalar tree_4_3_u07_r11_network.node[13].content_store 	decision_ratio[13] 	1
scalar tree_4_3_u07_r11_network.node[14].core_layer 	interests[14] 	11946
scalar tree_4_3_u07_r11_network.node[14].core_layer 	data[14] 	10079
scalar tree_4_3_u07_r11_network.node[14].content_store 	p_hit[14] 	0.15620291310899
scalar tree_4_3_u07_r11_network.node[14].content_store 	hits[14] 	1866
scalar tree_4_3_u07_r11_network.node[14].content_store 	misses[14] 	10080
scalar tree_4_3_u07_r11_network.node[14].content_store 	decision_yes[14] 	10079
scalar tree_4_3_u07_r11_network.node[14].content_store 	decision_no[14] 	0
scalar tree_4_3_u07_r11_network.node[14].content_store 	decision_ratio[14] 	1
scalar tree_4_3_u07_r11_network.node[15].core_layer 	interests[15] 	11904
scalar tree_4_3_u07_r11_network.node[15].core_layer 	data[15] 	10019
scalar tree_4_3_u07_r11_network.node[15].content_store 	p_hit[15] 	0.15818212365591
scalar tree_4_3_u07_r11_network.node[15].content_store 	hits[15] 	1883
scalar tree_4_3_u07_r11_network.node[15].content_store 	misses[15] 	10021
scalar tree_4_3_u07_r11_network.node[15].content_store 	decision_yes[15] 	10019
scalar tree_4_3_u07_r11_network.node[15].content_store 	decision_no[15] 	0
scalar tree_4_3_u07_r11_network.node[15].content_store 	decision_ratio[15] 	1
scalar tree_4_3_u07_r11_network.node[16].core_layer 	interests[16] 	12019
scalar tree_4_3_u07_r11_network.node[16].core_layer 	data[16] 	10124
scalar tree_4_3_u07_r11_network.node[16].content_store 	p_hit[16] 	0.15758382560945
scalar tree_4_3_u07_r11_network.node[16].content_store 	hits[16] 	1894
scalar tree_4_3_u07_r11_network.node[16].content_store 	misses[16] 	10125
scalar tree_4_3_u07_r11_network.node[16].content_store 	decision_yes[16] 	10124
scalar tree_4_3_u07_r11_network.node[16].content_store 	decision_no[16] 	0
scalar tree_4_3_u07_r11_network.node[16].content_store 	decision_ratio[16] 	1
scalar tree_4_3_u07_r11_network.node[17].core_layer 	interests[17] 	12017
scalar tree_4_3_u07_r11_network.node[17].core_layer 	data[17] 	10110
scalar tree_4_3_u07_r11_network.node[17].content_store 	p_hit[17] 	0.15877506865274
scalar tree_4_3_u07_r11_network.node[17].content_store 	hits[17] 	1908
scalar tree_4_3_u07_r11_network.node[17].content_store 	misses[17] 	10109
scalar tree_4_3_u07_r11_network.node[17].content_store 	decision_yes[17] 	10110
scalar tree_4_3_u07_r11_network.node[17].content_store 	decision_no[17] 	0
scalar tree_4_3_u07_r11_network.node[17].content_store 	decision_ratio[17] 	1
scalar tree_4_3_u07_r11_network.node[18].core_layer 	interests[18] 	12063
scalar tree_4_3_u07_r11_network.node[18].core_layer 	data[18] 	10197
scalar tree_4_3_u07_r11_network.node[18].content_store 	p_hit[18] 	0.15460499046672
scalar tree_4_3_u07_r11_network.node[18].content_store 	hits[18] 	1865
scalar tree_4_3_u07_r11_network.node[18].content_store 	misses[18] 	10198
scalar tree_4_3_u07_r11_network.node[18].content_store 	decision_yes[18] 	10197
scalar tree_4_3_u07_r11_network.node[18].content_store 	decision_no[18] 	0
scalar tree_4_3_u07_r11_network.node[18].content_store 	decision_ratio[18] 	1
scalar tree_4_3_u07_r11_network.node[19].core_layer 	interests[19] 	11988
scalar tree_4_3_u07_r11_network.node[19].core_layer 	data[19] 	10136
scalar tree_4_3_u07_r11_network.node[19].content_store 	p_hit[19] 	0.1544044044044
scalar tree_4_3_u07_r11_network.node[19].content_store 	hits[19] 	1851
scalar tree_4_3_u07_r11_network.node[19].content_store 	misses[19] 	10137
scalar tree_4_3_u07_r11_network.node[19].content_store 	decision_yes[19] 	10136
scalar tree_4_3_u07_r11_network.node[19].content_store 	decision_no[19] 	0
scalar tree_4_3_u07_r11_network.node[19].content_store 	decision_ratio[19] 	1
scalar tree_4_3_u07_r11_network.node[20].core_layer 	interests[20] 	12009
scalar tree_4_3_u07_r11_network.node[20].core_layer 	data[20] 	10150
scalar tree_4_3_u07_r11_network.node[20].content_store 	p_hit[20] 	0.15480056624199
scalar tree_4_3_u07_r11_network.node[20].content_store 	hits[20] 	1859
scalar tree_4_3_u07_r11_network.node[20].content_store 	misses[20] 	10150
scalar tree_4_3_u07_r11_network.node[20].content_store 	decision_yes[20] 	10150
scalar tree_4_3_u07_r11_network.node[20].content_store 	decision_no[20] 	0
scalar tree_4_3_u07_r11_network.node[20].content_store 	decision_ratio[20] 	1
scalar tree_4_3_u07_r11_network.node[21].core_layer 	interests[21] 	12223
scalar tree_4_3_u07_r11_network.node[21].core_layer 	data[21] 	10390
scalar tree_4_3_u07_r11_network.node[21].content_store 	p_hit[21] 	0.14979955820993
scalar tree_4_3_u07_r11_network.node[21].content_store 	hits[21] 	1831
scalar tree_4_3_u07_r11_network.node[21].content_store 	misses[21] 	10392
scalar tree_4_3_u07_r11_network.node[21].content_store 	decision_yes[21] 	10390
scalar tree_4_3_u07_r11_network.node[21].content_store 	decision_no[21] 	0
scalar tree_4_3_u07_r11_network.node[21].content_store 	decision_ratio[21] 	1
scalar tree_4_3_u07_r11_network.node[22].core_layer 	interests[22] 	11937
scalar tree_4_3_u07_r11_network.node[22].core_layer 	data[22] 	10081
scalar tree_4_3_u07_r11_network.node[22].content_store 	p_hit[22] 	0.15539917902321
scalar tree_4_3_u07_r11_network.node[22].content_store 	hits[22] 	1855
scalar tree_4_3_u07_r11_network.node[22].content_store 	misses[22] 	10082
scalar tree_4_3_u07_r11_network.node[22].content_store 	decision_yes[22] 	10081
scalar tree_4_3_u07_r11_network.node[22].content_store 	decision_no[22] 	0
scalar tree_4_3_u07_r11_network.node[22].content_store 	decision_ratio[22] 	1
scalar tree_4_3_u07_r11_network.node[23].core_layer 	interests[23] 	12192
scalar tree_4_3_u07_r11_network.node[23].core_layer 	data[23] 	10300
scalar tree_4_3_u07_r11_network.node[23].content_store 	p_hit[23] 	0.15510170603675
scalar tree_4_3_u07_r11_network.node[23].content_store 	hits[23] 	1891
scalar tree_4_3_u07_r11_network.node[23].content_store 	misses[23] 	10301
scalar tree_4_3_u07_r11_network.node[23].content_store 	decision_yes[23] 	10300
scalar tree_4_3_u07_r11_network.node[23].content_store 	decision_no[23] 	0
scalar tree_4_3_u07_r11_network.node[23].content_store 	decision_ratio[23] 	1
scalar tree_4_3_u07_r11_network.node[24].core_layer 	interests[24] 	11949
scalar tree_4_3_u07_r11_network.node[24].core_layer 	data[24] 	9995
scalar tree_4_3_u07_r11_network.node[24].content_store 	p_hit[24] 	0.1634446397188
scalar tree_4_3_u07_r11_network.node[24].content_store 	hits[24] 	1953
scalar tree_4_3_u07_r11_network.node[24].content_store 	misses[24] 	9996
scalar tree_4_3_u07_r11_network.node[24].content_store 	decision_yes[24] 	9995
scalar tree_4_3_u07_r11_network.node[24].content_store 	decision_no[24] 	0
scalar tree_4_3_u07_r11_network.node[24].content_store 	decision_ratio[24] 	1
scalar tree_4_3_u07_r11_network.node[25].core_layer 	interests[25] 	12010
scalar tree_4_3_u07_r11_network.node[25].core_layer 	data[25] 	10095
scalar tree_4_3_u07_r11_network.node[25].content_store 	p_hit[25] 	0.15945045795171
scalar tree_4_3_u07_r11_network.node[25].content_store 	hits[25] 	1915
scalar tree_4_3_u07_r11_network.node[25].content_store 	misses[25] 	10095
scalar tree_4_3_u07_r11_network.node[25].content_store 	decision_yes[25] 	10095
scalar tree_4_3_u07_r11_network.node[25].content_store 	decision_no[25] 	0
scalar tree_4_3_u07_r11_network.node[25].content_store 	decision_ratio[25] 	1
scalar tree_4_3_u07_r11_network.node[26].core_layer 	interests[26] 	11984
scalar tree_4_3_u07_r11_network.node[26].core_layer 	data[26] 	10102
scalar tree_4_3_u07_r11_network.node[26].content_store 	p_hit[26] 	0.15704272363151
scalar tree_4_3_u07_r11_network.node[26].content_store 	hits[26] 	1882
scalar tree_4_3_u07_r11_network.node[26].content_store 	misses[26] 	10102
scalar tree_4_3_u07_r11_network.node[26].content_store 	decision_yes[26] 	10102
scalar tree_4_3_u07_r11_network.node[26].content_store 	decision_no[26] 	0
scalar tree_4_3_u07_r11_network.node[26].content_store 	decision_ratio[26] 	1
scalar tree_4_3_u07_r11_network.node[27].core_layer 	interests[27] 	12019
scalar tree_4_3_u07_r11_network.node[27].core_layer 	data[27] 	10187
scalar tree_4_3_u07_r11_network.node[27].content_store 	p_hit[27] 	0.15242532656627
scalar tree_4_3_u07_r11_network.node[27].content_store 	hits[27] 	1832
scalar tree_4_3_u07_r11_network.node[27].content_store 	misses[27] 	10187
scalar tree_4_3_u07_r11_network.node[27].content_store 	decision_yes[27] 	10187
scalar tree_4_3_u07_r11_network.node[27].content_store 	decision_no[27] 	0
scalar tree_4_3_u07_r11_network.node[27].content_store 	decision_ratio[27] 	1
scalar tree_4_3_u07_r11_network.node[28].core_layer 	interests[28] 	11958
scalar tree_4_3_u07_r11_network.node[28].core_layer 	data[28] 	10036
scalar tree_4_3_u07_r11_network.node[28].content_store 	p_hit[28] 	0.16064559290851
scalar tree_4_3_u07_r11_network.node[28].content_store 	hits[28] 	1921
scalar tree_4_3_u07_r11_network.node[28].content_store 	misses[28] 	10037
scalar tree_4_3_u07_r11_network.node[28].content_store 	decision_yes[28] 	10036
scalar tree_4_3_u07_r11_network.node[28].content_store 	decision_no[28] 	0
scalar tree_4_3_u07_r11_network.node[28].content_store 	decision_ratio[28] 	1
scalar tree_4_3_u07_r11_network.node[29].core_layer 	interests[29] 	12057
scalar tree_4_3_u07_r11_network.node[29].core_layer 	data[29] 	10217
scalar tree_4_3_u07_r11_network.node[29].content_store 	p_hit[29] 	0.152608443228
scalar tree_4_3_u07_r11_network.node[29].content_store 	hits[29] 	1840
scalar tree_4_3_u07_r11_network.node[29].content_store 	misses[29] 	10217
scalar tree_4_3_u07_r11_network.node[29].content_store 	decision_yes[29] 	10217
scalar tree_4_3_u07_r11_network.node[29].content_store 	decision_no[29] 	0
scalar tree_4_3_u07_r11_network.node[29].content_store 	decision_ratio[29] 	1
scalar tree_4_3_u07_r11_network.node[30].core_layer 	interests[30] 	11993
scalar tree_4_3_u07_r11_network.node[30].core_layer 	data[30] 	10221
scalar tree_4_3_u07_r11_network.node[30].content_store 	p_hit[30] 	0.14775285583257
scalar tree_4_3_u07_r11_network.node[30].content_store 	hits[30] 	1772
scalar tree_4_3_u07_r11_network.node[30].content_store 	misses[30] 	10221
scalar tree_4_3_u07_r11_network.node[30].content_store 	decision_yes[30] 	10221
scalar tree_4_3_u07_r11_network.node[30].content_store 	decision_no[30] 	0
scalar tree_4_3_u07_r11_network.node[30].content_store 	decision_ratio[30] 	1
scalar tree_4_3_u07_r11_network.node[31].core_layer 	interests[31] 	12068
scalar tree_4_3_u07_r11_network.node[31].core_layer 	data[31] 	10141
scalar tree_4_3_u07_r11_network.node[31].content_store 	p_hit[31] 	0.15959562479284
scalar tree_4_3_u07_r11_network.node[31].content_store 	hits[31] 	1926
scalar tree_4_3_u07_r11_network.node[31].content_store 	misses[31] 	10142
scalar tree_4_3_u07_r11_network.node[31].content_store 	decision_yes[31] 	10141
scalar tree_4_3_u07_r11_network.node[31].content_store 	decision_no[31] 	0
scalar tree_4_3_u07_r11_network.node[31].content_store 	decision_ratio[31] 	1
scalar tree_4_3_u07_r11_network.node[32].core_layer 	interests[32] 	11946
scalar tree_4_3_u07_r11_network.node[32].core_layer 	data[32] 	10032
scalar tree_4_3_u07_r11_network.node[32].content_store 	p_hit[32] 	0.15980244433283
scalar tree_4_3_u07_r11_network.node[32].content_store 	hits[32] 	1909
scalar tree_4_3_u07_r11_network.node[32].content_store 	misses[32] 	10037
scalar tree_4_3_u07_r11_network.node[32].content_store 	decision_yes[32] 	10032
scalar tree_4_3_u07_r11_network.node[32].content_store 	decision_no[32] 	0
scalar tree_4_3_u07_r11_network.node[32].content_store 	decision_ratio[32] 	1
scalar tree_4_3_u07_r11_network.node[33].core_layer 	interests[33] 	12053
scalar tree_4_3_u07_r11_network.node[33].core_layer 	data[33] 	10218
scalar tree_4_3_u07_r11_network.node[33].content_store 	p_hit[33] 	0.15216128764623
scalar tree_4_3_u07_r11_network.node[33].content_store 	hits[33] 	1834
scalar tree_4_3_u07_r11_network.node[33].content_store 	misses[33] 	10219
scalar tree_4_3_u07_r11_network.node[33].content_store 	decision_yes[33] 	10218
scalar tree_4_3_u07_r11_network.node[33].content_store 	decision_no[33] 	0
scalar tree_4_3_u07_r11_network.node[33].content_store 	decision_ratio[33] 	1
scalar tree_4_3_u07_r11_network.node[34].core_layer 	interests[34] 	11967
scalar tree_4_3_u07_r11_network.node[34].core_layer 	data[34] 	10058
scalar tree_4_3_u07_r11_network.node[34].content_store 	p_hit[34] 	0.15935489262138
scalar tree_4_3_u07_r11_network.node[34].content_store 	hits[34] 	1907
scalar tree_4_3_u07_r11_network.node[34].content_store 	misses[34] 	10060
scalar tree_4_3_u07_r11_network.node[34].content_store 	decision_yes[34] 	10058
scalar tree_4_3_u07_r11_network.node[34].content_store 	decision_no[34] 	0
scalar tree_4_3_u07_r11_network.node[34].content_store 	decision_ratio[34] 	1
scalar tree_4_3_u07_r11_network.node[35].core_layer 	interests[35] 	11911
scalar tree_4_3_u07_r11_network.node[35].core_layer 	data[35] 	9996
scalar tree_4_3_u07_r11_network.node[35].content_store 	p_hit[35] 	0.16069179749811
scalar tree_4_3_u07_r11_network.node[35].content_store 	hits[35] 	1914
scalar tree_4_3_u07_r11_network.node[35].content_store 	misses[35] 	9997
scalar tree_4_3_u07_r11_network.node[35].content_store 	decision_yes[35] 	9996
scalar tree_4_3_u07_r11_network.node[35].content_store 	decision_no[35] 	0
scalar tree_4_3_u07_r11_network.node[35].content_store 	decision_ratio[35] 	1
scalar tree_4_3_u07_r11_network.node[36].core_layer 	interests[36] 	12031
scalar tree_4_3_u07_r11_network.node[36].core_layer 	data[36] 	10208
scalar tree_4_3_u07_r11_network.node[36].content_store 	p_hit[36] 	0.1513589892777
scalar tree_4_3_u07_r11_network.node[36].content_store 	hits[36] 	1821
scalar tree_4_3_u07_r11_network.node[36].content_store 	misses[36] 	10210
scalar tree_4_3_u07_r11_network.node[36].content_store 	decision_yes[36] 	10208
scalar tree_4_3_u07_r11_network.node[36].content_store 	decision_no[36] 	0
scalar tree_4_3_u07_r11_network.node[36].content_store 	decision_ratio[36] 	1
scalar tree_4_3_u07_r11_network.node[37].core_layer 	interests[37] 	11919
scalar tree_4_3_u07_r11_network.node[37].core_layer 	data[37] 	10066
scalar tree_4_3_u07_r11_network.node[37].content_store 	p_hit[37] 	0.15529826327712
scalar tree_4_3_u07_r11_network.node[37].content_store 	hits[37] 	1851
scalar tree_4_3_u07_r11_network.node[37].content_store 	misses[37] 	10068
scalar tree_4_3_u07_r11_network.node[37].content_store 	decision_yes[37] 	10066
scalar tree_4_3_u07_r11_network.node[37].content_store 	decision_no[37] 	0
scalar tree_4_3_u07_r11_network.node[37].content_store 	decision_ratio[37] 	1
scalar tree_4_3_u07_r11_network.node[38].core_layer 	interests[38] 	12136
scalar tree_4_3_u07_r11_network.node[38].core_layer 	data[38] 	10266
scalar tree_4_3_u07_r11_network.node[38].content_store 	p_hit[38] 	0.15408701384311
scalar tree_4_3_u07_r11_network.node[38].content_store 	hits[38] 	1870
scalar tree_4_3_u07_r11_network.node[38].content_store 	misses[38] 	10266
scalar tree_4_3_u07_r11_network.node[38].content_store 	decision_yes[38] 	10266
scalar tree_4_3_u07_r11_network.node[38].content_store 	decision_no[38] 	0
scalar tree_4_3_u07_r11_network.node[38].content_store 	decision_ratio[38] 	1
scalar tree_4_3_u07_r11_network.node[39].core_layer 	interests[39] 	11922
scalar tree_4_3_u07_r11_network.node[39].core_layer 	data[39] 	9926
scalar tree_4_3_u07_r11_network.node[39].content_store 	p_hit[39] 	0.16733769501761
scalar tree_4_3_u07_r11_network.node[39].content_store 	hits[39] 	1995
scalar tree_4_3_u07_r11_network.node[39].content_store 	misses[39] 	9927
scalar tree_4_3_u07_r11_network.node[39].content_store 	decision_yes[39] 	9926
scalar tree_4_3_u07_r11_network.node[39].content_store 	decision_no[39] 	0
scalar tree_4_3_u07_r11_network.node[39].content_store 	decision_ratio[39] 	1
scalar tree_4_3_u07_r11_network.client[13] 	hdistance[13] 	3.3838084764402
scalar tree_4_3_u07_r11_network.client[13] 	downloads[13] 	11821
scalar tree_4_3_u07_r11_network.client[13] 	avg_time[13] 	0.005074987146
scalar tree_4_3_u07_r11_network.client[14] 	hdistance[14] 	3.3751360401842
scalar tree_4_3_u07_r11_network.client[14] 	downloads[14] 	11945
scalar tree_4_3_u07_r11_network.client[14] 	avg_time[14] 	0.005062066696
scalar tree_4_3_u07_r11_network.client[15] 	hdistance[15] 	3.3671651823223
scalar tree_4_3_u07_r11_network.client[15] 	downloads[15] 	11902
scalar tree_4_3_u07_r11_network.client[15] 	avg_time[15] 	0.005049482191
scalar tree_4_3_u07_r11_network.client[16] 	hdistance[16] 	3.3696122482942
scalar tree_4_3_u07_r11_network.client[16] 	downloads[16] 	12018
scalar tree_4_3_u07_r11_network.client[16] 	avg_time[16] 	0.005053454126
scalar tree_4_3_u07_r11_network.client[17] 	hdistance[17] 	3.3649525711433
scalar tree_4_3_u07_r11_network.client[17] 	downloads[17] 	12018
scalar tree_4_3_u07_r11_network.client[17] 	avg_time[17] 	0.005047088541
scalar tree_4_3_u07_r11_network.client[18] 	hdistance[18] 	3.3815287680318
scalar tree_4_3_u07_r11_network.client[18] 	downloads[18] 	12062
scalar tree_4_3_u07_r11_network.client[18] 	avg_time[18] 	0.005071942103
scalar tree_4_3_u07_r11_network.client[19] 	hdistance[19] 	3.38233085843
scalar tree_4_3_u07_r11_network.client[19] 	downloads[19] 	11987
scalar tree_4_3_u07_r11_network.client[19] 	avg_time[19] 	0.005072825428
scalar tree_4_3_u07_r11_network.client[20] 	hdistance[20] 	3.3807977350321
scalar tree_4_3_u07_r11_network.client[20] 	downloads[20] 	12009
scalar tree_4_3_u07_r11_network.client[20] 	avg_time[20] 	0.00507109591
scalar tree_4_3_u07_r11_network.client[21] 	hdistance[21] 	3.4007037067343
scalar tree_4_3_u07_r11_network.client[21] 	downloads[21] 	12221
scalar tree_4_3_u07_r11_network.client[21] 	avg_time[21] 	0.005100177354
scalar tree_4_3_u07_r11_network.client[22] 	hdistance[22] 	3.3783512064343
scalar tree_4_3_u07_r11_network.client[22] 	downloads[22] 	11936
scalar tree_4_3_u07_r11_network.client[22] 	avg_time[22] 	0.005067235992
scalar tree_4_3_u07_r11_network.client[23] 	hdistance[23] 	3.3795422852924
scalar tree_4_3_u07_r11_network.client[23] 	downloads[23] 	12191
scalar tree_4_3_u07_r11_network.client[23] 	avg_time[23] 	0.005069183527
scalar tree_4_3_u07_r11_network.client[24] 	hdistance[24] 	3.346166722464
scalar tree_4_3_u07_r11_network.client[24] 	downloads[24] 	11948
scalar tree_4_3_u07_r11_network.client[24] 	avg_time[24] 	0.005018711659
scalar tree_4_3_u07_r11_network.client[25] 	hdistance[25] 	3.3621981681932
scalar tree_4_3_u07_r11_network.client[25] 	downloads[25] 	12010
scalar tree_4_3_u07_r11_network.client[25] 	avg_time[25] 	0.005043128388
scalar tree_4_3_u07_r11_network.client[26] 	hdistance[26] 	3.371829105474
scalar tree_4_3_u07_r11_network.client[26] 	downloads[26] 	11984
scalar tree_4_3_u07_r11_network.client[26] 	avg_time[26] 	0.005057548294
scalar tree_4_3_u07_r11_network.client[27] 	hdistance[27] 	3.3902986937349
scalar tree_4_3_u07_r11_network.client[27] 	downloads[27] 	12019
scalar tree_4_3_u07_r11_network.client[27] 	avg_time[27] 	0.005085326771
scalar tree_4_3_u07_r11_network.client[28] 	hdistance[28] 	3.3573638872627
scalar tree_4_3_u07_r11_network.client[28] 	downloads[28] 	11957
scalar tree_4_3_u07_r11_network.client[28] 	avg_time[28] 	0.005035291526
scalar tree_4_3_u07_r11_network.client[29] 	hdistance[29] 	3.389566227088
scalar tree_4_3_u07_r11_network.client[29] 	downloads[29] 	12057
scalar tree_4_3_u07_r11_network.client[29] 	avg_time[29] 	0.005084354865
scalar tree_4_3_u07_r11_network.client[30] 	hdistance[30] 	3.4089885766697
scalar tree_4_3_u07_r11_network.client[30] 	downloads[30] 	11993
scalar tree_4_3_u07_r11_network.client[30] 	avg_time[30] 	0.005113479842
scalar tree_4_3_u07_r11_network.client[31] 	hdistance[31] 	3.361564597663
scalar tree_4_3_u07_r11_network.client[31] 	downloads[31] 	12067
scalar tree_4_3_u07_r11_network.client[31] 	avg_time[31] 	0.005041717479
scalar tree_4_3_u07_r11_network.client[32] 	hdistance[32] 	3.360522569299
scalar tree_4_3_u07_r11_network.client[32] 	downloads[32] 	11941
scalar tree_4_3_u07_r11_network.client[32] 	avg_time[32] 	0.005039937723
scalar tree_4_3_u07_r11_network.client[33] 	hdistance[33] 	3.3913043478261
scalar tree_4_3_u07_r11_network.client[33] 	downloads[33] 	12052
scalar tree_4_3_u07_r11_network.client[33] 	avg_time[33] 	0.005086075828
scalar tree_4_3_u07_r11_network.client[34] 	hdistance[34] 	3.3624738821563
scalar tree_4_3_u07_r11_network.client[34] 	downloads[34] 	11965
scalar tree_4_3_u07_r11_network.client[34] 	avg_time[34] 	0.005043065221
scalar tree_4_3_u07_r11_network.client[35] 	hdistance[35] 	3.3571788413098
scalar tree_4_3_u07_r11_network.client[35] 	downloads[35] 	11910
scalar tree_4_3_u07_r11_network.client[35] 	avg_time[35] 	0.005035547677
scalar tree_4_3_u07_r11_network.client[36] 	hdistance[36] 	3.3944633801646
scalar tree_4_3_u07_r11_network.client[36] 	downloads[36] 	12029
scalar tree_4_3_u07_r11_network.client[36] 	avg_time[36] 	0.005091454506
scalar tree_4_3_u07_r11_network.client[37] 	hdistance[37] 	3.3787026936309
scalar tree_4_3_u07_r11_network.client[37] 	downloads[37] 	11917
scalar tree_4_3_u07_r11_network.client[37] 	avg_time[37] 	0.005067605067
scalar tree_4_3_u07_r11_network.client[38] 	hdistance[38] 	3.3836519446276
scalar tree_4_3_u07_r11_network.client[38] 	downloads[38] 	12136
scalar tree_4_3_u07_r11_network.client[38] 	avg_time[38] 	0.005075284631
scalar tree_4_3_u07_r11_network.client[39] 	hdistance[39] 	3.3305930710511
scalar tree_4_3_u07_r11_network.client[39] 	downloads[39] 	11921
scalar tree_4_3_u07_r11_network.client[39] 	avg_time[39] 	0.00499557917
