version 2
run General-157-20160818-23:07:27-32642
attr a 0.9
attr cd lce
attr configname General
attr cr lru
attr datetime 20160818-23:07:27
attr experiment General
attr fsize 1
attr inifile hw5115/scenario_A/Edge.ini
attr iterationvars "$name=tree_4_3, $un=07, $rep=18, $scenario=Edge, $cd=lce, $cr=lru, $fsize=1, $a=0.9, $sl=spr, $ttl=1000, $variance=0.05"
attr iterationvars2 "$name=tree_4_3, $un=07, $rep=18, $scenario=Edge, $cd=lce, $cr=lru, $fsize=1, $a=0.9, $sl=spr, $ttl=1000, $variance=0.05, $repetition=0"
attr measurement "$name=tree_4_3, $un=07, $rep=18, $scenario=Edge, $cd=lce, $cr=lru, $fsize=1, $a=0.9, $sl=spr, $ttl=1000, $variance=0.05"
attr name tree_4_3
attr network networks.${name}_u${un}_r${rep}_network
attr processid 32642
attr rep 18
attr repetition 0
attr replication #0
attr resultdir results
attr runnumber 157
attr scenario Edge
attr seedset 18
attr sl spr
attr ttl 1000
attr un 07
attr variance 0.05

scalar . 	a 	0.9
scalar . 	fsize 	1
scalar . 	rep 	18
scalar . 	ttl 	1000
scalar . 	un 	07
scalar . 	variance 	0.05
scalar tree_4_3_u07_r18_network.content_distribution 	repo-0 	0
scalar tree_4_3_u07_r18_network.content_distribution 	client-0 	13
scalar tree_4_3_u07_r18_network.content_distribution 	client-1 	14
scalar tree_4_3_u07_r18_network.content_distribution 	client-2 	15
scalar tree_4_3_u07_r18_network.content_distribution 	client-3 	16
scalar tree_4_3_u07_r18_network.content_distribution 	client-4 	17
scalar tree_4_3_u07_r18_network.content_distribution 	client-5 	18
scalar tree_4_3_u07_r18_network.content_distribution 	client-6 	19
scalar tree_4_3_u07_r18_network.content_distribution 	client-7 	20
scalar tree_4_3_u07_r18_network.content_distribution 	client-8 	21
scalar tree_4_3_u07_r18_network.content_distribution 	client-9 	22
scalar tree_4_3_u07_r18_network.content_distribution 	client-10 	23
scalar tree_4_3_u07_r18_network.content_distribution 	client-11 	24
scalar tree_4_3_u07_r18_network.content_distribution 	client-12 	25
scalar tree_4_3_u07_r18_network.content_distribution 	client-13 	26
scalar tree_4_3_u07_r18_network.content_distribution 	client-14 	27
scalar tree_4_3_u07_r18_network.content_distribution 	client-15 	28
scalar tree_4_3_u07_r18_network.content_distribution 	client-16 	29
scalar tree_4_3_u07_r18_network.content_distribution 	client-17 	30
scalar tree_4_3_u07_r18_network.content_distribution 	client-18 	31
scalar tree_4_3_u07_r18_network.content_distribution 	client-19 	32
scalar tree_4_3_u07_r18_network.content_distribution 	client-20 	33
scalar tree_4_3_u07_r18_network.content_distribution 	client-21 	34
scalar tree_4_3_u07_r18_network.content_distribution 	client-22 	35
scalar tree_4_3_u07_r18_network.content_distribution 	client-23 	36
scalar tree_4_3_u07_r18_network.content_distribution 	client-24 	37
scalar tree_4_3_u07_r18_network.content_distribution 	client-25 	38
scalar tree_4_3_u07_r18_network.content_distribution 	client-26 	39
scalar tree_4_3_u07_r18_network.content_distribution 	repo-0_card 	100000
scalar tree_4_3_u07_r18_network.content_distribution 	repo-0_price 	0
scalar tree_4_3_u07_r18_network.statistics 	stabilization_time 	422.9
scalar tree_4_3_u07_r18_network.statistics 	p_hit 	0.10588540985656
scalar tree_4_3_u07_r18_network.statistics 	interests 	28617.1
scalar tree_4_3_u07_r18_network.statistics 	data 	20507.9
scalar tree_4_3_u07_r18_network.statistics 	hdistance 	3.3724859769612
scalar tree_4_3_u07_r18_network.statistics 	avg_time 	0.005058283756
scalar tree_4_3_u07_r18_network.statistics 	downloads 	324348
scalar tree_4_3_u07_r18_network.statistics 	total_cost 	0
scalar tree_4_3_u07_r18_network.statistics 	total_replicas 	100000
scalar tree_4_3_u07_r18_network.statistics 	inner_hit 	0.15709669860767
scalar tree_4_3_u07_r18_network.node[0].core_layer 	interests[0] 	273394
scalar tree_4_3_u07_r18_network.node[0].core_layer 	repo_load[0] 	273394
scalar tree_4_3_u07_r18_network.node[0].core_layer 	data[0] 	0
scalar tree_4_3_u07_r18_network.node[0].core_layer 	repo_int[0] 	273394
scalar tree_4_3_u07_r18_network.node[0].content_store 	p_hit[0] 	0
scalar tree_4_3_u07_r18_network.node[0].content_store 	hits[0] 	0
scalar tree_4_3_u07_r18_network.node[0].content_store 	misses[0] 	273394
scalar tree_4_3_u07_r18_network.node[0].content_store 	decision_yes[0] 	0
scalar tree_4_3_u07_r18_network.node[0].content_store 	decision_no[0] 	273394
scalar tree_4_3_u07_r18_network.node[0].content_store 	decision_ratio[0] 	0
scalar tree_4_3_u07_r18_network.node[1].core_layer 	interests[1] 	171820
scalar tree_4_3_u07_r18_network.node[1].core_layer 	data[1] 	171776
scalar tree_4_3_u07_r18_network.node[1].content_store 	p_hit[1] 	0
scalar tree_4_3_u07_r18_network.node[1].content_store 	hits[1] 	0
scalar tree_4_3_u07_r18_network.node[1].content_store 	misses[1] 	171820
scalar tree_4_3_u07_r18_network.node[1].content_store 	decision_yes[1] 	0
scalar tree_4_3_u07_r18_network.node[1].content_store 	decision_no[1] 	171776
scalar tree_4_3_u07_r18_network.node[1].content_store 	decision_ratio[1] 	0
scalar tree_4_3_u07_r18_network.node[2].core_layer 	interests[2] 	91730
scalar tree_4_3_u07_r18_network.node[2].core_layer 	data[2] 	91718
scalar tree_4_3_u07_r18_network.node[2].content_store 	p_hit[2] 	0
scalar tree_4_3_u07_r18_network.node[2].content_store 	hits[2] 	0
scalar tree_4_3_u07_r18_network.node[2].content_store 	misses[2] 	91730
scalar tree_4_3_u07_r18_network.node[2].content_store 	decision_yes[2] 	0
scalar tree_4_3_u07_r18_network.node[2].content_store 	decision_no[2] 	91718
scalar tree_4_3_u07_r18_network.node[2].content_store 	decision_ratio[2] 	0
scalar tree_4_3_u07_r18_network.node[3].core_layer 	interests[3] 	9901
scalar tree_4_3_u07_r18_network.node[3].core_layer 	data[3] 	9901
scalar tree_4_3_u07_r18_network.node[3].content_store 	p_hit[3] 	0
scalar tree_4_3_u07_r18_network.node[3].content_store 	hits[3] 	0
scalar tree_4_3_u07_r18_network.node[3].content_store 	misses[3] 	9901
scalar tree_4_3_u07_r18_network.node[3].content_store 	decision_yes[3] 	0
scalar tree_4_3_u07_r18_network.node[3].content_store 	decision_no[3] 	9901
scalar tree_4_3_u07_r18_network.node[3].content_store 	decision_ratio[3] 	0
scalar tree_4_3_u07_r18_network.node[4].core_layer 	interests[4] 	40373
scalar tree_4_3_u07_r18_network.node[4].core_layer 	data[4] 	40370
scalar tree_4_3_u07_r18_network.node[4].content_store 	p_hit[4] 	0
scalar tree_4_3_u07_r18_network.node[4].content_store 	hits[4] 	0
scalar tree_4_3_u07_r18_network.node[4].content_store 	misses[4] 	40373
scalar tree_4_3_u07_r18_network.node[4].content_store 	decision_yes[4] 	0
scalar tree_4_3_u07_r18_network.node[4].content_store 	decision_no[4] 	40370
scalar tree_4_3_u07_r18_network.node[4].content_store 	decision_ratio[4] 	0
scalar tree_4_3_u07_r18_network.node[5].core_layer 	interests[5] 	40480
scalar tree_4_3_u07_r18_network.node[5].core_layer 	data[5] 	40476
scalar tree_4_3_u07_r18_network.node[5].content_store 	p_hit[5] 	0
scalar tree_4_3_u07_r18_network.node[5].content_store 	hits[5] 	0
scalar tree_4_3_u07_r18_network.node[5].content_store 	misses[5] 	40480
scalar tree_4_3_u07_r18_network.node[5].content_store 	decision_yes[5] 	0
scalar tree_4_3_u07_r18_network.node[5].content_store 	decision_no[5] 	40476
scalar tree_4_3_u07_r18_network.node[5].content_store 	decision_ratio[5] 	0
scalar tree_4_3_u07_r18_network.node[6].core_layer 	interests[6] 	9987
scalar tree_4_3_u07_r18_network.node[6].core_layer 	data[6] 	9987
scalar tree_4_3_u07_r18_network.node[6].content_store 	p_hit[6] 	0
scalar tree_4_3_u07_r18_network.node[6].content_store 	hits[6] 	0
scalar tree_4_3_u07_r18_network.node[6].content_store 	misses[6] 	9987
scalar tree_4_3_u07_r18_network.node[6].content_store 	decision_yes[6] 	0
scalar tree_4_3_u07_r18_network.node[6].content_store 	decision_no[6] 	9987
scalar tree_4_3_u07_r18_network.node[6].content_store 	decision_ratio[6] 	0
scalar tree_4_3_u07_r18_network.node[7].core_layer 	interests[7] 	40517
scalar tree_4_3_u07_r18_network.node[7].core_layer 	data[7] 	40515
scalar tree_4_3_u07_r18_network.node[7].content_store 	p_hit[7] 	0
scalar tree_4_3_u07_r18_network.node[7].content_store 	hits[7] 	0
scalar tree_4_3_u07_r18_network.node[7].content_store 	misses[7] 	40517
scalar tree_4_3_u07_r18_network.node[7].content_store 	decision_yes[7] 	0
scalar tree_4_3_u07_r18_network.node[7].content_store 	decision_no[7] 	40515
scalar tree_4_3_u07_r18_network.node[7].content_store 	decision_ratio[7] 	0
scalar tree_4_3_u07_r18_network.node[8].core_layer 	interests[8] 	30626
scalar tree_4_3_u07_r18_network.node[8].core_layer 	data[8] 	30625
scalar tree_4_3_u07_r18_network.node[8].content_store 	p_hit[8] 	0
scalar tree_4_3_u07_r18_network.node[8].content_store 	hits[8] 	0
scalar tree_4_3_u07_r18_network.node[8].content_store 	misses[8] 	30626
scalar tree_4_3_u07_r18_network.node[8].content_store 	decision_yes[8] 	0
scalar tree_4_3_u07_r18_network.node[8].content_store 	decision_no[8] 	30625
scalar tree_4_3_u07_r18_network.node[8].content_store 	decision_ratio[8] 	0
scalar tree_4_3_u07_r18_network.node[9].core_layer 	interests[9] 	20370
scalar tree_4_3_u07_r18_network.node[9].core_layer 	data[9] 	20370
scalar tree_4_3_u07_r18_network.node[9].content_store 	p_hit[9] 	0
scalar tree_4_3_u07_r18_network.node[9].content_store 	hits[9] 	0
scalar tree_4_3_u07_r18_network.node[9].content_store 	misses[9] 	20370
scalar tree_4_3_u07_r18_network.node[9].content_store 	decision_yes[9] 	0
scalar tree_4_3_u07_r18_network.node[9].content_store 	decision_no[9] 	20370
scalar tree_4_3_u07_r18_network.node[9].content_store 	decision_ratio[9] 	0
scalar tree_4_3_u07_r18_network.node[10].core_layer 	interests[10] 	40475
scalar tree_4_3_u07_r18_network.node[10].core_layer 	data[10] 	40473
scalar tree_4_3_u07_r18_network.node[10].content_store 	p_hit[10] 	0
scalar tree_4_3_u07_r18_network.node[10].content_store 	hits[10] 	0
scalar tree_4_3_u07_r18_network.node[10].content_store 	misses[10] 	40475
scalar tree_4_3_u07_r18_network.node[10].content_store 	decision_yes[10] 	0
scalar tree_4_3_u07_r18_network.node[10].content_store 	decision_no[10] 	40473
scalar tree_4_3_u07_r18_network.node[10].content_store 	decision_ratio[10] 	0
scalar tree_4_3_u07_r18_network.node[11].core_layer 	interests[11] 	40739
scalar tree_4_3_u07_r18_network.node[11].core_layer 	data[11] 	40735
scalar tree_4_3_u07_r18_network.node[11].content_store 	p_hit[11] 	0
scalar tree_4_3_u07_r18_network.node[11].content_store 	hits[11] 	0
scalar tree_4_3_u07_r18_network.node[11].content_store 	misses[11] 	40739
scalar tree_4_3_u07_r18_network.node[11].content_store 	decision_yes[11] 	0
scalar tree_4_3_u07_r18_network.node[11].content_store 	decision_no[11] 	40735
scalar tree_4_3_u07_r18_network.node[11].content_store 	decision_ratio[11] 	0
scalar tree_4_3_u07_r18_network.node[12].core_layer 	interests[12] 	9901
scalar tree_4_3_u07_r18_network.node[12].core_layer 	data[12] 	9901
scalar tree_4_3_u07_r18_network.node[12].content_store 	p_hit[12] 	0
scalar tree_4_3_u07_r18_network.node[12].content_store 	hits[12] 	0
scalar tree_4_3_u07_r18_network.node[12].content_store 	misses[12] 	9901
scalar tree_4_3_u07_r18_network.node[12].content_store 	decision_yes[12] 	0
scalar tree_4_3_u07_r18_network.node[12].content_store 	decision_no[12] 	9901
scalar tree_4_3_u07_r18_network.node[12].content_store 	decision_ratio[12] 	0
scalar tree_4_3_u07_r18_network.node[13].core_layer 	interests[13] 	12095
scalar tree_4_3_u07_r18_network.node[13].core_layer 	data[13] 	10224
scalar tree_4_3_u07_r18_network.node[13].content_store 	p_hit[13] 	0.15469202149649
scalar tree_4_3_u07_r18_network.node[13].content_store 	hits[13] 	1871
scalar tree_4_3_u07_r18_network.node[13].content_store 	misses[13] 	10224
scalar tree_4_3_u07_r18_network.node[13].content_store 	decision_yes[13] 	10224
scalar tree_4_3_u07_r18_network.node[13].content_store 	decision_no[13] 	0
scalar tree_4_3_u07_r18_network.node[13].content_store 	decision_ratio[13] 	1
scalar tree_4_3_u07_r18_network.node[14].core_layer 	interests[14] 	12051
scalar tree_4_3_u07_r18_network.node[14].core_layer 	data[14] 	10103
scalar tree_4_3_u07_r18_network.node[14].content_store 	p_hit[14] 	0.16164633640362
scalar tree_4_3_u07_r18_network.node[14].content_store 	hits[14] 	1948
scalar tree_4_3_u07_r18_network.node[14].content_store 	misses[14] 	10103
scalar tree_4_3_u07_r18_network.node[14].content_store 	decision_yes[14] 	10103
scalar tree_4_3_u07_r18_network.node[14].content_store 	decision_no[14] 	0
scalar tree_4_3_u07_r18_network.node[14].content_store 	decision_ratio[14] 	1
scalar tree_4_3_u07_r18_network.node[15].core_layer 	interests[15] 	11843
scalar tree_4_3_u07_r18_network.node[15].core_layer 	data[15] 	9957
scalar tree_4_3_u07_r18_network.node[15].content_store 	p_hit[15] 	0.15908131385629
scalar tree_4_3_u07_r18_network.node[15].content_store 	hits[15] 	1884
scalar tree_4_3_u07_r18_network.node[15].content_store 	misses[15] 	9959
scalar tree_4_3_u07_r18_network.node[15].content_store 	decision_yes[15] 	9957
scalar tree_4_3_u07_r18_network.node[15].content_store 	decision_no[15] 	0
scalar tree_4_3_u07_r18_network.node[15].content_store 	decision_ratio[15] 	1
scalar tree_4_3_u07_r18_network.node[16].core_layer 	interests[16] 	12078
scalar tree_4_3_u07_r18_network.node[16].core_layer 	data[16] 	10216
scalar tree_4_3_u07_r18_network.node[16].content_store 	p_hit[16] 	0.15399900645802
scalar tree_4_3_u07_r18_network.node[16].content_store 	hits[16] 	1860
scalar tree_4_3_u07_r18_network.node[16].content_store 	misses[16] 	10218
scalar tree_4_3_u07_r18_network.node[16].content_store 	decision_yes[16] 	10216
scalar tree_4_3_u07_r18_network.node[16].content_store 	decision_no[16] 	0
scalar tree_4_3_u07_r18_network.node[16].content_store 	decision_ratio[16] 	1
scalar tree_4_3_u07_r18_network.node[17].core_layer 	interests[17] 	12007
scalar tree_4_3_u07_r18_network.node[17].core_layer 	data[17] 	10122
scalar tree_4_3_u07_r18_network.node[17].content_store 	p_hit[17] 	0.15690847005913
scalar tree_4_3_u07_r18_network.node[17].content_store 	hits[17] 	1884
scalar tree_4_3_u07_r18_network.node[17].content_store 	misses[17] 	10123
scalar tree_4_3_u07_r18_network.node[17].content_store 	decision_yes[17] 	10122
scalar tree_4_3_u07_r18_network.node[17].content_store 	decision_no[17] 	0
scalar tree_4_3_u07_r18_network.node[17].content_store 	decision_ratio[17] 	1
scalar tree_4_3_u07_r18_network.node[18].core_layer 	interests[18] 	11937
scalar tree_4_3_u07_r18_network.node[18].core_layer 	data[18] 	10069
scalar tree_4_3_u07_r18_network.node[18].content_store 	p_hit[18] 	0.15640445673117
scalar tree_4_3_u07_r18_network.node[18].content_store 	hits[18] 	1867
scalar tree_4_3_u07_r18_network.node[18].content_store 	misses[18] 	10070
scalar tree_4_3_u07_r18_network.node[18].content_store 	decision_yes[18] 	10069
scalar tree_4_3_u07_r18_network.node[18].content_store 	decision_no[18] 	0
scalar tree_4_3_u07_r18_network.node[18].content_store 	decision_ratio[18] 	1
scalar tree_4_3_u07_r18_network.node[19].core_layer 	interests[19] 	11973
scalar tree_4_3_u07_r18_network.node[19].core_layer 	data[19] 	10090
scalar tree_4_3_u07_r18_network.node[19].content_store 	p_hit[19] 	0.1572705253487
scalar tree_4_3_u07_r18_network.node[19].content_store 	hits[19] 	1883
scalar tree_4_3_u07_r18_network.node[19].content_store 	misses[19] 	10090
scalar tree_4_3_u07_r18_network.node[19].content_store 	decision_yes[19] 	10090
scalar tree_4_3_u07_r18_network.node[19].content_store 	decision_no[19] 	0
scalar tree_4_3_u07_r18_network.node[19].content_store 	decision_ratio[19] 	1
scalar tree_4_3_u07_r18_network.node[20].core_layer 	interests[20] 	11982
scalar tree_4_3_u07_r18_network.node[20].core_layer 	data[20] 	10073
scalar tree_4_3_u07_r18_network.node[20].content_store 	p_hit[20] 	0.15923885828743
scalar tree_4_3_u07_r18_network.node[20].content_store 	hits[20] 	1908
scalar tree_4_3_u07_r18_network.node[20].content_store 	misses[20] 	10074
scalar tree_4_3_u07_r18_network.node[20].content_store 	decision_yes[20] 	10073
scalar tree_4_3_u07_r18_network.node[20].content_store 	decision_no[20] 	0
scalar tree_4_3_u07_r18_network.node[20].content_store 	decision_ratio[20] 	1
scalar tree_4_3_u07_r18_network.node[21].core_layer 	interests[21] 	11891
scalar tree_4_3_u07_r18_network.node[21].core_layer 	data[21] 	9987
scalar tree_4_3_u07_r18_network.node[21].content_store 	p_hit[21] 	0.16003700277521
scalar tree_4_3_u07_r18_network.node[21].content_store 	hits[21] 	1903
scalar tree_4_3_u07_r18_network.node[21].content_store 	misses[21] 	9988
scalar tree_4_3_u07_r18_network.node[21].content_store 	decision_yes[21] 	9987
scalar tree_4_3_u07_r18_network.node[21].content_store 	decision_no[21] 	0
scalar tree_4_3_u07_r18_network.node[21].content_store 	decision_ratio[21] 	1
scalar tree_4_3_u07_r18_network.node[22].core_layer 	interests[22] 	11949
scalar tree_4_3_u07_r18_network.node[22].core_layer 	data[22] 	10134
scalar tree_4_3_u07_r18_network.node[22].content_store 	p_hit[22] 	0.15172817809022
scalar tree_4_3_u07_r18_network.node[22].content_store 	hits[22] 	1813
scalar tree_4_3_u07_r18_network.node[22].content_store 	misses[22] 	10136
scalar tree_4_3_u07_r18_network.node[22].content_store 	decision_yes[22] 	10134
scalar tree_4_3_u07_r18_network.node[22].content_store 	decision_no[22] 	0
scalar tree_4_3_u07_r18_network.node[22].content_store 	decision_ratio[22] 	1
scalar tree_4_3_u07_r18_network.node[23].core_layer 	interests[23] 	12125
scalar tree_4_3_u07_r18_network.node[23].core_layer 	data[23] 	10269
scalar tree_4_3_u07_r18_network.node[23].content_store 	p_hit[23] 	0.15298969072165
scalar tree_4_3_u07_r18_network.node[23].content_store 	hits[23] 	1855
scalar tree_4_3_u07_r18_network.node[23].content_store 	misses[23] 	10270
scalar tree_4_3_u07_r18_network.node[23].content_store 	decision_yes[23] 	10269
scalar tree_4_3_u07_r18_network.node[23].content_store 	decision_no[23] 	0
scalar tree_4_3_u07_r18_network.node[23].content_store 	decision_ratio[23] 	1
scalar tree_4_3_u07_r18_network.node[24].core_layer 	interests[24] 	12058
scalar tree_4_3_u07_r18_network.node[24].core_layer 	data[24] 	10126
scalar tree_4_3_u07_r18_network.node[24].content_store 	p_hit[24] 	0.16014264388788
scalar tree_4_3_u07_r18_network.node[24].content_store 	hits[24] 	1931
scalar tree_4_3_u07_r18_network.node[24].content_store 	misses[24] 	10127
scalar tree_4_3_u07_r18_network.node[24].content_store 	decision_yes[24] 	10126
scalar tree_4_3_u07_r18_network.node[24].content_store 	decision_no[24] 	0
scalar tree_4_3_u07_r18_network.node[24].content_store 	decision_ratio[24] 	1
scalar tree_4_3_u07_r18_network.node[25].core_layer 	interests[25] 	11907
scalar tree_4_3_u07_r18_network.node[25].core_layer 	data[25] 	9988
scalar tree_4_3_u07_r18_network.node[25].content_store 	p_hit[25] 	0.16108171663727
scalar tree_4_3_u07_r18_network.node[25].content_store 	hits[25] 	1918
scalar tree_4_3_u07_r18_network.node[25].content_store 	misses[25] 	9989
scalar tree_4_3_u07_r18_network.node[25].content_store 	decision_yes[25] 	9988
scalar tree_4_3_u07_r18_network.node[25].content_store 	decision_no[25] 	0
scalar tree_4_3_u07_r18_network.node[25].content_store 	decision_ratio[25] 	1
scalar tree_4_3_u07_r18_network.node[26].core_layer 	interests[26] 	12139
scalar tree_4_3_u07_r18_network.node[26].core_layer 	data[26] 	10234
scalar tree_4_3_u07_r18_network.node[26].content_store 	p_hit[26] 	0.15693220199357
scalar tree_4_3_u07_r18_network.node[26].content_store 	hits[26] 	1905
scalar tree_4_3_u07_r18_network.node[26].content_store 	misses[26] 	10234
scalar tree_4_3_u07_r18_network.node[26].content_store 	decision_yes[26] 	10234
scalar tree_4_3_u07_r18_network.node[26].content_store 	decision_no[26] 	0
scalar tree_4_3_u07_r18_network.node[26].content_store 	decision_ratio[26] 	1
scalar tree_4_3_u07_r18_network.node[27].core_layer 	interests[27] 	12155
scalar tree_4_3_u07_r18_network.node[27].core_layer 	data[27] 	10268
scalar tree_4_3_u07_r18_network.node[27].content_store 	p_hit[27] 	0.15516248457425
scalar tree_4_3_u07_r18_network.node[27].content_store 	hits[27] 	1886
scalar tree_4_3_u07_r18_network.node[27].content_store 	misses[27] 	10269
scalar tree_4_3_u07_r18_network.node[27].content_store 	decision_yes[27] 	10268
scalar tree_4_3_u07_r18_network.node[27].content_store 	decision_no[27] 	0
scalar tree_4_3_u07_r18_network.node[27].content_store 	decision_ratio[27] 	1
scalar tree_4_3_u07_r18_network.node[28].core_layer 	interests[28] 	12129
scalar tree_4_3_u07_r18_network.node[28].core_layer 	data[28] 	10275
scalar tree_4_3_u07_r18_network.node[28].content_store 	p_hit[28] 	0.15277434248495
scalar tree_4_3_u07_r18_network.node[28].content_store 	hits[28] 	1853
scalar tree_4_3_u07_r18_network.node[28].content_store 	misses[28] 	10276
scalar tree_4_3_u07_r18_network.node[28].content_store 	decision_yes[28] 	10275
scalar tree_4_3_u07_r18_network.node[28].content_store 	decision_no[28] 	0
scalar tree_4_3_u07_r18_network.node[28].content_store 	decision_ratio[28] 	1
scalar tree_4_3_u07_r18_network.node[29].core_layer 	interests[29] 	12021
scalar tree_4_3_u07_r18_network.node[29].core_layer 	data[29] 	10125
scalar tree_4_3_u07_r18_network.node[29].content_store 	p_hit[29] 	0.1577239830297
scalar tree_4_3_u07_r18_network.node[29].content_store 	hits[29] 	1896
scalar tree_4_3_u07_r18_network.node[29].content_store 	misses[29] 	10125
scalar tree_4_3_u07_r18_network.node[29].content_store 	decision_yes[29] 	10125
scalar tree_4_3_u07_r18_network.node[29].content_store 	decision_no[29] 	0
scalar tree_4_3_u07_r18_network.node[29].content_store 	decision_ratio[29] 	1
scalar tree_4_3_u07_r18_network.node[30].core_layer 	interests[30] 	11929
scalar tree_4_3_u07_r18_network.node[30].core_layer 	data[30] 	10095
scalar tree_4_3_u07_r18_network.node[30].content_store 	p_hit[30] 	0.15374297929416
scalar tree_4_3_u07_r18_network.node[30].content_store 	hits[30] 	1834
scalar tree_4_3_u07_r18_network.node[30].content_store 	misses[30] 	10095
scalar tree_4_3_u07_r18_network.node[30].content_store 	decision_yes[30] 	10095
scalar tree_4_3_u07_r18_network.node[30].content_store 	decision_no[30] 	0
scalar tree_4_3_u07_r18_network.node[30].content_store 	decision_ratio[30] 	1
scalar tree_4_3_u07_r18_network.node[31].core_layer 	interests[31] 	11989
scalar tree_4_3_u07_r18_network.node[31].core_layer 	data[31] 	10081
scalar tree_4_3_u07_r18_network.node[31].content_store 	p_hit[31] 	0.15914588372675
scalar tree_4_3_u07_r18_network.node[31].content_store 	hits[31] 	1908
scalar tree_4_3_u07_r18_network.node[31].content_store 	misses[31] 	10081
scalar tree_4_3_u07_r18_network.node[31].content_store 	decision_yes[31] 	10081
scalar tree_4_3_u07_r18_network.node[31].content_store 	decision_no[31] 	0
scalar tree_4_3_u07_r18_network.node[31].content_store 	decision_ratio[31] 	1
scalar tree_4_3_u07_r18_network.node[32].core_layer 	interests[32] 	11949
scalar tree_4_3_u07_r18_network.node[32].core_layer 	data[32] 	9998
scalar tree_4_3_u07_r18_network.node[32].content_store 	p_hit[32] 	0.16327726169554
scalar tree_4_3_u07_r18_network.node[32].content_store 	hits[32] 	1951
scalar tree_4_3_u07_r18_network.node[32].content_store 	misses[32] 	9998
scalar tree_4_3_u07_r18_network.node[32].content_store 	decision_yes[32] 	9998
scalar tree_4_3_u07_r18_network.node[32].content_store 	decision_no[32] 	0
scalar tree_4_3_u07_r18_network.node[32].content_store 	decision_ratio[32] 	1
scalar tree_4_3_u07_r18_network.node[33].core_layer 	interests[33] 	11987
scalar tree_4_3_u07_r18_network.node[33].core_layer 	data[33] 	10145
scalar tree_4_3_u07_r18_network.node[33].content_store 	p_hit[33] 	0.15358304830233
scalar tree_4_3_u07_r18_network.node[33].content_store 	hits[33] 	1841
scalar tree_4_3_u07_r18_network.node[33].content_store 	misses[33] 	10146
scalar tree_4_3_u07_r18_network.node[33].content_store 	decision_yes[33] 	10145
scalar tree_4_3_u07_r18_network.node[33].content_store 	decision_no[33] 	0
scalar tree_4_3_u07_r18_network.node[33].content_store 	decision_ratio[33] 	1
scalar tree_4_3_u07_r18_network.node[34].core_layer 	interests[34] 	11896
scalar tree_4_3_u07_r18_network.node[34].core_layer 	data[34] 	10066
scalar tree_4_3_u07_r18_network.node[34].content_store 	p_hit[34] 	0.15366509751177
scalar tree_4_3_u07_r18_network.node[34].content_store 	hits[34] 	1828
scalar tree_4_3_u07_r18_network.node[34].content_store 	misses[34] 	10068
scalar tree_4_3_u07_r18_network.node[34].content_store 	decision_yes[34] 	10066
scalar tree_4_3_u07_r18_network.node[34].content_store 	decision_no[34] 	0
scalar tree_4_3_u07_r18_network.node[34].content_store 	decision_ratio[34] 	1
scalar tree_4_3_u07_r18_network.node[35].core_layer 	interests[35] 	12144
scalar tree_4_3_u07_r18_network.node[35].core_layer 	data[35] 	10274
scalar tree_4_3_u07_r18_network.node[35].content_store 	p_hit[35] 	0.15398550724638
scalar tree_4_3_u07_r18_network.node[35].content_store 	hits[35] 	1870
scalar tree_4_3_u07_r18_network.node[35].content_store 	misses[35] 	10274
scalar tree_4_3_u07_r18_network.node[35].content_store 	decision_yes[35] 	10274
scalar tree_4_3_u07_r18_network.node[35].content_store 	decision_no[35] 	0
scalar tree_4_3_u07_r18_network.node[35].content_store 	decision_ratio[35] 	1
scalar tree_4_3_u07_r18_network.node[36].core_layer 	interests[36] 	12176
scalar tree_4_3_u07_r18_network.node[36].core_layer 	data[36] 	10294
scalar tree_4_3_u07_r18_network.node[36].content_store 	p_hit[36] 	0.15456636005256
scalar tree_4_3_u07_r18_network.node[36].content_store 	hits[36] 	1882
scalar tree_4_3_u07_r18_network.node[36].content_store 	misses[36] 	10294
scalar tree_4_3_u07_r18_network.node[36].content_store 	decision_yes[36] 	10294
scalar tree_4_3_u07_r18_network.node[36].content_store 	decision_no[36] 	0
scalar tree_4_3_u07_r18_network.node[36].content_store 	decision_ratio[36] 	1
scalar tree_4_3_u07_r18_network.node[37].core_layer 	interests[37] 	12071
scalar tree_4_3_u07_r18_network.node[37].core_layer 	data[37] 	10251
scalar tree_4_3_u07_r18_network.node[37].content_store 	p_hit[37] 	0.15077458371303
scalar tree_4_3_u07_r18_network.node[37].content_store 	hits[37] 	1820
scalar tree_4_3_u07_r18_network.node[37].content_store 	misses[37] 	10251
scalar tree_4_3_u07_r18_network.node[37].content_store 	decision_yes[37] 	10251
scalar tree_4_3_u07_r18_network.node[37].content_store 	decision_no[37] 	0
scalar tree_4_3_u07_r18_network.node[37].content_store 	decision_ratio[37] 	1
scalar tree_4_3_u07_r18_network.node[38].core_layer 	interests[38] 	12016
scalar tree_4_3_u07_r18_network.node[38].core_layer 	data[38] 	10104
scalar tree_4_3_u07_r18_network.node[38].content_store 	p_hit[38] 	0.1590379494008
scalar tree_4_3_u07_r18_network.node[38].content_store 	hits[38] 	1911
scalar tree_4_3_u07_r18_network.node[38].content_store 	misses[38] 	10105
scalar tree_4_3_u07_r18_network.node[38].content_store 	decision_yes[38] 	10104
scalar tree_4_3_u07_r18_network.node[38].content_store 	decision_no[38] 	0
scalar tree_4_3_u07_r18_network.node[38].content_store 	decision_ratio[38] 	1
scalar tree_4_3_u07_r18_network.node[39].core_layer 	interests[39] 	11874
scalar tree_4_3_u07_r18_network.node[39].core_layer 	data[39] 	9901
scalar tree_4_3_u07_r18_network.node[39].content_store 	p_hit[39] 	0.16582449048341
scalar tree_4_3_u07_r18_network.node[39].content_store 	hits[39] 	1969
scalar tree_4_3_u07_r18_network.node[39].content_store 	misses[39] 	9905
scalar tree_4_3_u07_r18_network.node[39].content_store 	decision_yes[39] 	9901
scalar tree_4_3_u07_r18_network.node[39].content_store 	decision_no[39] 	0
scalar tree_4_3_u07_r18_network.node[39].content_store 	decision_ratio[39] 	1
scalar tree_4_3_u07_r18_network.client[13] 	hdistance[13] 	3.3812319140141
scalar tree_4_3_u07_r18_network.client[13] 	downloads[13] 	12095
scalar tree_4_3_u07_r18_network.client[13] 	avg_time[13] 	0.005071622292
scalar tree_4_3_u07_r18_network.client[14] 	hdistance[14] 	3.3534146543855
scalar tree_4_3_u07_r18_network.client[14] 	downloads[14] 	12051
scalar tree_4_3_u07_r18_network.client[14] 	avg_time[14] 	0.005029230675
scalar tree_4_3_u07_r18_network.client[15] 	hdistance[15] 	3.3635672662782
scalar tree_4_3_u07_r18_network.client[15] 	downloads[15] 	11841
scalar tree_4_3_u07_r18_network.client[15] 	avg_time[15] 	0.005044572577
scalar tree_4_3_u07_r18_network.client[16] 	hdistance[16] 	3.3839019542895
scalar tree_4_3_u07_r18_network.client[16] 	downloads[16] 	12076
scalar tree_4_3_u07_r18_network.client[16] 	avg_time[16] 	0.005074747407
scalar tree_4_3_u07_r18_network.client[17] 	hdistance[17] 	3.3723138430785
scalar tree_4_3_u07_r18_network.client[17] 	downloads[17] 	12006
scalar tree_4_3_u07_r18_network.client[17] 	avg_time[17] 	0.005057375177
scalar tree_4_3_u07_r18_network.client[18] 	hdistance[18] 	3.3743297587131
scalar tree_4_3_u07_r18_network.client[18] 	downloads[18] 	11936
scalar tree_4_3_u07_r18_network.client[18] 	avg_time[18] 	0.005061143859
scalar tree_4_3_u07_r18_network.client[19] 	hdistance[19] 	3.3709178986052
scalar tree_4_3_u07_r18_network.client[19] 	downloads[19] 	11973
scalar tree_4_3_u07_r18_network.client[19] 	avg_time[19] 	0.005055688328
scalar tree_4_3_u07_r18_network.client[20] 	hdistance[20] 	3.3629914030548
scalar tree_4_3_u07_r18_network.client[20] 	downloads[20] 	11981
scalar tree_4_3_u07_r18_network.client[20] 	avg_time[20] 	0.00504400576
scalar tree_4_3_u07_r18_network.client[21] 	hdistance[21] 	3.3597981497056
scalar tree_4_3_u07_r18_network.client[21] 	downloads[21] 	11890
scalar tree_4_3_u07_r18_network.client[21] 	avg_time[21] 	0.005039474247
scalar tree_4_3_u07_r18_network.client[22] 	hdistance[22] 	3.3929856867833
scalar tree_4_3_u07_r18_network.client[22] 	downloads[22] 	11947
scalar tree_4_3_u07_r18_network.client[22] 	avg_time[22] 	0.005089199968
scalar tree_4_3_u07_r18_network.client[23] 	hdistance[23] 	3.3879907621247
scalar tree_4_3_u07_r18_network.client[23] 	downloads[23] 	12124
scalar tree_4_3_u07_r18_network.client[23] 	avg_time[23] 	0.005081580795
scalar tree_4_3_u07_r18_network.client[24] 	hdistance[24] 	3.3593762959277
scalar tree_4_3_u07_r18_network.client[24] 	downloads[24] 	12057
scalar tree_4_3_u07_r18_network.client[24] 	avg_time[24] 	0.005038844744
scalar tree_4_3_u07_r18_network.client[25] 	hdistance[25] 	3.3556190156224
scalar tree_4_3_u07_r18_network.client[25] 	downloads[25] 	11906
scalar tree_4_3_u07_r18_network.client[25] 	avg_time[25] 	0.005032986933
scalar tree_4_3_u07_r18_network.client[26] 	hdistance[26] 	3.3722711920257
scalar tree_4_3_u07_r18_network.client[26] 	downloads[26] 	12139
scalar tree_4_3_u07_r18_network.client[26] 	avg_time[26] 	0.005058164088
scalar tree_4_3_u07_r18_network.client[27] 	hdistance[27] 	3.3792989962152
scalar tree_4_3_u07_r18_network.client[27] 	downloads[27] 	12154
scalar tree_4_3_u07_r18_network.client[27] 	avg_time[27] 	0.005068615155
scalar tree_4_3_u07_r18_network.client[28] 	hdistance[28] 	3.3888522427441
scalar tree_4_3_u07_r18_network.client[28] 	downloads[28] 	12128
scalar tree_4_3_u07_r18_network.client[28] 	avg_time[28] 	0.005082590126
scalar tree_4_3_u07_r18_network.client[29] 	hdistance[29] 	3.3691040678812
scalar tree_4_3_u07_r18_network.client[29] 	downloads[29] 	12021
scalar tree_4_3_u07_r18_network.client[29] 	avg_time[29] 	0.005053591548
scalar tree_4_3_u07_r18_network.client[30] 	hdistance[30] 	3.3850280828234
scalar tree_4_3_u07_r18_network.client[30] 	downloads[30] 	11929
scalar tree_4_3_u07_r18_network.client[30] 	avg_time[30] 	0.005077453888
scalar tree_4_3_u07_r18_network.client[31] 	hdistance[31] 	3.363416465093
scalar tree_4_3_u07_r18_network.client[31] 	downloads[31] 	11989
scalar tree_4_3_u07_r18_network.client[31] 	avg_time[31] 	0.005044948542
scalar tree_4_3_u07_r18_network.client[32] 	hdistance[32] 	3.3468909532178
scalar tree_4_3_u07_r18_network.client[32] 	downloads[32] 	11949
scalar tree_4_3_u07_r18_network.client[32] 	avg_time[32] 	0.005020030458
scalar tree_4_3_u07_r18_network.client[33] 	hdistance[33] 	3.3856165526448
scalar tree_4_3_u07_r18_network.client[33] 	downloads[33] 	11986
scalar tree_4_3_u07_r18_network.client[33] 	avg_time[33] 	0.005077858878
scalar tree_4_3_u07_r18_network.client[34] 	hdistance[34] 	3.3852362535732
scalar tree_4_3_u07_r18_network.client[34] 	downloads[34] 	11894
scalar tree_4_3_u07_r18_network.client[34] 	avg_time[34] 	0.005077444773
scalar tree_4_3_u07_r18_network.client[35] 	hdistance[35] 	3.3840579710145
scalar tree_4_3_u07_r18_network.client[35] 	downloads[35] 	12144
scalar tree_4_3_u07_r18_network.client[35] 	avg_time[35] 	0.005075698653
scalar tree_4_3_u07_r18_network.client[36] 	hdistance[36] 	3.3817345597898
scalar tree_4_3_u07_r18_network.client[36] 	downloads[36] 	12176
scalar tree_4_3_u07_r18_network.client[36] 	avg_time[36] 	0.00507252999
scalar tree_4_3_u07_r18_network.client[37] 	hdistance[37] 	3.3969016651479
scalar tree_4_3_u07_r18_network.client[37] 	downloads[37] 	12071
scalar tree_4_3_u07_r18_network.client[37] 	avg_time[37] 	0.005095085507
scalar tree_4_3_u07_r18_network.client[38] 	hdistance[38] 	3.3637952559301
scalar tree_4_3_u07_r18_network.client[38] 	downloads[38] 	12015
scalar tree_4_3_u07_r18_network.client[38] 	avg_time[38] 	0.005045329826
scalar tree_4_3_u07_r18_network.client[39] 	hdistance[39] 	3.3364785172704
scalar tree_4_3_u07_r18_network.client[39] 	downloads[39] 	11870
scalar tree_4_3_u07_r18_network.client[39] 	avg_time[39] 	0.00500384724
