version 2
run General-155-20160818-23:05:50-32642
attr a 0.9
attr cd lce
attr configname General
attr cr lru
attr datetime 20160818-23:05:50
attr experiment General
attr fsize 1
attr inifile hw5115/scenario_A/Edge.ini
attr iterationvars "$name=tree_4_3, $un=07, $rep=16, $scenario=Edge, $cd=lce, $cr=lru, $fsize=1, $a=0.9, $sl=spr, $ttl=1000, $variance=0.05"
attr iterationvars2 "$name=tree_4_3, $un=07, $rep=16, $scenario=Edge, $cd=lce, $cr=lru, $fsize=1, $a=0.9, $sl=spr, $ttl=1000, $variance=0.05, $repetition=0"
attr measurement "$name=tree_4_3, $un=07, $rep=16, $scenario=Edge, $cd=lce, $cr=lru, $fsize=1, $a=0.9, $sl=spr, $ttl=1000, $variance=0.05"
attr name tree_4_3
attr network networks.${name}_u${un}_r${rep}_network
attr processid 32642
attr rep 16
attr repetition 0
attr replication #0
attr resultdir results
attr runnumber 155
attr scenario Edge
attr seedset 16
attr sl spr
attr ttl 1000
attr un 07
attr variance 0.05

scalar . 	a 	0.9
scalar . 	fsize 	1
scalar . 	rep 	16
scalar . 	ttl 	1000
scalar . 	un 	07
scalar . 	variance 	0.05
scalar tree_4_3_u07_r16_network.content_distribution 	repo-0 	0
scalar tree_4_3_u07_r16_network.content_distribution 	client-0 	13
scalar tree_4_3_u07_r16_network.content_distribution 	client-1 	14
scalar tree_4_3_u07_r16_network.content_distribution 	client-2 	15
scalar tree_4_3_u07_r16_network.content_distribution 	client-3 	16
scalar tree_4_3_u07_r16_network.content_distribution 	client-4 	17
scalar tree_4_3_u07_r16_network.content_distribution 	client-5 	18
scalar tree_4_3_u07_r16_network.content_distribution 	client-6 	19
scalar tree_4_3_u07_r16_network.content_distribution 	client-7 	20
scalar tree_4_3_u07_r16_network.content_distribution 	client-8 	21
scalar tree_4_3_u07_r16_network.content_distribution 	client-9 	22
scalar tree_4_3_u07_r16_network.content_distribution 	client-10 	23
scalar tree_4_3_u07_r16_network.content_distribution 	client-11 	24
scalar tree_4_3_u07_r16_network.content_distribution 	client-12 	25
scalar tree_4_3_u07_r16_network.content_distribution 	client-13 	26
scalar tree_4_3_u07_r16_network.content_distribution 	client-14 	27
scalar tree_4_3_u07_r16_network.content_distribution 	client-15 	28
scalar tree_4_3_u07_r16_network.content_distribution 	client-16 	29
scalar tree_4_3_u07_r16_network.content_distribution 	client-17 	30
scalar tree_4_3_u07_r16_network.content_distribution 	client-18 	31
scalar tree_4_3_u07_r16_network.content_distribution 	client-19 	32
scalar tree_4_3_u07_r16_network.content_distribution 	client-20 	33
scalar tree_4_3_u07_r16_network.content_distribution 	client-21 	34
scalar tree_4_3_u07_r16_network.content_distribution 	client-22 	35
scalar tree_4_3_u07_r16_network.content_distribution 	client-23 	36
scalar tree_4_3_u07_r16_network.content_distribution 	client-24 	37
scalar tree_4_3_u07_r16_network.content_distribution 	client-25 	38
scalar tree_4_3_u07_r16_network.content_distribution 	client-26 	39
scalar tree_4_3_u07_r16_network.content_distribution 	repo-0_card 	100000
scalar tree_4_3_u07_r16_network.content_distribution 	repo-0_price 	0
scalar tree_4_3_u07_r16_network.statistics 	stabilization_time 	422.2
scalar tree_4_3_u07_r16_network.statistics 	p_hit 	0.10544235463639
scalar tree_4_3_u07_r16_network.statistics 	interests 	28570.575
scalar tree_4_3_u07_r16_network.statistics 	data 	20478.775
scalar tree_4_3_u07_r16_network.statistics 	hdistance 	3.3751219144362
scalar tree_4_3_u07_r16_network.statistics 	avg_time 	0.005062232805
scalar tree_4_3_u07_r16_network.statistics 	downloads 	323647
scalar tree_4_3_u07_r16_network.statistics 	total_cost 	0
scalar tree_4_3_u07_r16_network.statistics 	total_replicas 	100000
scalar tree_4_3_u07_r16_network.statistics 	inner_hit 	0.15647294737785
scalar tree_4_3_u07_r16_network.node[0].core_layer 	interests[0] 	273005
scalar tree_4_3_u07_r16_network.node[0].core_layer 	repo_load[0] 	273005
scalar tree_4_3_u07_r16_network.node[0].core_layer 	data[0] 	0
scalar tree_4_3_u07_r16_network.node[0].core_layer 	repo_int[0] 	273005
scalar tree_4_3_u07_r16_network.node[0].content_store 	p_hit[0] 	0
scalar tree_4_3_u07_r16_network.node[0].content_store 	hits[0] 	0
scalar tree_4_3_u07_r16_network.node[0].content_store 	misses[0] 	273005
scalar tree_4_3_u07_r16_network.node[0].content_store 	decision_yes[0] 	0
scalar tree_4_3_u07_r16_network.node[0].content_store 	decision_no[0] 	273005
scalar tree_4_3_u07_r16_network.node[0].content_store 	decision_ratio[0] 	0
scalar tree_4_3_u07_r16_network.node[1].core_layer 	interests[1] 	181982
scalar tree_4_3_u07_r16_network.node[1].core_layer 	data[1] 	181931
scalar tree_4_3_u07_r16_network.node[1].content_store 	p_hit[1] 	0
scalar tree_4_3_u07_r16_network.node[1].content_store 	hits[1] 	0
scalar tree_4_3_u07_r16_network.node[1].content_store 	misses[1] 	181982
scalar tree_4_3_u07_r16_network.node[1].content_store 	decision_yes[1] 	0
scalar tree_4_3_u07_r16_network.node[1].content_store 	decision_no[1] 	181931
scalar tree_4_3_u07_r16_network.node[1].content_store 	decision_ratio[1] 	0
scalar tree_4_3_u07_r16_network.node[2].core_layer 	interests[2] 	40444
scalar tree_4_3_u07_r16_network.node[2].core_layer 	data[2] 	40437
scalar tree_4_3_u07_r16_network.node[2].content_store 	p_hit[2] 	0
scalar tree_4_3_u07_r16_network.node[2].content_store 	hits[2] 	0
scalar tree_4_3_u07_r16_network.node[2].content_store 	misses[2] 	40444
scalar tree_4_3_u07_r16_network.node[2].content_store 	decision_yes[2] 	0
scalar tree_4_3_u07_r16_network.node[2].content_store 	decision_no[2] 	40437
scalar tree_4_3_u07_r16_network.node[2].content_store 	decision_ratio[2] 	0
scalar tree_4_3_u07_r16_network.node[3].core_layer 	interests[3] 	50637
scalar tree_4_3_u07_r16_network.node[3].core_layer 	data[3] 	50635
scalar tree_4_3_u07_r16_network.node[3].content_store 	p_hit[3] 	0
scalar tree_4_3_u07_r16_network.node[3].content_store 	hits[3] 	0
scalar tree_4_3_u07_r16_network.node[3].content_store 	misses[3] 	50637
scalar tree_4_3_u07_r16_network.node[3].content_store 	decision_yes[3] 	0
scalar tree_4_3_u07_r16_network.node[3].content_store 	decision_no[3] 	50635
scalar tree_4_3_u07_r16_network.node[3].content_store 	decision_ratio[3] 	0
scalar tree_4_3_u07_r16_network.node[4].core_layer 	interests[4] 	50573
scalar tree_4_3_u07_r16_network.node[4].core_layer 	data[4] 	50567
scalar tree_4_3_u07_r16_network.node[4].content_store 	p_hit[4] 	0
scalar tree_4_3_u07_r16_network.node[4].content_store 	hits[4] 	0
scalar tree_4_3_u07_r16_network.node[4].content_store 	misses[4] 	50573
scalar tree_4_3_u07_r16_network.node[4].content_store 	decision_yes[4] 	0
scalar tree_4_3_u07_r16_network.node[4].content_store 	decision_no[4] 	50567
scalar tree_4_3_u07_r16_network.node[4].content_store 	decision_ratio[4] 	0
scalar tree_4_3_u07_r16_network.node[5].core_layer 	interests[5] 	30420
scalar tree_4_3_u07_r16_network.node[5].core_layer 	data[5] 	30419
scalar tree_4_3_u07_r16_network.node[5].content_store 	p_hit[5] 	0
scalar tree_4_3_u07_r16_network.node[5].content_store 	hits[5] 	0
scalar tree_4_3_u07_r16_network.node[5].content_store 	misses[5] 	30420
scalar tree_4_3_u07_r16_network.node[5].content_store 	decision_yes[5] 	0
scalar tree_4_3_u07_r16_network.node[5].content_store 	decision_no[5] 	30419
scalar tree_4_3_u07_r16_network.node[5].content_store 	decision_ratio[5] 	0
scalar tree_4_3_u07_r16_network.node[6].core_layer 	interests[6] 	10130
scalar tree_4_3_u07_r16_network.node[6].core_layer 	data[6] 	10129
scalar tree_4_3_u07_r16_network.node[6].content_store 	p_hit[6] 	0
scalar tree_4_3_u07_r16_network.node[6].content_store 	hits[6] 	0
scalar tree_4_3_u07_r16_network.node[6].content_store 	misses[6] 	10130
scalar tree_4_3_u07_r16_network.node[6].content_store 	decision_yes[6] 	0
scalar tree_4_3_u07_r16_network.node[6].content_store 	decision_no[6] 	10129
scalar tree_4_3_u07_r16_network.node[6].content_store 	decision_ratio[6] 	0
scalar tree_4_3_u07_r16_network.node[7].core_layer 	interests[7] 	50383
scalar tree_4_3_u07_r16_network.node[7].core_layer 	data[7] 	50377
scalar tree_4_3_u07_r16_network.node[7].content_store 	p_hit[7] 	0
scalar tree_4_3_u07_r16_network.node[7].content_store 	hits[7] 	0
scalar tree_4_3_u07_r16_network.node[7].content_store 	misses[7] 	50383
scalar tree_4_3_u07_r16_network.node[7].content_store 	decision_yes[7] 	0
scalar tree_4_3_u07_r16_network.node[7].content_store 	decision_no[7] 	50377
scalar tree_4_3_u07_r16_network.node[7].content_store 	decision_ratio[7] 	0
scalar tree_4_3_u07_r16_network.node[8].core_layer 	interests[8] 	20308
scalar tree_4_3_u07_r16_network.node[8].core_layer 	data[8] 	20308
scalar tree_4_3_u07_r16_network.node[8].content_store 	p_hit[8] 	0
scalar tree_4_3_u07_r16_network.node[8].content_store 	hits[8] 	0
scalar tree_4_3_u07_r16_network.node[8].content_store 	misses[8] 	20308
scalar tree_4_3_u07_r16_network.node[8].content_store 	decision_yes[8] 	0
scalar tree_4_3_u07_r16_network.node[8].content_store 	decision_no[8] 	20308
scalar tree_4_3_u07_r16_network.node[8].content_store 	decision_ratio[8] 	0
scalar tree_4_3_u07_r16_network.node[9].core_layer 	interests[9] 	20140
scalar tree_4_3_u07_r16_network.node[9].core_layer 	data[9] 	20136
scalar tree_4_3_u07_r16_network.node[9].content_store 	p_hit[9] 	0
scalar tree_4_3_u07_r16_network.node[9].content_store 	hits[9] 	0
scalar tree_4_3_u07_r16_network.node[9].content_store 	misses[9] 	20140
scalar tree_4_3_u07_r16_network.node[9].content_store 	decision_yes[9] 	0
scalar tree_4_3_u07_r16_network.node[9].content_store 	decision_no[9] 	20136
scalar tree_4_3_u07_r16_network.node[9].content_store 	decision_ratio[9] 	0
scalar tree_4_3_u07_r16_network.node[10].core_layer 	interests[10] 	40493
scalar tree_4_3_u07_r16_network.node[10].core_layer 	data[10] 	40489
scalar tree_4_3_u07_r16_network.node[10].content_store 	p_hit[10] 	0
scalar tree_4_3_u07_r16_network.node[10].content_store 	hits[10] 	0
scalar tree_4_3_u07_r16_network.node[10].content_store 	misses[10] 	40493
scalar tree_4_3_u07_r16_network.node[10].content_store 	decision_yes[10] 	0
scalar tree_4_3_u07_r16_network.node[10].content_store 	decision_no[10] 	40489
scalar tree_4_3_u07_r16_network.node[10].content_store 	decision_ratio[10] 	0
scalar tree_4_3_u07_r16_network.node[11].core_layer 	interests[11] 	40409
scalar tree_4_3_u07_r16_network.node[11].core_layer 	data[11] 	40402
scalar tree_4_3_u07_r16_network.node[11].content_store 	p_hit[11] 	0
scalar tree_4_3_u07_r16_network.node[11].content_store 	hits[11] 	0
scalar tree_4_3_u07_r16_network.node[11].content_store 	misses[11] 	40409
scalar tree_4_3_u07_r16_network.node[11].content_store 	decision_yes[11] 	0
scalar tree_4_3_u07_r16_network.node[11].content_store 	decision_no[11] 	40402
scalar tree_4_3_u07_r16_network.node[11].content_store 	decision_ratio[11] 	0
scalar tree_4_3_u07_r16_network.node[12].core_layer 	interests[12] 	10234
scalar tree_4_3_u07_r16_network.node[12].core_layer 	data[12] 	10234
scalar tree_4_3_u07_r16_network.node[12].content_store 	p_hit[12] 	0
scalar tree_4_3_u07_r16_network.node[12].content_store 	hits[12] 	0
scalar tree_4_3_u07_r16_network.node[12].content_store 	misses[12] 	10234
scalar tree_4_3_u07_r16_network.node[12].content_store 	decision_yes[12] 	0
scalar tree_4_3_u07_r16_network.node[12].content_store 	decision_no[12] 	10234
scalar tree_4_3_u07_r16_network.node[12].content_store 	decision_ratio[12] 	0
scalar tree_4_3_u07_r16_network.node[13].core_layer 	interests[13] 	11971
scalar tree_4_3_u07_r16_network.node[13].core_layer 	data[13] 	10075
scalar tree_4_3_u07_r16_network.node[13].content_store 	p_hit[13] 	0.15838275833264
scalar tree_4_3_u07_r16_network.node[13].content_store 	hits[13] 	1896
scalar tree_4_3_u07_r16_network.node[13].content_store 	misses[13] 	10075
scalar tree_4_3_u07_r16_network.node[13].content_store 	decision_yes[13] 	10075
scalar tree_4_3_u07_r16_network.node[13].content_store 	decision_no[13] 	0
scalar tree_4_3_u07_r16_network.node[13].content_store 	decision_ratio[13] 	1
scalar tree_4_3_u07_r16_network.node[14].core_layer 	interests[14] 	12141
scalar tree_4_3_u07_r16_network.node[14].core_layer 	data[14] 	10239
scalar tree_4_3_u07_r16_network.node[14].content_store 	p_hit[14] 	0.15665925376822
scalar tree_4_3_u07_r16_network.node[14].content_store 	hits[14] 	1902
scalar tree_4_3_u07_r16_network.node[14].content_store 	misses[14] 	10239
scalar tree_4_3_u07_r16_network.node[14].content_store 	decision_yes[14] 	10239
scalar tree_4_3_u07_r16_network.node[14].content_store 	decision_no[14] 	0
scalar tree_4_3_u07_r16_network.node[14].content_store 	decision_ratio[14] 	1
scalar tree_4_3_u07_r16_network.node[15].core_layer 	interests[15] 	11916
scalar tree_4_3_u07_r16_network.node[15].core_layer 	data[15] 	10002
scalar tree_4_3_u07_r16_network.node[15].content_store 	p_hit[15] 	0.16062437059416
scalar tree_4_3_u07_r16_network.node[15].content_store 	hits[15] 	1914
scalar tree_4_3_u07_r16_network.node[15].content_store 	misses[15] 	10002
scalar tree_4_3_u07_r16_network.node[15].content_store 	decision_yes[15] 	10002
scalar tree_4_3_u07_r16_network.node[15].content_store 	decision_no[15] 	0
scalar tree_4_3_u07_r16_network.node[15].content_store 	decision_ratio[15] 	1
scalar tree_4_3_u07_r16_network.node[16].core_layer 	interests[16] 	12107
scalar tree_4_3_u07_r16_network.node[16].core_layer 	data[16] 	10197
scalar tree_4_3_u07_r16_network.node[16].content_store 	p_hit[16] 	0.15759477987941
scalar tree_4_3_u07_r16_network.node[16].content_store 	hits[16] 	1908
scalar tree_4_3_u07_r16_network.node[16].content_store 	misses[16] 	10199
scalar tree_4_3_u07_r16_network.node[16].content_store 	decision_yes[16] 	10197
scalar tree_4_3_u07_r16_network.node[16].content_store 	decision_no[16] 	0
scalar tree_4_3_u07_r16_network.node[16].content_store 	decision_ratio[16] 	1
scalar tree_4_3_u07_r16_network.node[17].core_layer 	interests[17] 	12034
scalar tree_4_3_u07_r16_network.node[17].core_layer 	data[17] 	10096
scalar tree_4_3_u07_r16_network.node[17].content_store 	p_hit[17] 	0.16112680737909
scalar tree_4_3_u07_r16_network.node[17].content_store 	hits[17] 	1939
scalar tree_4_3_u07_r16_network.node[17].content_store 	misses[17] 	10095
scalar tree_4_3_u07_r16_network.node[17].content_store 	decision_yes[17] 	10096
scalar tree_4_3_u07_r16_network.node[17].content_store 	decision_no[17] 	0
scalar tree_4_3_u07_r16_network.node[17].content_store 	decision_ratio[17] 	1
scalar tree_4_3_u07_r16_network.node[18].core_layer 	interests[18] 	11931
scalar tree_4_3_u07_r16_network.node[18].core_layer 	data[18] 	10107
scalar tree_4_3_u07_r16_network.node[18].content_store 	p_hit[18] 	0.15287905456374
scalar tree_4_3_u07_r16_network.node[18].content_store 	hits[18] 	1824
scalar tree_4_3_u07_r16_network.node[18].content_store 	misses[18] 	10107
scalar tree_4_3_u07_r16_network.node[18].content_store 	decision_yes[18] 	10107
scalar tree_4_3_u07_r16_network.node[18].content_store 	decision_no[18] 	0
scalar tree_4_3_u07_r16_network.node[18].content_store 	decision_ratio[18] 	1
scalar tree_4_3_u07_r16_network.node[19].core_layer 	interests[19] 	11905
scalar tree_4_3_u07_r16_network.node[19].core_layer 	data[19] 	10060
scalar tree_4_3_u07_r16_network.node[19].content_store 	p_hit[19] 	0.15480890382192
scalar tree_4_3_u07_r16_network.node[19].content_store 	hits[19] 	1843
scalar tree_4_3_u07_r16_network.node[19].content_store 	misses[19] 	10062
scalar tree_4_3_u07_r16_network.node[19].content_store 	decision_yes[19] 	10060
scalar tree_4_3_u07_r16_network.node[19].content_store 	decision_no[19] 	0
scalar tree_4_3_u07_r16_network.node[19].content_store 	decision_ratio[19] 	1
scalar tree_4_3_u07_r16_network.node[20].core_layer 	interests[20] 	12104
scalar tree_4_3_u07_r16_network.node[20].core_layer 	data[20] 	10217
scalar tree_4_3_u07_r16_network.node[20].content_store 	p_hit[20] 	0.15589887640449
scalar tree_4_3_u07_r16_network.node[20].content_store 	hits[20] 	1887
scalar tree_4_3_u07_r16_network.node[20].content_store 	misses[20] 	10217
scalar tree_4_3_u07_r16_network.node[20].content_store 	decision_yes[20] 	10217
scalar tree_4_3_u07_r16_network.node[20].content_store 	decision_no[20] 	0
scalar tree_4_3_u07_r16_network.node[20].content_store 	decision_ratio[20] 	1
scalar tree_4_3_u07_r16_network.node[21].core_layer 	interests[21] 	12065
scalar tree_4_3_u07_r16_network.node[21].core_layer 	data[21] 	10129
scalar tree_4_3_u07_r16_network.node[21].content_store 	p_hit[21] 	0.16038126813096
scalar tree_4_3_u07_r16_network.node[21].content_store 	hits[21] 	1935
scalar tree_4_3_u07_r16_network.node[21].content_store 	misses[21] 	10130
scalar tree_4_3_u07_r16_network.node[21].content_store 	decision_yes[21] 	10129
scalar tree_4_3_u07_r16_network.node[21].content_store 	decision_no[21] 	0
scalar tree_4_3_u07_r16_network.node[21].content_store 	decision_ratio[21] 	1
scalar tree_4_3_u07_r16_network.node[22].core_layer 	interests[22] 	11879
scalar tree_4_3_u07_r16_network.node[22].core_layer 	data[22] 	10028
scalar tree_4_3_u07_r16_network.node[22].content_store 	p_hit[22] 	0.15582119707046
scalar tree_4_3_u07_r16_network.node[22].content_store 	hits[22] 	1851
scalar tree_4_3_u07_r16_network.node[22].content_store 	misses[22] 	10028
scalar tree_4_3_u07_r16_network.node[22].content_store 	decision_yes[22] 	10028
scalar tree_4_3_u07_r16_network.node[22].content_store 	decision_no[22] 	0
scalar tree_4_3_u07_r16_network.node[22].content_store 	decision_ratio[22] 	1
scalar tree_4_3_u07_r16_network.node[23].core_layer 	interests[23] 	12052
scalar tree_4_3_u07_r16_network.node[23].core_layer 	data[23] 	10213
scalar tree_4_3_u07_r16_network.node[23].content_store 	p_hit[23] 	0.15250580816462
scalar tree_4_3_u07_r16_network.node[23].content_store 	hits[23] 	1838
scalar tree_4_3_u07_r16_network.node[23].content_store 	misses[23] 	10214
scalar tree_4_3_u07_r16_network.node[23].content_store 	decision_yes[23] 	10213
scalar tree_4_3_u07_r16_network.node[23].content_store 	decision_no[23] 	0
scalar tree_4_3_u07_r16_network.node[23].content_store 	decision_ratio[23] 	1
scalar tree_4_3_u07_r16_network.node[24].core_layer 	interests[24] 	11948
scalar tree_4_3_u07_r16_network.node[24].core_layer 	data[24] 	10102
scalar tree_4_3_u07_r16_network.node[24].content_store 	p_hit[24] 	0.15441914964848
scalar tree_4_3_u07_r16_network.node[24].content_store 	hits[24] 	1845
scalar tree_4_3_u07_r16_network.node[24].content_store 	misses[24] 	10103
scalar tree_4_3_u07_r16_network.node[24].content_store 	decision_yes[24] 	10102
scalar tree_4_3_u07_r16_network.node[24].content_store 	decision_no[24] 	0
scalar tree_4_3_u07_r16_network.node[24].content_store 	decision_ratio[24] 	1
scalar tree_4_3_u07_r16_network.node[25].core_layer 	interests[25] 	11762
scalar tree_4_3_u07_r16_network.node[25].core_layer 	data[25] 	9903
scalar tree_4_3_u07_r16_network.node[25].content_store 	p_hit[25] 	0.15805135181092
scalar tree_4_3_u07_r16_network.node[25].content_store 	hits[25] 	1859
scalar tree_4_3_u07_r16_network.node[25].content_store 	misses[25] 	9903
scalar tree_4_3_u07_r16_network.node[25].content_store 	decision_yes[25] 	9903
scalar tree_4_3_u07_r16_network.node[25].content_store 	decision_no[25] 	0
scalar tree_4_3_u07_r16_network.node[25].content_store 	decision_ratio[25] 	1
scalar tree_4_3_u07_r16_network.node[26].core_layer 	interests[26] 	12198
scalar tree_4_3_u07_r16_network.node[26].core_layer 	data[26] 	10264
scalar tree_4_3_u07_r16_network.node[26].content_store 	p_hit[26] 	0.15855058206263
scalar tree_4_3_u07_r16_network.node[26].content_store 	hits[26] 	1934
scalar tree_4_3_u07_r16_network.node[26].content_store 	misses[26] 	10264
scalar tree_4_3_u07_r16_network.node[26].content_store 	decision_yes[26] 	10264
scalar tree_4_3_u07_r16_network.node[26].content_store 	decision_no[26] 	0
scalar tree_4_3_u07_r16_network.node[26].content_store 	decision_ratio[26] 	1
scalar tree_4_3_u07_r16_network.node[27].core_layer 	interests[27] 	11938
scalar tree_4_3_u07_r16_network.node[27].core_layer 	data[27] 	10044
scalar tree_4_3_u07_r16_network.node[27].content_store 	p_hit[27] 	0.15865304071034
scalar tree_4_3_u07_r16_network.node[27].content_store 	hits[27] 	1894
scalar tree_4_3_u07_r16_network.node[27].content_store 	misses[27] 	10044
scalar tree_4_3_u07_r16_network.node[27].content_store 	decision_yes[27] 	10044
scalar tree_4_3_u07_r16_network.node[27].content_store 	decision_no[27] 	0
scalar tree_4_3_u07_r16_network.node[27].content_store 	decision_ratio[27] 	1
scalar tree_4_3_u07_r16_network.node[28].core_layer 	interests[28] 	11997
scalar tree_4_3_u07_r16_network.node[28].core_layer 	data[28] 	10136
scalar tree_4_3_u07_r16_network.node[28].content_store 	p_hit[28] 	0.15495540551805
scalar tree_4_3_u07_r16_network.node[28].content_store 	hits[28] 	1859
scalar tree_4_3_u07_r16_network.node[28].content_store 	misses[28] 	10138
scalar tree_4_3_u07_r16_network.node[28].content_store 	decision_yes[28] 	10136
scalar tree_4_3_u07_r16_network.node[28].content_store 	decision_no[28] 	0
scalar tree_4_3_u07_r16_network.node[28].content_store 	decision_ratio[28] 	1
scalar tree_4_3_u07_r16_network.node[29].core_layer 	interests[29] 	11918
scalar tree_4_3_u07_r16_network.node[29].core_layer 	data[29] 	10045
scalar tree_4_3_u07_r16_network.node[29].content_store 	p_hit[29] 	0.15707333445209
scalar tree_4_3_u07_r16_network.node[29].content_store 	hits[29] 	1872
scalar tree_4_3_u07_r16_network.node[29].content_store 	misses[29] 	10046
scalar tree_4_3_u07_r16_network.node[29].content_store 	decision_yes[29] 	10045
scalar tree_4_3_u07_r16_network.node[29].content_store 	decision_no[29] 	0
scalar tree_4_3_u07_r16_network.node[29].content_store 	decision_ratio[29] 	1
scalar tree_4_3_u07_r16_network.node[30].core_layer 	interests[30] 	11905
scalar tree_4_3_u07_r16_network.node[30].core_layer 	data[30] 	10095
scalar tree_4_3_u07_r16_network.node[30].content_store 	p_hit[30] 	0.15203695926081
scalar tree_4_3_u07_r16_network.node[30].content_store 	hits[30] 	1810
scalar tree_4_3_u07_r16_network.node[30].content_store 	misses[30] 	10095
scalar tree_4_3_u07_r16_network.node[30].content_store 	decision_yes[30] 	10095
scalar tree_4_3_u07_r16_network.node[30].content_store 	decision_no[30] 	0
scalar tree_4_3_u07_r16_network.node[30].content_store 	decision_ratio[30] 	1
scalar tree_4_3_u07_r16_network.node[31].core_layer 	interests[31] 	11974
scalar tree_4_3_u07_r16_network.node[31].core_layer 	data[31] 	10136
scalar tree_4_3_u07_r16_network.node[31].content_store 	p_hit[31] 	0.15349924837147
scalar tree_4_3_u07_r16_network.node[31].content_store 	hits[31] 	1838
scalar tree_4_3_u07_r16_network.node[31].content_store 	misses[31] 	10136
scalar tree_4_3_u07_r16_network.node[31].content_store 	decision_yes[31] 	10136
scalar tree_4_3_u07_r16_network.node[31].content_store 	decision_no[31] 	0
scalar tree_4_3_u07_r16_network.node[31].content_store 	decision_ratio[31] 	1
scalar tree_4_3_u07_r16_network.node[32].core_layer 	interests[32] 	12080
scalar tree_4_3_u07_r16_network.node[32].core_layer 	data[32] 	10201
scalar tree_4_3_u07_r16_network.node[32].content_store 	p_hit[32] 	0.15546357615894
scalar tree_4_3_u07_r16_network.node[32].content_store 	hits[32] 	1878
scalar tree_4_3_u07_r16_network.node[32].content_store 	misses[32] 	10202
scalar tree_4_3_u07_r16_network.node[32].content_store 	decision_yes[32] 	10201
scalar tree_4_3_u07_r16_network.node[32].content_store 	decision_no[32] 	0
scalar tree_4_3_u07_r16_network.node[32].content_store 	decision_ratio[32] 	1
scalar tree_4_3_u07_r16_network.node[33].core_layer 	interests[33] 	12035
scalar tree_4_3_u07_r16_network.node[33].core_layer 	data[33] 	10205
scalar tree_4_3_u07_r16_network.node[33].content_store 	p_hit[33] 	0.15197341088492
scalar tree_4_3_u07_r16_network.node[33].content_store 	hits[33] 	1829
scalar tree_4_3_u07_r16_network.node[33].content_store 	misses[33] 	10206
scalar tree_4_3_u07_r16_network.node[33].content_store 	decision_yes[33] 	10205
scalar tree_4_3_u07_r16_network.node[33].content_store 	decision_no[33] 	0
scalar tree_4_3_u07_r16_network.node[33].content_store 	decision_ratio[33] 	1
scalar tree_4_3_u07_r16_network.node[34].core_layer 	interests[34] 	12106
scalar tree_4_3_u07_r16_network.node[34].core_layer 	data[34] 	10207
scalar tree_4_3_u07_r16_network.node[34].content_store 	p_hit[34] 	0.15669915744259
scalar tree_4_3_u07_r16_network.node[34].content_store 	hits[34] 	1897
scalar tree_4_3_u07_r16_network.node[34].content_store 	misses[34] 	10209
scalar tree_4_3_u07_r16_network.node[34].content_store 	decision_yes[34] 	10207
scalar tree_4_3_u07_r16_network.node[34].content_store 	decision_no[34] 	0
scalar tree_4_3_u07_r16_network.node[34].content_store 	decision_ratio[34] 	1
scalar tree_4_3_u07_r16_network.node[35].core_layer 	interests[35] 	11934
scalar tree_4_3_u07_r16_network.node[35].core_layer 	data[35] 	10045
scalar tree_4_3_u07_r16_network.node[35].content_store 	p_hit[35] 	0.15811965811966
scalar tree_4_3_u07_r16_network.node[35].content_store 	hits[35] 	1887
scalar tree_4_3_u07_r16_network.node[35].content_store 	misses[35] 	10047
scalar tree_4_3_u07_r16_network.node[35].content_store 	decision_yes[35] 	10045
scalar tree_4_3_u07_r16_network.node[35].content_store 	decision_no[35] 	0
scalar tree_4_3_u07_r16_network.node[35].content_store 	decision_ratio[35] 	1
scalar tree_4_3_u07_r16_network.node[36].core_layer 	interests[36] 	11966
scalar tree_4_3_u07_r16_network.node[36].core_layer 	data[36] 	10161
scalar tree_4_3_u07_r16_network.node[36].content_store 	p_hit[36] 	0.1508440581648
scalar tree_4_3_u07_r16_network.node[36].content_store 	hits[36] 	1805
scalar tree_4_3_u07_r16_network.node[36].content_store 	misses[36] 	10161
scalar tree_4_3_u07_r16_network.node[36].content_store 	decision_yes[36] 	10161
scalar tree_4_3_u07_r16_network.node[36].content_store 	decision_no[36] 	0
scalar tree_4_3_u07_r16_network.node[36].content_store 	decision_ratio[36] 	1
scalar tree_4_3_u07_r16_network.node[37].core_layer 	interests[37] 	11813
scalar tree_4_3_u07_r16_network.node[37].core_layer 	data[37] 	9951
scalar tree_4_3_u07_r16_network.node[37].content_store 	p_hit[37] 	0.1576229577584
scalar tree_4_3_u07_r16_network.node[37].content_store 	hits[37] 	1862
scalar tree_4_3_u07_r16_network.node[37].content_store 	misses[37] 	9951
scalar tree_4_3_u07_r16_network.node[37].content_store 	decision_yes[37] 	9951
scalar tree_4_3_u07_r16_network.node[37].content_store 	decision_no[37] 	0
scalar tree_4_3_u07_r16_network.node[37].content_store 	decision_ratio[37] 	1
scalar tree_4_3_u07_r16_network.node[38].core_layer 	interests[38] 	11969
scalar tree_4_3_u07_r16_network.node[38].core_layer 	data[38] 	9995
scalar tree_4_3_u07_r16_network.node[38].content_store 	p_hit[38] 	0.16484250981703
scalar tree_4_3_u07_r16_network.node[38].content_store 	hits[38] 	1973
scalar tree_4_3_u07_r16_network.node[38].content_store 	misses[38] 	9996
scalar tree_4_3_u07_r16_network.node[38].content_store 	decision_yes[38] 	9995
scalar tree_4_3_u07_r16_network.node[38].content_store 	decision_no[38] 	0
scalar tree_4_3_u07_r16_network.node[38].content_store 	decision_ratio[38] 	1
scalar tree_4_3_u07_r16_network.node[39].core_layer 	interests[39] 	12017
scalar tree_4_3_u07_r16_network.node[39].core_layer 	data[39] 	10234
scalar tree_4_3_u07_r16_network.node[39].content_store 	p_hit[39] 	0.14820670716485
scalar tree_4_3_u07_r16_network.node[39].content_store 	hits[39] 	1781
scalar tree_4_3_u07_r16_network.node[39].content_store 	misses[39] 	10236
scalar tree_4_3_u07_r16_network.node[39].content_store 	decision_yes[39] 	10234
scalar tree_4_3_u07_r16_network.node[39].content_store 	decision_no[39] 	0
scalar tree_4_3_u07_r16_network.node[39].content_store 	decision_ratio[39] 	1
scalar tree_4_3_u07_r16_network.client[13] 	hdistance[13] 	3.3664689666695
scalar tree_4_3_u07_r16_network.client[13] 	downloads[13] 	11971
scalar tree_4_3_u07_r16_network.client[13] 	avg_time[13] 	0.00504912803
scalar tree_4_3_u07_r16_network.client[14] 	hdistance[14] 	3.3733629849271
scalar tree_4_3_u07_r16_network.client[14] 	downloads[14] 	12141
scalar tree_4_3_u07_r16_network.client[14] 	avg_time[14] 	0.005059887847
scalar tree_4_3_u07_r16_network.client[15] 	hdistance[15] 	3.3575025176234
scalar tree_4_3_u07_r16_network.client[15] 	downloads[15] 	11916
scalar tree_4_3_u07_r16_network.client[15] 	avg_time[15] 	0.005035756785
scalar tree_4_3_u07_r16_network.client[16] 	hdistance[16] 	3.3695167286245
scalar tree_4_3_u07_r16_network.client[16] 	downloads[16] 	12105
scalar tree_4_3_u07_r16_network.client[16] 	avg_time[16] 	0.005053804009
scalar tree_4_3_u07_r16_network.client[17] 	hdistance[17] 	3.3555463232239
scalar tree_4_3_u07_r16_network.client[17] 	downloads[17] 	12035
scalar tree_4_3_u07_r16_network.client[17] 	avg_time[17] 	0.005032963698
scalar tree_4_3_u07_r16_network.client[18] 	hdistance[18] 	3.388483781745
scalar tree_4_3_u07_r16_network.client[18] 	downloads[18] 	11931
scalar tree_4_3_u07_r16_network.client[18] 	avg_time[18] 	0.005082722703
scalar tree_4_3_u07_r16_network.client[19] 	hdistance[19] 	3.38066033773
scalar tree_4_3_u07_r16_network.client[19] 	downloads[19] 	11903
scalar tree_4_3_u07_r16_network.client[19] 	avg_time[19] 	0.005070017425
scalar tree_4_3_u07_r16_network.client[20] 	hdistance[20] 	3.376404494382
scalar tree_4_3_u07_r16_network.client[20] 	downloads[20] 	12104
scalar tree_4_3_u07_r16_network.client[20] 	avg_time[20] 	0.005063875076
scalar tree_4_3_u07_r16_network.client[21] 	hdistance[21] 	3.3584217506631
scalar tree_4_3_u07_r16_network.client[21] 	downloads[21] 	12064
scalar tree_4_3_u07_r16_network.client[21] 	avg_time[21] 	0.005037501771
scalar tree_4_3_u07_r16_network.client[22] 	hdistance[22] 	3.3767152117182
scalar tree_4_3_u07_r16_network.client[22] 	downloads[22] 	11879
scalar tree_4_3_u07_r16_network.client[22] 	avg_time[22] 	0.005064478755
scalar tree_4_3_u07_r16_network.client[23] 	hdistance[23] 	3.3899261472077
scalar tree_4_3_u07_r16_network.client[23] 	downloads[23] 	12051
scalar tree_4_3_u07_r16_network.client[23] 	avg_time[23] 	0.005084480012
scalar tree_4_3_u07_r16_network.client[24] 	hdistance[24] 	3.3822717000084
scalar tree_4_3_u07_r16_network.client[24] 	downloads[24] 	11947
scalar tree_4_3_u07_r16_network.client[24] 	avg_time[24] 	0.005072794592
scalar tree_4_3_u07_r16_network.client[25] 	hdistance[25] 	3.3677945927563
scalar tree_4_3_u07_r16_network.client[25] 	downloads[25] 	11762
scalar tree_4_3_u07_r16_network.client[25] 	avg_time[25] 	0.005051608264
scalar tree_4_3_u07_r16_network.client[26] 	hdistance[26] 	3.3657976717495
scalar tree_4_3_u07_r16_network.client[26] 	downloads[26] 	12198
scalar tree_4_3_u07_r16_network.client[26] 	avg_time[26] 	0.005048542967
scalar tree_4_3_u07_r16_network.client[27] 	hdistance[27] 	3.3653878371587
scalar tree_4_3_u07_r16_network.client[27] 	downloads[27] 	11938
scalar tree_4_3_u07_r16_network.client[27] 	avg_time[27] 	0.005047962656
scalar tree_4_3_u07_r16_network.client[28] 	hdistance[28] 	3.380075031263
scalar tree_4_3_u07_r16_network.client[28] 	downloads[28] 	11995
scalar tree_4_3_u07_r16_network.client[28] 	avg_time[28] 	0.0050692321
scalar tree_4_3_u07_r16_network.client[29] 	hdistance[29] 	3.3716539397499
scalar tree_4_3_u07_r16_network.client[29] 	downloads[29] 	11917
scalar tree_4_3_u07_r16_network.client[29] 	avg_time[29] 	0.00505658159
scalar tree_4_3_u07_r16_network.client[30] 	hdistance[30] 	3.3918521629567
scalar tree_4_3_u07_r16_network.client[30] 	downloads[30] 	11905
scalar tree_4_3_u07_r16_network.client[30] 	avg_time[30] 	0.005087081571
scalar tree_4_3_u07_r16_network.client[31] 	hdistance[31] 	3.3860030065141
scalar tree_4_3_u07_r16_network.client[31] 	downloads[31] 	11974
scalar tree_4_3_u07_r16_network.client[31] 	avg_time[31] 	0.005079001523
scalar tree_4_3_u07_r16_network.client[32] 	hdistance[32] 	3.3780942130971
scalar tree_4_3_u07_r16_network.client[32] 	downloads[32] 	12079
scalar tree_4_3_u07_r16_network.client[32] 	avg_time[32] 	0.005066549084
scalar tree_4_3_u07_r16_network.client[33] 	hdistance[33] 	3.3920558417816
scalar tree_4_3_u07_r16_network.client[33] 	downloads[33] 	12034
scalar tree_4_3_u07_r16_network.client[33] 	avg_time[33] 	0.005087303091
scalar tree_4_3_u07_r16_network.client[34] 	hdistance[34] 	3.3730998017184
scalar tree_4_3_u07_r16_network.client[34] 	downloads[34] 	12104
scalar tree_4_3_u07_r16_network.client[34] 	avg_time[34] 	0.005059493372
scalar tree_4_3_u07_r16_network.client[35] 	hdistance[35] 	3.3674153536708
scalar tree_4_3_u07_r16_network.client[35] 	downloads[35] 	11932
scalar tree_4_3_u07_r16_network.client[35] 	avg_time[35] 	0.005050384427
scalar tree_4_3_u07_r16_network.client[36] 	hdistance[36] 	3.3966237673408
scalar tree_4_3_u07_r16_network.client[36] 	downloads[36] 	11966
scalar tree_4_3_u07_r16_network.client[36] 	avg_time[36] 	0.0050947601
scalar tree_4_3_u07_r16_network.client[37] 	hdistance[37] 	3.3695081689664
scalar tree_4_3_u07_r16_network.client[37] 	downloads[37] 	11813
scalar tree_4_3_u07_r16_network.client[37] 	avg_time[37] 	0.005053715771
scalar tree_4_3_u07_r16_network.client[38] 	hdistance[38] 	3.3405748663102
scalar tree_4_3_u07_r16_network.client[38] 	downloads[38] 	11968
scalar tree_4_3_u07_r16_network.client[38] 	avg_time[38] 	0.005010624028
scalar tree_4_3_u07_r16_network.client[39] 	hdistance[39] 	3.4070744902206
scalar tree_4_3_u07_r16_network.client[39] 	downloads[39] 	12015
scalar tree_4_3_u07_r16_network.client[39] 	avg_time[39] 	0.005110034508
