version 2
run General-67-20160819-15:53:11-23511
attr a 0.9
attr cd lce
attr configname General
attr cr lru
attr datetime 20160819-15:53:11
attr experiment General
attr fsize 1
attr inifile hw5115/scenario_A/NRR-LCE.ini
attr iterationvars "$name=tree_4_3, $un=03, $rep=8, $cd=lce, $cr=lru, $fsize=1, $a=0.9, $sl=nrr, $ttl=1000, $variance=0.05"
attr iterationvars2 "$name=tree_4_3, $un=03, $rep=8, $cd=lce, $cr=lru, $fsize=1, $a=0.9, $sl=nrr, $ttl=1000, $variance=0.05, $repetition=0"
attr measurement "$name=tree_4_3, $un=03, $rep=8, $cd=lce, $cr=lru, $fsize=1, $a=0.9, $sl=nrr, $ttl=1000, $variance=0.05"
attr name tree_4_3
attr network networks.${name}_u${un}_r${rep}_network
attr processid 23511
attr rep 8
attr repetition 0
attr replication #0
attr resultdir results
attr runnumber 67
attr seedset 8
attr sl nrr
attr ttl 1000
attr un 03
attr variance 0.05

scalar . 	a 	0.9
scalar . 	fsize 	1
scalar . 	rep 	8
scalar . 	ttl 	1000
scalar . 	un 	03
scalar . 	variance 	0.05
scalar tree_4_3_u03_r8_network.content_distribution 	repo-0 	0
scalar tree_4_3_u03_r8_network.content_distribution 	client-0 	13
scalar tree_4_3_u03_r8_network.content_distribution 	client-1 	14
scalar tree_4_3_u03_r8_network.content_distribution 	client-2 	15
scalar tree_4_3_u03_r8_network.content_distribution 	client-3 	16
scalar tree_4_3_u03_r8_network.content_distribution 	client-4 	17
scalar tree_4_3_u03_r8_network.content_distribution 	client-5 	18
scalar tree_4_3_u03_r8_network.content_distribution 	client-6 	19
scalar tree_4_3_u03_r8_network.content_distribution 	client-7 	20
scalar tree_4_3_u03_r8_network.content_distribution 	client-8 	21
scalar tree_4_3_u03_r8_network.content_distribution 	client-9 	22
scalar tree_4_3_u03_r8_network.content_distribution 	client-10 	23
scalar tree_4_3_u03_r8_network.content_distribution 	client-11 	24
scalar tree_4_3_u03_r8_network.content_distribution 	client-12 	25
scalar tree_4_3_u03_r8_network.content_distribution 	client-13 	26
scalar tree_4_3_u03_r8_network.content_distribution 	client-14 	27
scalar tree_4_3_u03_r8_network.content_distribution 	client-15 	28
scalar tree_4_3_u03_r8_network.content_distribution 	client-16 	29
scalar tree_4_3_u03_r8_network.content_distribution 	client-17 	30
scalar tree_4_3_u03_r8_network.content_distribution 	client-18 	31
scalar tree_4_3_u03_r8_network.content_distribution 	client-19 	32
scalar tree_4_3_u03_r8_network.content_distribution 	client-20 	33
scalar tree_4_3_u03_r8_network.content_distribution 	client-21 	34
scalar tree_4_3_u03_r8_network.content_distribution 	client-22 	35
scalar tree_4_3_u03_r8_network.content_distribution 	client-23 	36
scalar tree_4_3_u03_r8_network.content_distribution 	client-24 	37
scalar tree_4_3_u03_r8_network.content_distribution 	client-25 	38
scalar tree_4_3_u03_r8_network.content_distribution 	client-26 	39
scalar tree_4_3_u03_r8_network.content_distribution 	repo-0_card 	100000
scalar tree_4_3_u03_r8_network.content_distribution 	repo-0_price 	0
scalar tree_4_3_u03_r8_network.statistics 	stabilization_time 	546
scalar tree_4_3_u03_r8_network.statistics 	p_hit 	0.18238050266927
scalar tree_4_3_u03_r8_network.statistics 	interests 	27675.875
scalar tree_4_3_u03_r8_network.statistics 	data 	19600.2
scalar tree_4_3_u03_r8_network.statistics 	hdistance 	3.076726189908
scalar tree_4_3_u03_r8_network.statistics 	avg_time 	0.004853906988
scalar tree_4_3_u03_r8_network.statistics 	downloads 	323019
scalar tree_4_3_u03_r8_network.statistics 	total_cost 	0
scalar tree_4_3_u03_r8_network.statistics 	total_replicas 	100000
scalar tree_4_3_u03_r8_network.statistics 	inner_hit 	0.35030447125401
scalar tree_4_3_u03_r8_network.node[0].core_layer 	interests[0] 	211111
scalar tree_4_3_u03_r8_network.node[0].core_layer 	repo_load[0] 	209864
scalar tree_4_3_u03_r8_network.node[0].core_layer 	data[0] 	0
scalar tree_4_3_u03_r8_network.node[0].core_layer 	repo_int[0] 	209864
scalar tree_4_3_u03_r8_network.node[0].content_store 	p_hit[0] 	0.0059068452141291
scalar tree_4_3_u03_r8_network.node[0].content_store 	hits[0] 	1247
scalar tree_4_3_u03_r8_network.node[0].content_store 	misses[0] 	209864
scalar tree_4_3_u03_r8_network.node[0].content_store 	decision_yes[0] 	209864
scalar tree_4_3_u03_r8_network.node[0].content_store 	decision_no[0] 	0
scalar tree_4_3_u03_r8_network.node[0].content_store 	decision_ratio[0] 	1
scalar tree_4_3_u03_r8_network.node[1].core_layer 	interests[1] 	75754
scalar tree_4_3_u03_r8_network.node[1].core_layer 	data[1] 	75165
scalar tree_4_3_u03_r8_network.node[1].content_store 	p_hit[1] 	0.0077619663648124
scalar tree_4_3_u03_r8_network.node[1].content_store 	hits[1] 	588
scalar tree_4_3_u03_r8_network.node[1].content_store 	misses[1] 	75166
scalar tree_4_3_u03_r8_network.node[1].content_store 	decision_yes[1] 	75160
scalar tree_4_3_u03_r8_network.node[1].content_store 	decision_no[1] 	0
scalar tree_4_3_u03_r8_network.node[1].content_store 	decision_ratio[1] 	1
scalar tree_4_3_u03_r8_network.node[2].core_layer 	interests[2] 	77112
scalar tree_4_3_u03_r8_network.node[2].core_layer 	data[2] 	76326
scalar tree_4_3_u03_r8_network.node[2].content_store 	p_hit[2] 	0.010167029774873
scalar tree_4_3_u03_r8_network.node[2].content_store 	hits[2] 	784
scalar tree_4_3_u03_r8_network.node[2].content_store 	misses[2] 	76328
scalar tree_4_3_u03_r8_network.node[2].content_store 	decision_yes[2] 	76325
scalar tree_4_3_u03_r8_network.node[2].content_store 	decision_no[2] 	0
scalar tree_4_3_u03_r8_network.node[2].content_store 	decision_ratio[2] 	1
scalar tree_4_3_u03_r8_network.node[3].core_layer 	interests[3] 	87134
scalar tree_4_3_u03_r8_network.node[3].core_layer 	data[3] 	85164
scalar tree_4_3_u03_r8_network.node[3].content_store 	p_hit[3] 	0.022574425597356
scalar tree_4_3_u03_r8_network.node[3].content_store 	hits[3] 	1967
scalar tree_4_3_u03_r8_network.node[3].content_store 	misses[3] 	85167
scalar tree_4_3_u03_r8_network.node[3].content_store 	decision_yes[3] 	85149
scalar tree_4_3_u03_r8_network.node[3].content_store 	decision_no[3] 	0
scalar tree_4_3_u03_r8_network.node[3].content_store 	decision_ratio[3] 	1
scalar tree_4_3_u03_r8_network.node[4].core_layer 	interests[4] 	40898
scalar tree_4_3_u03_r8_network.node[4].core_layer 	data[4] 	39464
scalar tree_4_3_u03_r8_network.node[4].content_store 	p_hit[4] 	0.034965034965035
scalar tree_4_3_u03_r8_network.node[4].content_store 	hits[4] 	1430
scalar tree_4_3_u03_r8_network.node[4].content_store 	misses[4] 	39468
scalar tree_4_3_u03_r8_network.node[4].content_store 	decision_yes[4] 	39463
scalar tree_4_3_u03_r8_network.node[4].content_store 	decision_no[4] 	0
scalar tree_4_3_u03_r8_network.node[4].content_store 	decision_ratio[4] 	1
scalar tree_4_3_u03_r8_network.node[5].core_layer 	interests[5] 	19884
scalar tree_4_3_u03_r8_network.node[5].core_layer 	data[5] 	18795
scalar tree_4_3_u03_r8_network.node[5].content_store 	p_hit[5] 	0.054767652383826
scalar tree_4_3_u03_r8_network.node[5].content_store 	hits[5] 	1089
scalar tree_4_3_u03_r8_network.node[5].content_store 	misses[5] 	18795
scalar tree_4_3_u03_r8_network.node[5].content_store 	decision_yes[5] 	18794
scalar tree_4_3_u03_r8_network.node[5].content_store 	decision_no[5] 	0
scalar tree_4_3_u03_r8_network.node[5].content_store 	decision_ratio[5] 	1
scalar tree_4_3_u03_r8_network.node[6].core_layer 	interests[6] 	38550
scalar tree_4_3_u03_r8_network.node[6].core_layer 	data[6] 	34607
scalar tree_4_3_u03_r8_network.node[6].content_store 	p_hit[6] 	0.10210116731518
scalar tree_4_3_u03_r8_network.node[6].content_store 	hits[6] 	3936
scalar tree_4_3_u03_r8_network.node[6].content_store 	misses[6] 	34614
scalar tree_4_3_u03_r8_network.node[6].content_store 	decision_yes[6] 	34601
scalar tree_4_3_u03_r8_network.node[6].content_store 	decision_no[6] 	0
scalar tree_4_3_u03_r8_network.node[6].content_store 	decision_ratio[6] 	1
scalar tree_4_3_u03_r8_network.node[7].core_layer 	interests[7] 	30506
scalar tree_4_3_u03_r8_network.node[7].core_layer 	data[7] 	29401
scalar tree_4_3_u03_r8_network.node[7].content_store 	p_hit[7] 	0.036124041172228
scalar tree_4_3_u03_r8_network.node[7].content_store 	hits[7] 	1102
scalar tree_4_3_u03_r8_network.node[7].content_store 	misses[7] 	29404
scalar tree_4_3_u03_r8_network.node[7].content_store 	decision_yes[7] 	29401
scalar tree_4_3_u03_r8_network.node[7].content_store 	decision_no[7] 	0
scalar tree_4_3_u03_r8_network.node[7].content_store 	decision_ratio[7] 	1
scalar tree_4_3_u03_r8_network.node[8].core_layer 	interests[8] 	32087
scalar tree_4_3_u03_r8_network.node[8].core_layer 	data[8] 	30253
scalar tree_4_3_u03_r8_network.node[8].content_store 	p_hit[8] 	0.057063608314894
scalar tree_4_3_u03_r8_network.node[8].content_store 	hits[8] 	1831
scalar tree_4_3_u03_r8_network.node[8].content_store 	misses[8] 	30256
scalar tree_4_3_u03_r8_network.node[8].content_store 	decision_yes[8] 	30252
scalar tree_4_3_u03_r8_network.node[8].content_store 	decision_no[8] 	0
scalar tree_4_3_u03_r8_network.node[8].content_store 	decision_ratio[8] 	1
scalar tree_4_3_u03_r8_network.node[9].core_layer 	interests[9] 	36249
scalar tree_4_3_u03_r8_network.node[9].core_layer 	data[9] 	32626
scalar tree_4_3_u03_r8_network.node[9].content_store 	p_hit[9] 	0.099809649921377
scalar tree_4_3_u03_r8_network.node[9].content_store 	hits[9] 	3618
scalar tree_4_3_u03_r8_network.node[9].content_store 	misses[9] 	32631
scalar tree_4_3_u03_r8_network.node[9].content_store 	decision_yes[9] 	32623
scalar tree_4_3_u03_r8_network.node[9].content_store 	decision_no[9] 	0
scalar tree_4_3_u03_r8_network.node[9].content_store 	decision_ratio[9] 	1
scalar tree_4_3_u03_r8_network.node[10].core_layer 	interests[10] 	41500
scalar tree_4_3_u03_r8_network.node[10].core_layer 	data[10] 	39650
scalar tree_4_3_u03_r8_network.node[10].content_store 	p_hit[10] 	0.044433734939759
scalar tree_4_3_u03_r8_network.node[10].content_store 	hits[10] 	1844
scalar tree_4_3_u03_r8_network.node[10].content_store 	misses[10] 	39656
scalar tree_4_3_u03_r8_network.node[10].content_store 	decision_yes[10] 	39645
scalar tree_4_3_u03_r8_network.node[10].content_store 	decision_no[10] 	0
scalar tree_4_3_u03_r8_network.node[10].content_store 	decision_ratio[10] 	1
scalar tree_4_3_u03_r8_network.node[11].core_layer 	interests[11] 	22673
scalar tree_4_3_u03_r8_network.node[11].core_layer 	data[11] 	20271
scalar tree_4_3_u03_r8_network.node[11].content_store 	p_hit[11] 	0.10594098707714
scalar tree_4_3_u03_r8_network.node[11].content_store 	hits[11] 	2402
scalar tree_4_3_u03_r8_network.node[11].content_store 	misses[11] 	20271
scalar tree_4_3_u03_r8_network.node[11].content_store 	decision_yes[11] 	20270
scalar tree_4_3_u03_r8_network.node[11].content_store 	decision_no[11] 	0
scalar tree_4_3_u03_r8_network.node[11].content_store 	decision_ratio[11] 	1
scalar tree_4_3_u03_r8_network.node[12].core_layer 	interests[12] 	33922
scalar tree_4_3_u03_r8_network.node[12].core_layer 	data[12] 	31558
scalar tree_4_3_u03_r8_network.node[12].content_store 	p_hit[12] 	0.069718766582159
scalar tree_4_3_u03_r8_network.node[12].content_store 	hits[12] 	2365
scalar tree_4_3_u03_r8_network.node[12].content_store 	misses[12] 	31557
scalar tree_4_3_u03_r8_network.node[12].content_store 	decision_yes[12] 	31554
scalar tree_4_3_u03_r8_network.node[12].content_store 	decision_no[12] 	0
scalar tree_4_3_u03_r8_network.node[12].content_store 	decision_ratio[12] 	1
scalar tree_4_3_u03_r8_network.node[13].core_layer 	interests[13] 	12930
scalar tree_4_3_u03_r8_network.node[13].core_layer 	data[13] 	9927
scalar tree_4_3_u03_r8_network.node[13].content_store 	p_hit[13] 	0.2323279195669
scalar tree_4_3_u03_r8_network.node[13].content_store 	hits[13] 	3004
scalar tree_4_3_u03_r8_network.node[13].content_store 	misses[13] 	9926
scalar tree_4_3_u03_r8_network.node[13].content_store 	decision_yes[13] 	9927
scalar tree_4_3_u03_r8_network.node[13].content_store 	decision_no[13] 	0
scalar tree_4_3_u03_r8_network.node[13].content_store 	decision_ratio[13] 	1
scalar tree_4_3_u03_r8_network.node[14].core_layer 	interests[14] 	13021
scalar tree_4_3_u03_r8_network.node[14].core_layer 	data[14] 	10129
scalar tree_4_3_u03_r8_network.node[14].content_store 	p_hit[14] 	0.22210275708471
scalar tree_4_3_u03_r8_network.node[14].content_store 	hits[14] 	2892
scalar tree_4_3_u03_r8_network.node[14].content_store 	misses[14] 	10129
scalar tree_4_3_u03_r8_network.node[14].content_store 	decision_yes[14] 	10129
scalar tree_4_3_u03_r8_network.node[14].content_store 	decision_no[14] 	0
scalar tree_4_3_u03_r8_network.node[14].content_store 	decision_ratio[14] 	1
scalar tree_4_3_u03_r8_network.node[15].core_layer 	interests[15] 	13122
scalar tree_4_3_u03_r8_network.node[15].core_layer 	data[15] 	10205
scalar tree_4_3_u03_r8_network.node[15].content_store 	p_hit[15] 	0.22222222222222
scalar tree_4_3_u03_r8_network.node[15].content_store 	hits[15] 	2916
scalar tree_4_3_u03_r8_network.node[15].content_store 	misses[15] 	10206
scalar tree_4_3_u03_r8_network.node[15].content_store 	decision_yes[15] 	10205
scalar tree_4_3_u03_r8_network.node[15].content_store 	decision_no[15] 	0
scalar tree_4_3_u03_r8_network.node[15].content_store 	decision_ratio[15] 	1
scalar tree_4_3_u03_r8_network.node[16].core_layer 	interests[16] 	13812
scalar tree_4_3_u03_r8_network.node[16].core_layer 	data[16] 	9979
scalar tree_4_3_u03_r8_network.node[16].content_store 	p_hit[16] 	0.27736750651607
scalar tree_4_3_u03_r8_network.node[16].content_store 	hits[16] 	3831
scalar tree_4_3_u03_r8_network.node[16].content_store 	misses[16] 	9981
scalar tree_4_3_u03_r8_network.node[16].content_store 	decision_yes[16] 	9979
scalar tree_4_3_u03_r8_network.node[16].content_store 	decision_no[16] 	0
scalar tree_4_3_u03_r8_network.node[16].content_store 	decision_ratio[16] 	1
scalar tree_4_3_u03_r8_network.node[17].core_layer 	interests[17] 	12567
scalar tree_4_3_u03_r8_network.node[17].core_layer 	data[17] 	10197
scalar tree_4_3_u03_r8_network.node[17].content_store 	p_hit[17] 	0.18850958860508
scalar tree_4_3_u03_r8_network.node[17].content_store 	hits[17] 	2369
scalar tree_4_3_u03_r8_network.node[17].content_store 	misses[17] 	10198
scalar tree_4_3_u03_r8_network.node[17].content_store 	decision_yes[17] 	10197
scalar tree_4_3_u03_r8_network.node[17].content_store 	decision_no[17] 	0
scalar tree_4_3_u03_r8_network.node[17].content_store 	decision_ratio[17] 	1
scalar tree_4_3_u03_r8_network.node[18].core_layer 	interests[18] 	14571
scalar tree_4_3_u03_r8_network.node[18].core_layer 	data[18] 	9866
scalar tree_4_3_u03_r8_network.node[18].content_store 	p_hit[18] 	0.32297028343971
scalar tree_4_3_u03_r8_network.node[18].content_store 	hits[18] 	4706
scalar tree_4_3_u03_r8_network.node[18].content_store 	misses[18] 	9865
scalar tree_4_3_u03_r8_network.node[18].content_store 	decision_yes[18] 	9866
scalar tree_4_3_u03_r8_network.node[18].content_store 	decision_no[18] 	0
scalar tree_4_3_u03_r8_network.node[18].content_store 	decision_ratio[18] 	1
scalar tree_4_3_u03_r8_network.node[19].core_layer 	interests[19] 	13818
scalar tree_4_3_u03_r8_network.node[19].core_layer 	data[19] 	10059
scalar tree_4_3_u03_r8_network.node[19].content_store 	p_hit[19] 	0.27203647416413
scalar tree_4_3_u03_r8_network.node[19].content_store 	hits[19] 	3759
scalar tree_4_3_u03_r8_network.node[19].content_store 	misses[19] 	10059
scalar tree_4_3_u03_r8_network.node[19].content_store 	decision_yes[19] 	10059
scalar tree_4_3_u03_r8_network.node[19].content_store 	decision_no[19] 	0
scalar tree_4_3_u03_r8_network.node[19].content_store 	decision_ratio[19] 	1
scalar tree_4_3_u03_r8_network.node[20].core_layer 	interests[20] 	13660
scalar tree_4_3_u03_r8_network.node[20].core_layer 	data[20] 	10005
scalar tree_4_3_u03_r8_network.node[20].content_store 	p_hit[20] 	0.26749633967789
scalar tree_4_3_u03_r8_network.node[20].content_store 	hits[20] 	3654
scalar tree_4_3_u03_r8_network.node[20].content_store 	misses[20] 	10006
scalar tree_4_3_u03_r8_network.node[20].content_store 	decision_yes[20] 	10005
scalar tree_4_3_u03_r8_network.node[20].content_store 	decision_no[20] 	0
scalar tree_4_3_u03_r8_network.node[20].content_store 	decision_ratio[20] 	1
scalar tree_4_3_u03_r8_network.node[21].core_layer 	interests[21] 	13749
scalar tree_4_3_u03_r8_network.node[21].core_layer 	data[21] 	10158
scalar tree_4_3_u03_r8_network.node[21].content_store 	p_hit[21] 	0.26110989890174
scalar tree_4_3_u03_r8_network.node[21].content_store 	hits[21] 	3590
scalar tree_4_3_u03_r8_network.node[21].content_store 	misses[21] 	10159
scalar tree_4_3_u03_r8_network.node[21].content_store 	decision_yes[21] 	10158
scalar tree_4_3_u03_r8_network.node[21].content_store 	decision_no[21] 	0
scalar tree_4_3_u03_r8_network.node[21].content_store 	decision_ratio[21] 	1
scalar tree_4_3_u03_r8_network.node[22].core_layer 	interests[22] 	12613
scalar tree_4_3_u03_r8_network.node[22].core_layer 	data[22] 	9957
scalar tree_4_3_u03_r8_network.node[22].content_store 	p_hit[22] 	0.21041782288115
scalar tree_4_3_u03_r8_network.node[22].content_store 	hits[22] 	2654
scalar tree_4_3_u03_r8_network.node[22].content_store 	misses[22] 	9959
scalar tree_4_3_u03_r8_network.node[22].content_store 	decision_yes[22] 	9957
scalar tree_4_3_u03_r8_network.node[22].content_store 	decision_no[22] 	0
scalar tree_4_3_u03_r8_network.node[22].content_store 	decision_ratio[22] 	1
scalar tree_4_3_u03_r8_network.node[23].core_layer 	interests[23] 	13915
scalar tree_4_3_u03_r8_network.node[23].core_layer 	data[23] 	9930
scalar tree_4_3_u03_r8_network.node[23].content_store 	p_hit[23] 	0.28638160258714
scalar tree_4_3_u03_r8_network.node[23].content_store 	hits[23] 	3985
scalar tree_4_3_u03_r8_network.node[23].content_store 	misses[23] 	9930
scalar tree_4_3_u03_r8_network.node[23].content_store 	decision_yes[23] 	9930
scalar tree_4_3_u03_r8_network.node[23].content_store 	decision_no[23] 	0
scalar tree_4_3_u03_r8_network.node[23].content_store 	decision_ratio[23] 	1
scalar tree_4_3_u03_r8_network.node[24].core_layer 	interests[24] 	12742
scalar tree_4_3_u03_r8_network.node[24].core_layer 	data[24] 	10090
scalar tree_4_3_u03_r8_network.node[24].content_store 	p_hit[24] 	0.20805211112855
scalar tree_4_3_u03_r8_network.node[24].content_store 	hits[24] 	2651
scalar tree_4_3_u03_r8_network.node[24].content_store 	misses[24] 	10091
scalar tree_4_3_u03_r8_network.node[24].content_store 	decision_yes[24] 	10090
scalar tree_4_3_u03_r8_network.node[24].content_store 	decision_no[24] 	0
scalar tree_4_3_u03_r8_network.node[24].content_store 	decision_ratio[24] 	1
scalar tree_4_3_u03_r8_network.node[25].core_layer 	interests[25] 	12613
scalar tree_4_3_u03_r8_network.node[25].core_layer 	data[25] 	9811
scalar tree_4_3_u03_r8_network.node[25].content_store 	p_hit[25] 	0.22223103147546
scalar tree_4_3_u03_r8_network.node[25].content_store 	hits[25] 	2803
scalar tree_4_3_u03_r8_network.node[25].content_store 	misses[25] 	9810
scalar tree_4_3_u03_r8_network.node[25].content_store 	decision_yes[25] 	9811
scalar tree_4_3_u03_r8_network.node[25].content_store 	decision_no[25] 	0
scalar tree_4_3_u03_r8_network.node[25].content_store 	decision_ratio[25] 	1
scalar tree_4_3_u03_r8_network.node[26].core_layer 	interests[26] 	12728
scalar tree_4_3_u03_r8_network.node[26].core_layer 	data[26] 	9950
scalar tree_4_3_u03_r8_network.node[26].content_store 	p_hit[26] 	0.21825895663105
scalar tree_4_3_u03_r8_network.node[26].content_store 	hits[26] 	2778
scalar tree_4_3_u03_r8_network.node[26].content_store 	misses[26] 	9950
scalar tree_4_3_u03_r8_network.node[26].content_store 	decision_yes[26] 	9950
scalar tree_4_3_u03_r8_network.node[26].content_store 	decision_no[26] 	0
scalar tree_4_3_u03_r8_network.node[26].content_store 	decision_ratio[26] 	1
scalar tree_4_3_u03_r8_network.node[27].core_layer 	interests[27] 	12890
scalar tree_4_3_u03_r8_network.node[27].core_layer 	data[27] 	10105
scalar tree_4_3_u03_r8_network.node[27].content_store 	p_hit[27] 	0.21598138091544
scalar tree_4_3_u03_r8_network.node[27].content_store 	hits[27] 	2784
scalar tree_4_3_u03_r8_network.node[27].content_store 	misses[27] 	10106
scalar tree_4_3_u03_r8_network.node[27].content_store 	decision_yes[27] 	10105
scalar tree_4_3_u03_r8_network.node[27].content_store 	decision_no[27] 	0
scalar tree_4_3_u03_r8_network.node[27].content_store 	decision_ratio[27] 	1
scalar tree_4_3_u03_r8_network.node[28].core_layer 	interests[28] 	13731
scalar tree_4_3_u03_r8_network.node[28].core_layer 	data[28] 	9971
scalar tree_4_3_u03_r8_network.node[28].content_store 	p_hit[28] 	0.27376010487219
scalar tree_4_3_u03_r8_network.node[28].content_store 	hits[28] 	3759
scalar tree_4_3_u03_r8_network.node[28].content_store 	misses[28] 	9972
scalar tree_4_3_u03_r8_network.node[28].content_store 	decision_yes[28] 	9971
scalar tree_4_3_u03_r8_network.node[28].content_store 	decision_no[28] 	0
scalar tree_4_3_u03_r8_network.node[28].content_store 	decision_ratio[28] 	1
scalar tree_4_3_u03_r8_network.node[29].core_layer 	interests[29] 	13727
scalar tree_4_3_u03_r8_network.node[29].core_layer 	data[29] 	10030
scalar tree_4_3_u03_r8_network.node[29].content_store 	p_hit[29] 	0.26917753332848
scalar tree_4_3_u03_r8_network.node[29].content_store 	hits[29] 	3695
scalar tree_4_3_u03_r8_network.node[29].content_store 	misses[29] 	10032
scalar tree_4_3_u03_r8_network.node[29].content_store 	decision_yes[29] 	10030
scalar tree_4_3_u03_r8_network.node[29].content_store 	decision_no[29] 	0
scalar tree_4_3_u03_r8_network.node[29].content_store 	decision_ratio[29] 	1
scalar tree_4_3_u03_r8_network.node[30].core_layer 	interests[30] 	13652
scalar tree_4_3_u03_r8_network.node[30].core_layer 	data[30] 	9954
scalar tree_4_3_u03_r8_network.node[30].content_store 	p_hit[30] 	0.27087606211544
scalar tree_4_3_u03_r8_network.node[30].content_store 	hits[30] 	3698
scalar tree_4_3_u03_r8_network.node[30].content_store 	misses[30] 	9954
scalar tree_4_3_u03_r8_network.node[30].content_store 	decision_yes[30] 	9954
scalar tree_4_3_u03_r8_network.node[30].content_store 	decision_no[30] 	0
scalar tree_4_3_u03_r8_network.node[30].content_store 	decision_ratio[30] 	1
scalar tree_4_3_u03_r8_network.node[31].core_layer 	interests[31] 	13140
scalar tree_4_3_u03_r8_network.node[31].core_layer 	data[31] 	10056
scalar tree_4_3_u03_r8_network.node[31].content_store 	p_hit[31] 	0.23462709284627
scalar tree_4_3_u03_r8_network.node[31].content_store 	hits[31] 	3083
scalar tree_4_3_u03_r8_network.node[31].content_store 	misses[31] 	10057
scalar tree_4_3_u03_r8_network.node[31].content_store 	decision_yes[31] 	10056
scalar tree_4_3_u03_r8_network.node[31].content_store 	decision_no[31] 	0
scalar tree_4_3_u03_r8_network.node[31].content_store 	decision_ratio[31] 	1
scalar tree_4_3_u03_r8_network.node[32].core_layer 	interests[32] 	13620
scalar tree_4_3_u03_r8_network.node[32].core_layer 	data[32] 	9878
scalar tree_4_3_u03_r8_network.node[32].content_store 	p_hit[32] 	0.27474302496329
scalar tree_4_3_u03_r8_network.node[32].content_store 	hits[32] 	3742
scalar tree_4_3_u03_r8_network.node[32].content_store 	misses[32] 	9878
scalar tree_4_3_u03_r8_network.node[32].content_store 	decision_yes[32] 	9878
scalar tree_4_3_u03_r8_network.node[32].content_store 	decision_no[32] 	0
scalar tree_4_3_u03_r8_network.node[32].content_store 	decision_ratio[32] 	1
scalar tree_4_3_u03_r8_network.node[33].core_layer 	interests[33] 	13191
scalar tree_4_3_u03_r8_network.node[33].core_layer 	data[33] 	9965
scalar tree_4_3_u03_r8_network.node[33].content_store 	p_hit[33] 	0.24456068531575
scalar tree_4_3_u03_r8_network.node[33].content_store 	hits[33] 	3226
scalar tree_4_3_u03_r8_network.node[33].content_store 	misses[33] 	9965
scalar tree_4_3_u03_r8_network.node[33].content_store 	decision_yes[33] 	9965
scalar tree_4_3_u03_r8_network.node[33].content_store 	decision_no[33] 	0
scalar tree_4_3_u03_r8_network.node[33].content_store 	decision_ratio[33] 	1
scalar tree_4_3_u03_r8_network.node[34].core_layer 	interests[34] 	13715
scalar tree_4_3_u03_r8_network.node[34].core_layer 	data[34] 	9931
scalar tree_4_3_u03_r8_network.node[34].content_store 	p_hit[34] 	0.27590229675538
scalar tree_4_3_u03_r8_network.node[34].content_store 	hits[34] 	3784
scalar tree_4_3_u03_r8_network.node[34].content_store 	misses[34] 	9931
scalar tree_4_3_u03_r8_network.node[34].content_store 	decision_yes[34] 	9931
scalar tree_4_3_u03_r8_network.node[34].content_store 	decision_no[34] 	0
scalar tree_4_3_u03_r8_network.node[34].content_store 	decision_ratio[34] 	1
scalar tree_4_3_u03_r8_network.node[35].core_layer 	interests[35] 	12722
scalar tree_4_3_u03_r8_network.node[35].core_layer 	data[35] 	10192
scalar tree_4_3_u03_r8_network.node[35].content_store 	p_hit[35] 	0.19886810249961
scalar tree_4_3_u03_r8_network.node[35].content_store 	hits[35] 	2530
scalar tree_4_3_u03_r8_network.node[35].content_store 	misses[35] 	10192
scalar tree_4_3_u03_r8_network.node[35].content_store 	decision_yes[35] 	10192
scalar tree_4_3_u03_r8_network.node[35].content_store 	decision_no[35] 	0
scalar tree_4_3_u03_r8_network.node[35].content_store 	decision_ratio[35] 	1
scalar tree_4_3_u03_r8_network.node[36].core_layer 	interests[36] 	13801
scalar tree_4_3_u03_r8_network.node[36].core_layer 	data[36] 	9986
scalar tree_4_3_u03_r8_network.node[36].content_store 	p_hit[36] 	0.27642924425766
scalar tree_4_3_u03_r8_network.node[36].content_store 	hits[36] 	3815
scalar tree_4_3_u03_r8_network.node[36].content_store 	misses[36] 	9986
scalar tree_4_3_u03_r8_network.node[36].content_store 	decision_yes[36] 	9986
scalar tree_4_3_u03_r8_network.node[36].content_store 	decision_no[36] 	0
scalar tree_4_3_u03_r8_network.node[36].content_store 	decision_ratio[36] 	1
scalar tree_4_3_u03_r8_network.node[37].core_layer 	interests[37] 	13181
scalar tree_4_3_u03_r8_network.node[37].core_layer 	data[37] 	10132
scalar tree_4_3_u03_r8_network.node[37].content_store 	p_hit[37] 	0.23131780593278
scalar tree_4_3_u03_r8_network.node[37].content_store 	hits[37] 	3049
scalar tree_4_3_u03_r8_network.node[37].content_store 	misses[37] 	10132
scalar tree_4_3_u03_r8_network.node[37].content_store 	decision_yes[37] 	10132
scalar tree_4_3_u03_r8_network.node[37].content_store 	decision_no[37] 	0
scalar tree_4_3_u03_r8_network.node[37].content_store 	decision_ratio[37] 	1
scalar tree_4_3_u03_r8_network.node[38].core_layer 	interests[38] 	13282
scalar tree_4_3_u03_r8_network.node[38].core_layer 	data[38] 	10174
scalar tree_4_3_u03_r8_network.node[38].content_store 	p_hit[38] 	0.23400090347839
scalar tree_4_3_u03_r8_network.node[38].content_store 	hits[38] 	3108
scalar tree_4_3_u03_r8_network.node[38].content_store 	misses[38] 	10174
scalar tree_4_3_u03_r8_network.node[38].content_store 	decision_yes[38] 	10174
scalar tree_4_3_u03_r8_network.node[38].content_store 	decision_no[38] 	0
scalar tree_4_3_u03_r8_network.node[38].content_store 	decision_ratio[38] 	1
scalar tree_4_3_u03_r8_network.node[39].core_layer 	interests[39] 	13142
scalar tree_4_3_u03_r8_network.node[39].core_layer 	data[39] 	10091
scalar tree_4_3_u03_r8_network.node[39].content_store 	p_hit[39] 	0.23215644498554
scalar tree_4_3_u03_r8_network.node[39].content_store 	hits[39] 	3051
scalar tree_4_3_u03_r8_network.node[39].content_store 	misses[39] 	10091
scalar tree_4_3_u03_r8_network.node[39].content_store 	decision_yes[39] 	10091
scalar tree_4_3_u03_r8_network.node[39].content_store 	decision_no[39] 	0
scalar tree_4_3_u03_r8_network.node[39].content_store 	decision_ratio[39] 	1
scalar tree_4_3_u03_r8_network.client[13] 	hdistance[13] 	3.1006813020439
scalar tree_4_3_u03_r8_network.client[13] 	downloads[13] 	11889
scalar tree_4_3_u03_r8_network.client[13] 	avg_time[13] 	0.00484026954
scalar tree_4_3_u03_r8_network.client[14] 	hdistance[14] 	3.1021994377377
scalar tree_4_3_u03_r8_network.client[14] 	downloads[14] 	12094
scalar tree_4_3_u03_r8_network.client[14] 	avg_time[14] 	0.004843434043
scalar tree_4_3_u03_r8_network.client[15] 	hdistance[15] 	3.1073102540909
scalar tree_4_3_u03_r8_network.client[15] 	downloads[15] 	12161
scalar tree_4_3_u03_r8_network.client[15] 	avg_time[15] 	0.004850819411
scalar tree_4_3_u03_r8_network.client[16] 	hdistance[16] 	3.0054817275748
scalar tree_4_3_u03_r8_network.client[16] 	downloads[16] 	12040
scalar tree_4_3_u03_r8_network.client[16] 	avg_time[16] 	0.004668704831
scalar tree_4_3_u03_r8_network.client[17] 	hdistance[17] 	3.1487555628812
scalar tree_4_3_u03_r8_network.client[17] 	downloads[17] 	12134
scalar tree_4_3_u03_r8_network.client[17] 	avg_time[17] 	0.004933426573
scalar tree_4_3_u03_r8_network.client[18] 	hdistance[18] 	2.9917341430499
scalar tree_4_3_u03_r8_network.client[18] 	downloads[18] 	11856
scalar tree_4_3_u03_r8_network.client[18] 	avg_time[18] 	0.004740705215
scalar tree_4_3_u03_r8_network.client[19] 	hdistance[19] 	3.0291165491497
scalar tree_4_3_u03_r8_network.client[19] 	downloads[19] 	12055
scalar tree_4_3_u03_r8_network.client[19] 	avg_time[19] 	0.004838222392
scalar tree_4_3_u03_r8_network.client[20] 	hdistance[20] 	3.0423125261835
scalar tree_4_3_u03_r8_network.client[20] 	downloads[20] 	11935
scalar tree_4_3_u03_r8_network.client[20] 	avg_time[20] 	0.004858941644
scalar tree_4_3_u03_r8_network.client[21] 	hdistance[21] 	3.0577704102777
scalar tree_4_3_u03_r8_network.client[21] 	downloads[21] 	12065
scalar tree_4_3_u03_r8_network.client[21] 	avg_time[21] 	0.00487587573
scalar tree_4_3_u03_r8_network.client[22] 	hdistance[22] 	3.157917019475
scalar tree_4_3_u03_r8_network.client[22] 	downloads[22] 	11810
scalar tree_4_3_u03_r8_network.client[22] 	avg_time[22] 	0.004945123196
scalar tree_4_3_u03_r8_network.client[23] 	hdistance[23] 	3.053643384822
scalar tree_4_3_u03_r8_network.client[23] 	downloads[23] 	11912
scalar tree_4_3_u03_r8_network.client[23] 	avg_time[23] 	0.004735398561
scalar tree_4_3_u03_r8_network.client[24] 	hdistance[24] 	3.1614143609462
scalar tree_4_3_u03_r8_network.client[24] 	downloads[24] 	11963
scalar tree_4_3_u03_r8_network.client[24] 	avg_time[24] 	0.004944332006
scalar tree_4_3_u03_r8_network.client[25] 	hdistance[25] 	3.1016833290609
scalar tree_4_3_u03_r8_network.client[25] 	downloads[25] 	11703
scalar tree_4_3_u03_r8_network.client[25] 	avg_time[25] 	0.004844908617
scalar tree_4_3_u03_r8_network.client[26] 	hdistance[26] 	3.1109891038094
scalar tree_4_3_u03_r8_network.client[26] 	downloads[26] 	11839
scalar tree_4_3_u03_r8_network.client[26] 	avg_time[26] 	0.004851851479
scalar tree_4_3_u03_r8_network.client[27] 	hdistance[27] 	3.1068372518069
scalar tree_4_3_u03_r8_network.client[27] 	downloads[27] 	12037
scalar tree_4_3_u03_r8_network.client[27] 	avg_time[27] 	0.004849847397
scalar tree_4_3_u03_r8_network.client[28] 	hdistance[28] 	3.0644567219153
scalar tree_4_3_u03_r8_network.client[28] 	downloads[28] 	11946
scalar tree_4_3_u03_r8_network.client[28] 	avg_time[28] 	0.00491228495
scalar tree_4_3_u03_r8_network.client[29] 	hdistance[29] 	3.0810336176618
scalar tree_4_3_u03_r8_network.client[29] 	downloads[29] 	11958
scalar tree_4_3_u03_r8_network.client[29] 	avg_time[29] 	0.004938097888
scalar tree_4_3_u03_r8_network.client[30] 	hdistance[30] 	3.0628614533568
scalar tree_4_3_u03_r8_network.client[30] 	downloads[30] 	11931
scalar tree_4_3_u03_r8_network.client[30] 	avg_time[30] 	0.004906878283
scalar tree_4_3_u03_r8_network.client[31] 	hdistance[31] 	3.0832985908446
scalar tree_4_3_u03_r8_network.client[31] 	downloads[31] 	11993
scalar tree_4_3_u03_r8_network.client[31] 	avg_time[31] 	0.004881959098
scalar tree_4_3_u03_r8_network.client[32] 	hdistance[32] 	3.0102230483271
scalar tree_4_3_u03_r8_network.client[32] 	downloads[32] 	11836
scalar tree_4_3_u03_r8_network.client[32] 	avg_time[32] 	0.004743429092
scalar tree_4_3_u03_r8_network.client[33] 	hdistance[33] 	3.0662428905989
scalar tree_4_3_u03_r8_network.client[33] 	downloads[33] 	11956
scalar tree_4_3_u03_r8_network.client[33] 	avg_time[33] 	0.004862277998
scalar tree_4_3_u03_r8_network.client[34] 	hdistance[34] 	2.990524903572
scalar tree_4_3_u03_r8_network.client[34] 	downloads[34] 	11926
scalar tree_4_3_u03_r8_network.client[34] 	avg_time[34] 	0.004716738464
scalar tree_4_3_u03_r8_network.client[35] 	hdistance[35] 	3.1339389898316
scalar tree_4_3_u03_r8_network.client[35] 	downloads[35] 	11998
scalar tree_4_3_u03_r8_network.client[35] 	avg_time[35] 	0.004977659959
scalar tree_4_3_u03_r8_network.client[36] 	hdistance[36] 	3.0251937984496
scalar tree_4_3_u03_r8_network.client[36] 	downloads[36] 	11868
scalar tree_4_3_u03_r8_network.client[36] 	avg_time[36] 	0.004758507335
scalar tree_4_3_u03_r8_network.client[37] 	hdistance[37] 	3.0881035340966
scalar tree_4_3_u03_r8_network.client[37] 	downloads[37] 	12054
scalar tree_4_3_u03_r8_network.client[37] 	avg_time[37] 	0.004904320376
scalar tree_4_3_u03_r8_network.client[38] 	hdistance[38] 	3.1017468333471
scalar tree_4_3_u03_r8_network.client[38] 	downloads[38] 	12079
scalar tree_4_3_u03_r8_network.client[38] 	avg_time[38] 	0.004928881822
scalar tree_4_3_u03_r8_network.client[39] 	hdistance[39] 	3.0861363826058
scalar tree_4_3_u03_r8_network.client[39] 	downloads[39] 	11981
scalar tree_4_3_u03_r8_network.client[39] 	avg_time[39] 	0.004902592793
