version 2
run General-74-20160819-16:00:43-23511
attr a 0.9
attr cd lce
attr configname General
attr cr lru
attr datetime 20160819-16:00:43
attr experiment General
attr fsize 1
attr inifile hw5115/scenario_A/NRR-LCE.ini
attr iterationvars "$name=tree_4_3, $un=03, $rep=15, $cd=lce, $cr=lru, $fsize=1, $a=0.9, $sl=nrr, $ttl=1000, $variance=0.05"
attr iterationvars2 "$name=tree_4_3, $un=03, $rep=15, $cd=lce, $cr=lru, $fsize=1, $a=0.9, $sl=nrr, $ttl=1000, $variance=0.05, $repetition=0"
attr measurement "$name=tree_4_3, $un=03, $rep=15, $cd=lce, $cr=lru, $fsize=1, $a=0.9, $sl=nrr, $ttl=1000, $variance=0.05"
attr name tree_4_3
attr network networks.${name}_u${un}_r${rep}_network
attr processid 23511
attr rep 15
attr repetition 0
attr replication #0
attr resultdir results
attr runnumber 74
attr seedset 15
attr sl nrr
attr ttl 1000
attr un 03
attr variance 0.05

scalar . 	a 	0.9
scalar . 	fsize 	1
scalar . 	rep 	15
scalar . 	ttl 	1000
scalar . 	un 	03
scalar . 	variance 	0.05
scalar tree_4_3_u03_r15_network.content_distribution 	repo-0 	0
scalar tree_4_3_u03_r15_network.content_distribution 	client-0 	13
scalar tree_4_3_u03_r15_network.content_distribution 	client-1 	14
scalar tree_4_3_u03_r15_network.content_distribution 	client-2 	15
scalar tree_4_3_u03_r15_network.content_distribution 	client-3 	16
scalar tree_4_3_u03_r15_network.content_distribution 	client-4 	17
scalar tree_4_3_u03_r15_network.content_distribution 	client-5 	18
scalar tree_4_3_u03_r15_network.content_distribution 	client-6 	19
scalar tree_4_3_u03_r15_network.content_distribution 	client-7 	20
scalar tree_4_3_u03_r15_network.content_distribution 	client-8 	21
scalar tree_4_3_u03_r15_network.content_distribution 	client-9 	22
scalar tree_4_3_u03_r15_network.content_distribution 	client-10 	23
scalar tree_4_3_u03_r15_network.content_distribution 	client-11 	24
scalar tree_4_3_u03_r15_network.content_distribution 	client-12 	25
scalar tree_4_3_u03_r15_network.content_distribution 	client-13 	26
scalar tree_4_3_u03_r15_network.content_distribution 	client-14 	27
scalar tree_4_3_u03_r15_network.content_distribution 	client-15 	28
scalar tree_4_3_u03_r15_network.content_distribution 	client-16 	29
scalar tree_4_3_u03_r15_network.content_distribution 	client-17 	30
scalar tree_4_3_u03_r15_network.content_distribution 	client-18 	31
scalar tree_4_3_u03_r15_network.content_distribution 	client-19 	32
scalar tree_4_3_u03_r15_network.content_distribution 	client-20 	33
scalar tree_4_3_u03_r15_network.content_distribution 	client-21 	34
scalar tree_4_3_u03_r15_network.content_distribution 	client-22 	35
scalar tree_4_3_u03_r15_network.content_distribution 	client-23 	36
scalar tree_4_3_u03_r15_network.content_distribution 	client-24 	37
scalar tree_4_3_u03_r15_network.content_distribution 	client-25 	38
scalar tree_4_3_u03_r15_network.content_distribution 	client-26 	39
scalar tree_4_3_u03_r15_network.content_distribution 	repo-0_card 	100000
scalar tree_4_3_u03_r15_network.content_distribution 	repo-0_price 	0
scalar tree_4_3_u03_r15_network.statistics 	stabilization_time 	477.9
scalar tree_4_3_u03_r15_network.statistics 	p_hit 	0.18594061822175
scalar tree_4_3_u03_r15_network.statistics 	interests 	27773.05
scalar tree_4_3_u03_r15_network.statistics 	data 	19668.1
scalar tree_4_3_u03_r15_network.statistics 	hdistance 	3.0660979165109
scalar tree_4_3_u03_r15_network.statistics 	avg_time 	0.004853204244
scalar tree_4_3_u03_r15_network.statistics 	downloads 	324172
scalar tree_4_3_u03_r15_network.statistics 	total_cost 	0
scalar tree_4_3_u03_r15_network.statistics 	total_replicas 	100000
scalar tree_4_3_u03_r15_network.statistics 	inner_hit 	0.36048147279839
scalar tree_4_3_u03_r15_network.node[0].core_layer 	interests[0] 	208335
scalar tree_4_3_u03_r15_network.node[0].core_layer 	repo_load[0] 	207314
scalar tree_4_3_u03_r15_network.node[0].core_layer 	data[0] 	0
scalar tree_4_3_u03_r15_network.node[0].core_layer 	repo_int[0] 	207314
scalar tree_4_3_u03_r15_network.node[0].content_store 	p_hit[0] 	0.0049007607939136
scalar tree_4_3_u03_r15_network.node[0].content_store 	hits[0] 	1021
scalar tree_4_3_u03_r15_network.node[0].content_store 	misses[0] 	207314
scalar tree_4_3_u03_r15_network.node[0].content_store 	decision_yes[0] 	207314
scalar tree_4_3_u03_r15_network.node[0].content_store 	decision_no[0] 	0
scalar tree_4_3_u03_r15_network.node[0].content_store 	decision_ratio[0] 	1
scalar tree_4_3_u03_r15_network.node[1].core_layer 	interests[1] 	100103
scalar tree_4_3_u03_r15_network.node[1].core_layer 	data[1] 	99070
scalar tree_4_3_u03_r15_network.node[1].content_store 	p_hit[1] 	0.010299391626625
scalar tree_4_3_u03_r15_network.node[1].content_store 	hits[1] 	1031
scalar tree_4_3_u03_r15_network.node[1].content_store 	misses[1] 	99072
scalar tree_4_3_u03_r15_network.node[1].content_store 	decision_yes[1] 	99053
scalar tree_4_3_u03_r15_network.node[1].content_store 	decision_no[1] 	0
scalar tree_4_3_u03_r15_network.node[1].content_store 	decision_ratio[1] 	1
scalar tree_4_3_u03_r15_network.node[2].core_layer 	interests[2] 	84116
scalar tree_4_3_u03_r15_network.node[2].core_layer 	data[2] 	82573
scalar tree_4_3_u03_r15_network.node[2].content_store 	p_hit[2] 	0.018272385753008
scalar tree_4_3_u03_r15_network.node[2].content_store 	hits[2] 	1537
scalar tree_4_3_u03_r15_network.node[2].content_store 	misses[2] 	82579
scalar tree_4_3_u03_r15_network.node[2].content_store 	decision_yes[2] 	82562
scalar tree_4_3_u03_r15_network.node[2].content_store 	decision_no[2] 	0
scalar tree_4_3_u03_r15_network.node[2].content_store 	decision_ratio[2] 	1
scalar tree_4_3_u03_r15_network.node[3].core_layer 	interests[3] 	56510
scalar tree_4_3_u03_r15_network.node[3].core_layer 	data[3] 	55043
scalar tree_4_3_u03_r15_network.node[3].content_store 	p_hit[3] 	0.025889223146346
scalar tree_4_3_u03_r15_network.node[3].content_store 	hits[3] 	1463
scalar tree_4_3_u03_r15_network.node[3].content_store 	misses[3] 	55047
scalar tree_4_3_u03_r15_network.node[3].content_store 	decision_yes[3] 	55035
scalar tree_4_3_u03_r15_network.node[3].content_store 	decision_no[3] 	0
scalar tree_4_3_u03_r15_network.node[3].content_store 	decision_ratio[3] 	1
scalar tree_4_3_u03_r15_network.node[4].core_layer 	interests[4] 	30515
scalar tree_4_3_u03_r15_network.node[4].core_layer 	data[4] 	29167
scalar tree_4_3_u03_r15_network.node[4].content_store 	p_hit[4] 	0.044142225135179
scalar tree_4_3_u03_r15_network.node[4].content_store 	hits[4] 	1347
scalar tree_4_3_u03_r15_network.node[4].content_store 	misses[4] 	29168
scalar tree_4_3_u03_r15_network.node[4].content_store 	decision_yes[4] 	29166
scalar tree_4_3_u03_r15_network.node[4].content_store 	decision_no[4] 	0
scalar tree_4_3_u03_r15_network.node[4].content_store 	decision_ratio[4] 	1
scalar tree_4_3_u03_r15_network.node[5].core_layer 	interests[5] 	46210
scalar tree_4_3_u03_r15_network.node[5].core_layer 	data[5] 	42549
scalar tree_4_3_u03_r15_network.node[5].content_store 	p_hit[5] 	0.079181995239126
scalar tree_4_3_u03_r15_network.node[5].content_store 	hits[5] 	3659
scalar tree_4_3_u03_r15_network.node[5].content_store 	misses[5] 	42551
scalar tree_4_3_u03_r15_network.node[5].content_store 	decision_yes[5] 	42541
scalar tree_4_3_u03_r15_network.node[5].content_store 	decision_no[5] 	0
scalar tree_4_3_u03_r15_network.node[5].content_store 	decision_ratio[5] 	1
scalar tree_4_3_u03_r15_network.node[6].core_layer 	interests[6] 	27630
scalar tree_4_3_u03_r15_network.node[6].core_layer 	data[6] 	23950
scalar tree_4_3_u03_r15_network.node[6].content_store 	p_hit[6] 	0.13315237061165
scalar tree_4_3_u03_r15_network.node[6].content_store 	hits[6] 	3679
scalar tree_4_3_u03_r15_network.node[6].content_store 	misses[6] 	23951
scalar tree_4_3_u03_r15_network.node[6].content_store 	decision_yes[6] 	23949
scalar tree_4_3_u03_r15_network.node[6].content_store 	decision_no[6] 	0
scalar tree_4_3_u03_r15_network.node[6].content_store 	decision_ratio[6] 	1
scalar tree_4_3_u03_r15_network.node[7].core_layer 	interests[7] 	42383
scalar tree_4_3_u03_r15_network.node[7].core_layer 	data[7] 	40470
scalar tree_4_3_u03_r15_network.node[7].content_store 	p_hit[7] 	0.0450416440554
scalar tree_4_3_u03_r15_network.node[7].content_store 	hits[7] 	1909
scalar tree_4_3_u03_r15_network.node[7].content_store 	misses[7] 	40474
scalar tree_4_3_u03_r15_network.node[7].content_store 	decision_yes[7] 	40466
scalar tree_4_3_u03_r15_network.node[7].content_store 	decision_no[7] 	0
scalar tree_4_3_u03_r15_network.node[7].content_store 	decision_ratio[7] 	1
scalar tree_4_3_u03_r15_network.node[8].core_layer 	interests[8] 	32372
scalar tree_4_3_u03_r15_network.node[8].core_layer 	data[8] 	30576
scalar tree_4_3_u03_r15_network.node[8].content_store 	p_hit[8] 	0.055449153589522
scalar tree_4_3_u03_r15_network.node[8].content_store 	hits[8] 	1795
scalar tree_4_3_u03_r15_network.node[8].content_store 	misses[8] 	30577
scalar tree_4_3_u03_r15_network.node[8].content_store 	decision_yes[8] 	30575
scalar tree_4_3_u03_r15_network.node[8].content_store 	decision_no[8] 	0
scalar tree_4_3_u03_r15_network.node[8].content_store 	decision_ratio[8] 	1
scalar tree_4_3_u03_r15_network.node[9].core_layer 	interests[9] 	22723
scalar tree_4_3_u03_r15_network.node[9].core_layer 	data[9] 	20729
scalar tree_4_3_u03_r15_network.node[9].content_store 	p_hit[9] 	0.087708489195969
scalar tree_4_3_u03_r15_network.node[9].content_store 	hits[9] 	1993
scalar tree_4_3_u03_r15_network.node[9].content_store 	misses[9] 	20730
scalar tree_4_3_u03_r15_network.node[9].content_store 	decision_yes[9] 	20728
scalar tree_4_3_u03_r15_network.node[9].content_store 	decision_no[9] 	0
scalar tree_4_3_u03_r15_network.node[9].content_store 	decision_ratio[9] 	1
scalar tree_4_3_u03_r15_network.node[10].core_layer 	interests[10] 	32864
scalar tree_4_3_u03_r15_network.node[10].core_layer 	data[10] 	30482
scalar tree_4_3_u03_r15_network.node[10].content_store 	p_hit[10] 	0.072450097370983
scalar tree_4_3_u03_r15_network.node[10].content_store 	hits[10] 	2381
scalar tree_4_3_u03_r15_network.node[10].content_store 	misses[10] 	30483
scalar tree_4_3_u03_r15_network.node[10].content_store 	decision_yes[10] 	30480
scalar tree_4_3_u03_r15_network.node[10].content_store 	decision_no[10] 	0
scalar tree_4_3_u03_r15_network.node[10].content_store 	decision_ratio[10] 	1
scalar tree_4_3_u03_r15_network.node[11].core_layer 	interests[11] 	30978
scalar tree_4_3_u03_r15_network.node[11].core_layer 	data[11] 	29731
scalar tree_4_3_u03_r15_network.node[11].content_store 	p_hit[11] 	0.040254374071922
scalar tree_4_3_u03_r15_network.node[11].content_store 	hits[11] 	1247
scalar tree_4_3_u03_r15_network.node[11].content_store 	misses[11] 	29731
scalar tree_4_3_u03_r15_network.node[11].content_store 	decision_yes[11] 	29728
scalar tree_4_3_u03_r15_network.node[11].content_store 	decision_no[11] 	0
scalar tree_4_3_u03_r15_network.node[11].content_store 	decision_ratio[11] 	1
scalar tree_4_3_u03_r15_network.node[12].core_layer 	interests[12] 	33796
scalar tree_4_3_u03_r15_network.node[12].core_layer 	data[12] 	31266
scalar tree_4_3_u03_r15_network.node[12].content_store 	p_hit[12] 	0.074772162386081
scalar tree_4_3_u03_r15_network.node[12].content_store 	hits[12] 	2527
scalar tree_4_3_u03_r15_network.node[12].content_store 	misses[12] 	31269
scalar tree_4_3_u03_r15_network.node[12].content_store 	decision_yes[12] 	31266
scalar tree_4_3_u03_r15_network.node[12].content_store 	decision_no[12] 	0
scalar tree_4_3_u03_r15_network.node[12].content_store 	decision_ratio[12] 	1
scalar tree_4_3_u03_r15_network.node[13].core_layer 	interests[13] 	12915
scalar tree_4_3_u03_r15_network.node[13].core_layer 	data[13] 	10289
scalar tree_4_3_u03_r15_network.node[13].content_store 	p_hit[13] 	0.20309717382888
scalar tree_4_3_u03_r15_network.node[13].content_store 	hits[13] 	2623
scalar tree_4_3_u03_r15_network.node[13].content_store 	misses[13] 	10292
scalar tree_4_3_u03_r15_network.node[13].content_store 	decision_yes[13] 	10289
scalar tree_4_3_u03_r15_network.node[13].content_store 	decision_no[13] 	0
scalar tree_4_3_u03_r15_network.node[13].content_store 	decision_ratio[13] 	1
scalar tree_4_3_u03_r15_network.node[14].core_layer 	interests[14] 	12763
scalar tree_4_3_u03_r15_network.node[14].core_layer 	data[14] 	9980
scalar tree_4_3_u03_r15_network.node[14].content_store 	p_hit[14] 	0.21797383060409
scalar tree_4_3_u03_r15_network.node[14].content_store 	hits[14] 	2782
scalar tree_4_3_u03_r15_network.node[14].content_store 	misses[14] 	9981
scalar tree_4_3_u03_r15_network.node[14].content_store 	decision_yes[14] 	9980
scalar tree_4_3_u03_r15_network.node[14].content_store 	decision_no[14] 	0
scalar tree_4_3_u03_r15_network.node[14].content_store 	decision_ratio[14] 	1
scalar tree_4_3_u03_r15_network.node[15].core_layer 	interests[15] 	14389
scalar tree_4_3_u03_r15_network.node[15].core_layer 	data[15] 	10009
scalar tree_4_3_u03_r15_network.node[15].content_store 	p_hit[15] 	0.30439919382862
scalar tree_4_3_u03_r15_network.node[15].content_store 	hits[15] 	4380
scalar tree_4_3_u03_r15_network.node[15].content_store 	misses[15] 	10009
scalar tree_4_3_u03_r15_network.node[15].content_store 	decision_yes[15] 	10009
scalar tree_4_3_u03_r15_network.node[15].content_store 	decision_no[15] 	0
scalar tree_4_3_u03_r15_network.node[15].content_store 	decision_ratio[15] 	1
scalar tree_4_3_u03_r15_network.node[16].core_layer 	interests[16] 	13868
scalar tree_4_3_u03_r15_network.node[16].core_layer 	data[16] 	10033
scalar tree_4_3_u03_r15_network.node[16].content_store 	p_hit[16] 	0.27653591000865
scalar tree_4_3_u03_r15_network.node[16].content_store 	hits[16] 	3835
scalar tree_4_3_u03_r15_network.node[16].content_store 	misses[16] 	10033
scalar tree_4_3_u03_r15_network.node[16].content_store 	decision_yes[16] 	10033
scalar tree_4_3_u03_r15_network.node[16].content_store 	decision_no[16] 	0
scalar tree_4_3_u03_r15_network.node[16].content_store 	decision_ratio[16] 	1
scalar tree_4_3_u03_r15_network.node[17].core_layer 	interests[17] 	14018
scalar tree_4_3_u03_r15_network.node[17].core_layer 	data[17] 	10213
scalar tree_4_3_u03_r15_network.node[17].content_store 	p_hit[17] 	0.27129405050649
scalar tree_4_3_u03_r15_network.node[17].content_store 	hits[17] 	3803
scalar tree_4_3_u03_r15_network.node[17].content_store 	misses[17] 	10215
scalar tree_4_3_u03_r15_network.node[17].content_store 	decision_yes[17] 	10213
scalar tree_4_3_u03_r15_network.node[17].content_store 	decision_no[17] 	0
scalar tree_4_3_u03_r15_network.node[17].content_store 	decision_ratio[17] 	1
scalar tree_4_3_u03_r15_network.node[18].core_layer 	interests[18] 	13994
scalar tree_4_3_u03_r15_network.node[18].core_layer 	data[18] 	10153
scalar tree_4_3_u03_r15_network.node[18].content_store 	p_hit[18] 	0.27440331570673
scalar tree_4_3_u03_r15_network.node[18].content_store 	hits[18] 	3840
scalar tree_4_3_u03_r15_network.node[18].content_store 	misses[18] 	10154
scalar tree_4_3_u03_r15_network.node[18].content_store 	decision_yes[18] 	10153
scalar tree_4_3_u03_r15_network.node[18].content_store 	decision_no[18] 	0
scalar tree_4_3_u03_r15_network.node[18].content_store 	decision_ratio[18] 	1
scalar tree_4_3_u03_r15_network.node[19].core_layer 	interests[19] 	13229
scalar tree_4_3_u03_r15_network.node[19].core_layer 	data[19] 	10166
scalar tree_4_3_u03_r15_network.node[19].content_store 	p_hit[19] 	0.23138559225943
scalar tree_4_3_u03_r15_network.node[19].content_store 	hits[19] 	3061
scalar tree_4_3_u03_r15_network.node[19].content_store 	misses[19] 	10168
scalar tree_4_3_u03_r15_network.node[19].content_store 	decision_yes[19] 	10166
scalar tree_4_3_u03_r15_network.node[19].content_store 	decision_no[19] 	0
scalar tree_4_3_u03_r15_network.node[19].content_store 	decision_ratio[19] 	1
scalar tree_4_3_u03_r15_network.node[20].core_layer 	interests[20] 	15759
scalar tree_4_3_u03_r15_network.node[20].core_layer 	data[20] 	9856
scalar tree_4_3_u03_r15_network.node[20].content_store 	p_hit[20] 	0.37451614950187
scalar tree_4_3_u03_r15_network.node[20].content_store 	hits[20] 	5902
scalar tree_4_3_u03_r15_network.node[20].content_store 	misses[20] 	9857
scalar tree_4_3_u03_r15_network.node[20].content_store 	decision_yes[20] 	9856
scalar tree_4_3_u03_r15_network.node[20].content_store 	decision_no[20] 	0
scalar tree_4_3_u03_r15_network.node[20].content_store 	decision_ratio[20] 	1
scalar tree_4_3_u03_r15_network.node[21].core_layer 	interests[21] 	13212
scalar tree_4_3_u03_r15_network.node[21].core_layer 	data[21] 	10204
scalar tree_4_3_u03_r15_network.node[21].content_store 	p_hit[21] 	0.22759612473509
scalar tree_4_3_u03_r15_network.node[21].content_store 	hits[21] 	3007
scalar tree_4_3_u03_r15_network.node[21].content_store 	misses[21] 	10205
scalar tree_4_3_u03_r15_network.node[21].content_store 	decision_yes[21] 	10204
scalar tree_4_3_u03_r15_network.node[21].content_store 	decision_no[21] 	0
scalar tree_4_3_u03_r15_network.node[21].content_store 	decision_ratio[21] 	1
scalar tree_4_3_u03_r15_network.node[22].core_layer 	interests[22] 	13276
scalar tree_4_3_u03_r15_network.node[22].core_layer 	data[22] 	10088
scalar tree_4_3_u03_r15_network.node[22].content_store 	p_hit[22] 	0.24013257005122
scalar tree_4_3_u03_r15_network.node[22].content_store 	hits[22] 	3188
scalar tree_4_3_u03_r15_network.node[22].content_store 	misses[22] 	10088
scalar tree_4_3_u03_r15_network.node[22].content_store 	decision_yes[22] 	10088
scalar tree_4_3_u03_r15_network.node[22].content_store 	decision_no[22] 	0
scalar tree_4_3_u03_r15_network.node[22].content_store 	decision_ratio[22] 	1
scalar tree_4_3_u03_r15_network.node[23].core_layer 	interests[23] 	13317
scalar tree_4_3_u03_r15_network.node[23].core_layer 	data[23] 	10244
scalar tree_4_3_u03_r15_network.node[23].content_store 	p_hit[23] 	0.23068258616806
scalar tree_4_3_u03_r15_network.node[23].content_store 	hits[23] 	3072
scalar tree_4_3_u03_r15_network.node[23].content_store 	misses[23] 	10245
scalar tree_4_3_u03_r15_network.node[23].content_store 	decision_yes[23] 	10244
scalar tree_4_3_u03_r15_network.node[23].content_store 	decision_no[23] 	0
scalar tree_4_3_u03_r15_network.node[23].content_store 	decision_ratio[23] 	1
scalar tree_4_3_u03_r15_network.node[24].core_layer 	interests[24] 	13142
scalar tree_4_3_u03_r15_network.node[24].core_layer 	data[24] 	9924
scalar tree_4_3_u03_r15_network.node[24].content_store 	p_hit[24] 	0.24493988738396
scalar tree_4_3_u03_r15_network.node[24].content_store 	hits[24] 	3219
scalar tree_4_3_u03_r15_network.node[24].content_store 	misses[24] 	9923
scalar tree_4_3_u03_r15_network.node[24].content_store 	decision_yes[24] 	9924
scalar tree_4_3_u03_r15_network.node[24].content_store 	decision_no[24] 	0
scalar tree_4_3_u03_r15_network.node[24].content_store 	decision_ratio[24] 	1
scalar tree_4_3_u03_r15_network.node[25].core_layer 	interests[25] 	12952
scalar tree_4_3_u03_r15_network.node[25].core_layer 	data[25] 	9933
scalar tree_4_3_u03_r15_network.node[25].content_store 	p_hit[25] 	0.23301420630019
scalar tree_4_3_u03_r15_network.node[25].content_store 	hits[25] 	3018
scalar tree_4_3_u03_r15_network.node[25].content_store 	misses[25] 	9934
scalar tree_4_3_u03_r15_network.node[25].content_store 	decision_yes[25] 	9933
scalar tree_4_3_u03_r15_network.node[25].content_store 	decision_no[25] 	0
scalar tree_4_3_u03_r15_network.node[25].content_store 	decision_ratio[25] 	1
scalar tree_4_3_u03_r15_network.node[26].core_layer 	interests[26] 	12952
scalar tree_4_3_u03_r15_network.node[26].core_layer 	data[26] 	9859
scalar tree_4_3_u03_r15_network.node[26].content_store 	p_hit[26] 	0.23872760963558
scalar tree_4_3_u03_r15_network.node[26].content_store 	hits[26] 	3092
scalar tree_4_3_u03_r15_network.node[26].content_store 	misses[26] 	9860
scalar tree_4_3_u03_r15_network.node[26].content_store 	decision_yes[26] 	9859
scalar tree_4_3_u03_r15_network.node[26].content_store 	decision_no[26] 	0
scalar tree_4_3_u03_r15_network.node[26].content_store 	decision_ratio[26] 	1
scalar tree_4_3_u03_r15_network.node[27].core_layer 	interests[27] 	13036
scalar tree_4_3_u03_r15_network.node[27].core_layer 	data[27] 	10085
scalar tree_4_3_u03_r15_network.node[27].content_store 	p_hit[27] 	0.22637312058914
scalar tree_4_3_u03_r15_network.node[27].content_store 	hits[27] 	2951
scalar tree_4_3_u03_r15_network.node[27].content_store 	misses[27] 	10085
scalar tree_4_3_u03_r15_network.node[27].content_store 	decision_yes[27] 	10085
scalar tree_4_3_u03_r15_network.node[27].content_store 	decision_no[27] 	0
scalar tree_4_3_u03_r15_network.node[27].content_store 	decision_ratio[27] 	1
scalar tree_4_3_u03_r15_network.node[28].core_layer 	interests[28] 	14240
scalar tree_4_3_u03_r15_network.node[28].core_layer 	data[28] 	10008
scalar tree_4_3_u03_r15_network.node[28].content_store 	p_hit[28] 	0.29698033707865
scalar tree_4_3_u03_r15_network.node[28].content_store 	hits[28] 	4229
scalar tree_4_3_u03_r15_network.node[28].content_store 	misses[28] 	10011
scalar tree_4_3_u03_r15_network.node[28].content_store 	decision_yes[28] 	10008
scalar tree_4_3_u03_r15_network.node[28].content_store 	decision_no[28] 	0
scalar tree_4_3_u03_r15_network.node[28].content_store 	decision_ratio[28] 	1
scalar tree_4_3_u03_r15_network.node[29].core_layer 	interests[29] 	12692
scalar tree_4_3_u03_r15_network.node[29].core_layer 	data[29] 	10043
scalar tree_4_3_u03_r15_network.node[29].content_store 	p_hit[29] 	0.20863536085723
scalar tree_4_3_u03_r15_network.node[29].content_store 	hits[29] 	2648
scalar tree_4_3_u03_r15_network.node[29].content_store 	misses[29] 	10044
scalar tree_4_3_u03_r15_network.node[29].content_store 	decision_yes[29] 	10043
scalar tree_4_3_u03_r15_network.node[29].content_store 	decision_no[29] 	0
scalar tree_4_3_u03_r15_network.node[29].content_store 	decision_ratio[29] 	1
scalar tree_4_3_u03_r15_network.node[30].core_layer 	interests[30] 	12749
scalar tree_4_3_u03_r15_network.node[30].core_layer 	data[30] 	10059
scalar tree_4_3_u03_r15_network.node[30].content_store 	p_hit[30] 	0.21099694093654
scalar tree_4_3_u03_r15_network.node[30].content_store 	hits[30] 	2690
scalar tree_4_3_u03_r15_network.node[30].content_store 	misses[30] 	10059
scalar tree_4_3_u03_r15_network.node[30].content_store 	decision_yes[30] 	10059
scalar tree_4_3_u03_r15_network.node[30].content_store 	decision_no[30] 	0
scalar tree_4_3_u03_r15_network.node[30].content_store 	decision_ratio[30] 	1
scalar tree_4_3_u03_r15_network.node[31].core_layer 	interests[31] 	13370
scalar tree_4_3_u03_r15_network.node[31].core_layer 	data[31] 	10167
scalar tree_4_3_u03_r15_network.node[31].content_store 	p_hit[31] 	0.23941660433807
scalar tree_4_3_u03_r15_network.node[31].content_store 	hits[31] 	3201
scalar tree_4_3_u03_r15_network.node[31].content_store 	misses[31] 	10169
scalar tree_4_3_u03_r15_network.node[31].content_store 	decision_yes[31] 	10167
scalar tree_4_3_u03_r15_network.node[31].content_store 	decision_no[31] 	0
scalar tree_4_3_u03_r15_network.node[31].content_store 	decision_ratio[31] 	1
scalar tree_4_3_u03_r15_network.node[32].core_layer 	interests[32] 	13252
scalar tree_4_3_u03_r15_network.node[32].core_layer 	data[32] 	10086
scalar tree_4_3_u03_r15_network.node[32].content_store 	p_hit[32] 	0.23875641412617
scalar tree_4_3_u03_r15_network.node[32].content_store 	hits[32] 	3164
scalar tree_4_3_u03_r15_network.node[32].content_store 	misses[32] 	10088
scalar tree_4_3_u03_r15_network.node[32].content_store 	decision_yes[32] 	10086
scalar tree_4_3_u03_r15_network.node[32].content_store 	decision_no[32] 	0
scalar tree_4_3_u03_r15_network.node[32].content_store 	decision_ratio[32] 	1
scalar tree_4_3_u03_r15_network.node[33].core_layer 	interests[33] 	14246
scalar tree_4_3_u03_r15_network.node[33].core_layer 	data[33] 	9675
scalar tree_4_3_u03_r15_network.node[33].content_store 	p_hit[33] 	0.32093219149235
scalar tree_4_3_u03_r15_network.node[33].content_store 	hits[33] 	4572
scalar tree_4_3_u03_r15_network.node[33].content_store 	misses[33] 	9674
scalar tree_4_3_u03_r15_network.node[33].content_store 	decision_yes[33] 	9675
scalar tree_4_3_u03_r15_network.node[33].content_store 	decision_no[33] 	0
scalar tree_4_3_u03_r15_network.node[33].content_store 	decision_ratio[33] 	1
scalar tree_4_3_u03_r15_network.node[34].core_layer 	interests[34] 	12901
scalar tree_4_3_u03_r15_network.node[34].core_layer 	data[34] 	10163
scalar tree_4_3_u03_r15_network.node[34].content_store 	p_hit[34] 	0.21215409658166
scalar tree_4_3_u03_r15_network.node[34].content_store 	hits[34] 	2737
scalar tree_4_3_u03_r15_network.node[34].content_store 	misses[34] 	10164
scalar tree_4_3_u03_r15_network.node[34].content_store 	decision_yes[34] 	10163
scalar tree_4_3_u03_r15_network.node[34].content_store 	decision_no[34] 	0
scalar tree_4_3_u03_r15_network.node[34].content_store 	decision_ratio[34] 	1
scalar tree_4_3_u03_r15_network.node[35].core_layer 	interests[35] 	12886
scalar tree_4_3_u03_r15_network.node[35].core_layer 	data[35] 	10019
scalar tree_4_3_u03_r15_network.node[35].content_store 	p_hit[35] 	0.22241191991308
scalar tree_4_3_u03_r15_network.node[35].content_store 	hits[35] 	2866
scalar tree_4_3_u03_r15_network.node[35].content_store 	misses[35] 	10020
scalar tree_4_3_u03_r15_network.node[35].content_store 	decision_yes[35] 	10019
scalar tree_4_3_u03_r15_network.node[35].content_store 	decision_no[35] 	0
scalar tree_4_3_u03_r15_network.node[35].content_store 	decision_ratio[35] 	1
scalar tree_4_3_u03_r15_network.node[36].core_layer 	interests[36] 	14188
scalar tree_4_3_u03_r15_network.node[36].core_layer 	data[36] 	10044
scalar tree_4_3_u03_r15_network.node[36].content_store 	p_hit[36] 	0.29207781223569
scalar tree_4_3_u03_r15_network.node[36].content_store 	hits[36] 	4144
scalar tree_4_3_u03_r15_network.node[36].content_store 	misses[36] 	10044
scalar tree_4_3_u03_r15_network.node[36].content_store 	decision_yes[36] 	10044
scalar tree_4_3_u03_r15_network.node[36].content_store 	decision_no[36] 	0
scalar tree_4_3_u03_r15_network.node[36].content_store 	decision_ratio[36] 	1
scalar tree_4_3_u03_r15_network.node[37].core_layer 	interests[37] 	12942
scalar tree_4_3_u03_r15_network.node[37].core_layer 	data[37] 	9858
scalar tree_4_3_u03_r15_network.node[37].content_store 	p_hit[37] 	0.23829392675012
scalar tree_4_3_u03_r15_network.node[37].content_store 	hits[37] 	3084
scalar tree_4_3_u03_r15_network.node[37].content_store 	misses[37] 	9858
scalar tree_4_3_u03_r15_network.node[37].content_store 	decision_yes[37] 	9858
scalar tree_4_3_u03_r15_network.node[37].content_store 	decision_no[37] 	0
scalar tree_4_3_u03_r15_network.node[37].content_store 	decision_ratio[37] 	1
scalar tree_4_3_u03_r15_network.node[38].core_layer 	interests[38] 	13095
scalar tree_4_3_u03_r15_network.node[38].core_layer 	data[38] 	10053
scalar tree_4_3_u03_r15_network.node[38].content_store 	p_hit[38] 	0.23222604047346
scalar tree_4_3_u03_r15_network.node[38].content_store 	hits[38] 	3041
scalar tree_4_3_u03_r15_network.node[38].content_store 	misses[38] 	10054
scalar tree_4_3_u03_r15_network.node[38].content_store 	decision_yes[38] 	10053
scalar tree_4_3_u03_r15_network.node[38].content_store 	decision_no[38] 	0
scalar tree_4_3_u03_r15_network.node[38].content_store 	decision_ratio[38] 	1
scalar tree_4_3_u03_r15_network.node[39].core_layer 	interests[39] 	13004
scalar tree_4_3_u03_r15_network.node[39].core_layer 	data[39] 	9907
scalar tree_4_3_u03_r15_network.node[39].content_store 	p_hit[39] 	0.23815749000308
scalar tree_4_3_u03_r15_network.node[39].content_store 	hits[39] 	3097
scalar tree_4_3_u03_r15_network.node[39].content_store 	misses[39] 	9907
scalar tree_4_3_u03_r15_network.node[39].content_store 	decision_yes[39] 	9907
scalar tree_4_3_u03_r15_network.node[39].content_store 	decision_no[39] 	0
scalar tree_4_3_u03_r15_network.node[39].content_store 	decision_ratio[39] 	1
scalar tree_4_3_u03_r15_network.client[13] 	hdistance[13] 	3.1536751996049
scalar tree_4_3_u03_r15_network.client[13] 	downloads[13] 	12149
scalar tree_4_3_u03_r15_network.client[13] 	avg_time[13] 	0.004993303179
scalar tree_4_3_u03_r15_network.client[14] 	hdistance[14] 	3.1103771218329
scalar tree_4_3_u03_r15_network.client[14] 	downloads[14] 	11959
scalar tree_4_3_u03_r15_network.client[14] 	avg_time[14] 	0.004915717068
scalar tree_4_3_u03_r15_network.client[15] 	hdistance[15] 	2.9795816733068
scalar tree_4_3_u03_r15_network.client[15] 	downloads[15] 	12048
scalar tree_4_3_u03_r15_network.client[15] 	avg_time[15] 	0.00471292727
scalar tree_4_3_u03_r15_network.client[16] 	hdistance[16] 	3.0355177588794
scalar tree_4_3_u03_r15_network.client[16] 	downloads[16] 	11994
scalar tree_4_3_u03_r15_network.client[16] 	avg_time[16] 	0.004848838363
scalar tree_4_3_u03_r15_network.client[17] 	hdistance[17] 	3.0358873285702
scalar tree_4_3_u03_r15_network.client[17] 	downloads[17] 	12177
scalar tree_4_3_u03_r15_network.client[17] 	avg_time[17] 	0.004847277934
scalar tree_4_3_u03_r15_network.client[18] 	hdistance[18] 	3.0395540875309
scalar tree_4_3_u03_r15_network.client[18] 	downloads[18] 	12110
scalar tree_4_3_u03_r15_network.client[18] 	avg_time[18] 	0.004851176422
scalar tree_4_3_u03_r15_network.client[19] 	hdistance[19] 	3.0560237977194
scalar tree_4_3_u03_r15_network.client[19] 	downloads[19] 	12102
scalar tree_4_3_u03_r15_network.client[19] 	avg_time[19] 	0.004864031837
scalar tree_4_3_u03_r15_network.client[20] 	hdistance[20] 	2.9076086956522
scalar tree_4_3_u03_r15_network.client[20] 	downloads[20] 	11960
scalar tree_4_3_u03_r15_network.client[20] 	avg_time[20] 	0.004637968328
scalar tree_4_3_u03_r15_network.client[21] 	hdistance[21] 	3.0601417037403
scalar tree_4_3_u03_r15_network.client[21] 	downloads[21] 	12138
scalar tree_4_3_u03_r15_network.client[21] 	avg_time[21] 	0.00486801473
scalar tree_4_3_u03_r15_network.client[22] 	hdistance[22] 	3.0771078350174
scalar tree_4_3_u03_r15_network.client[22] 	downloads[22] 	12074
scalar tree_4_3_u03_r15_network.client[22] 	avg_time[22] 	0.004850102073
scalar tree_4_3_u03_r15_network.client[23] 	hdistance[23] 	3.0951523092041
scalar tree_4_3_u03_r15_network.client[23] 	downloads[23] 	12212
scalar tree_4_3_u03_r15_network.client[23] 	avg_time[23] 	0.004874720022
scalar tree_4_3_u03_r15_network.client[24] 	hdistance[24] 	3.0891590678825
scalar tree_4_3_u03_r15_network.client[24] 	downloads[24] 	11844
scalar tree_4_3_u03_r15_network.client[24] 	avg_time[24] 	0.004869162774
scalar tree_4_3_u03_r15_network.client[25] 	hdistance[25] 	3.1266261192769
scalar tree_4_3_u03_r15_network.client[25] 	downloads[25] 	11838
scalar tree_4_3_u03_r15_network.client[25] 	avg_time[25] 	0.004937105018
scalar tree_4_3_u03_r15_network.client[26] 	hdistance[26] 	3.0968014178412
scalar tree_4_3_u03_r15_network.client[26] 	downloads[26] 	11849
scalar tree_4_3_u03_r15_network.client[26] 	avg_time[26] 	0.00490399634
scalar tree_4_3_u03_r15_network.client[27] 	hdistance[27] 	3.1347978032951
scalar tree_4_3_u03_r15_network.client[27] 	downloads[27] 	12018
scalar tree_4_3_u03_r15_network.client[27] 	avg_time[27] 	0.00495574747
scalar tree_4_3_u03_r15_network.client[28] 	hdistance[28] 	3.0234596760728
scalar tree_4_3_u03_r15_network.client[28] 	downloads[28] 	11978
scalar tree_4_3_u03_r15_network.client[28] 	avg_time[28] 	0.004738052023
scalar tree_4_3_u03_r15_network.client[29] 	hdistance[29] 	3.1416506396856
scalar tree_4_3_u03_r15_network.client[29] 	downloads[29] 	11959
scalar tree_4_3_u03_r15_network.client[29] 	avg_time[29] 	0.00496760372
scalar tree_4_3_u03_r15_network.client[30] 	hdistance[30] 	3.1357375406962
scalar tree_4_3_u03_r15_network.client[30] 	downloads[30] 	11979
scalar tree_4_3_u03_r15_network.client[30] 	avg_time[30] 	0.004961679944
scalar tree_4_3_u03_r15_network.client[31] 	hdistance[31] 	3.0620339260837
scalar tree_4_3_u03_r15_network.client[31] 	downloads[31] 	12203
scalar tree_4_3_u03_r15_network.client[31] 	avg_time[31] 	0.004886800654
scalar tree_4_3_u03_r15_network.client[32] 	hdistance[32] 	3.0905301767256
scalar tree_4_3_u03_r15_network.client[32] 	downloads[32] 	11996
scalar tree_4_3_u03_r15_network.client[32] 	avg_time[32] 	0.004927440534
scalar tree_4_3_u03_r15_network.client[33] 	hdistance[33] 	2.9582691978793
scalar tree_4_3_u03_r15_network.client[33] 	downloads[33] 	11694
scalar tree_4_3_u03_r15_network.client[33] 	avg_time[33] 	0.004672972652
scalar tree_4_3_u03_r15_network.client[34] 	hdistance[34] 	3.1347030072074
scalar tree_4_3_u03_r15_network.client[34] 	downloads[34] 	12071
scalar tree_4_3_u03_r15_network.client[34] 	avg_time[34] 	0.004963371216
scalar tree_4_3_u03_r15_network.client[35] 	hdistance[35] 	3.1175340405981
scalar tree_4_3_u03_r15_network.client[35] 	downloads[35] 	11971
scalar tree_4_3_u03_r15_network.client[35] 	avg_time[35] 	0.004928374085
scalar tree_4_3_u03_r15_network.client[36] 	hdistance[36] 	3.0008287750704
scalar tree_4_3_u03_r15_network.client[36] 	downloads[36] 	12066
scalar tree_4_3_u03_r15_network.client[36] 	avg_time[36] 	0.004694604337
scalar tree_4_3_u03_r15_network.client[37] 	hdistance[37] 	3.0360406091371
scalar tree_4_3_u03_r15_network.client[37] 	downloads[37] 	11820
scalar tree_4_3_u03_r15_network.client[37] 	avg_time[37] 	0.00478231603
scalar tree_4_3_u03_r15_network.client[38] 	hdistance[38] 	3.0471956792688
scalar tree_4_3_u03_r15_network.client[38] 	downloads[38] 	12035
scalar tree_4_3_u03_r15_network.client[38] 	avg_time[38] 	0.004801417389
scalar tree_4_3_u03_r15_network.client[39] 	hdistance[39] 	3.0386485580148
scalar tree_4_3_u03_r15_network.client[39] 	downloads[39] 	11928
scalar tree_4_3_u03_r15_network.client[39] 	avg_time[39] 	0.004781793187
