version 2
run General-192-20160819-18:05:35-23511
attr a 0.9
attr cd lce
attr configname General
attr cr lru
attr datetime 20160819-18:05:35
attr experiment General
attr fsize 1
attr inifile hw5115/scenario_A/NRR-LCE.ini
attr iterationvars "$name=tree_4_3, $un=09, $rep=13, $cd=lce, $cr=lru, $fsize=1, $a=0.9, $sl=nrr, $ttl=1000, $variance=0.05"
attr iterationvars2 "$name=tree_4_3, $un=09, $rep=13, $cd=lce, $cr=lru, $fsize=1, $a=0.9, $sl=nrr, $ttl=1000, $variance=0.05, $repetition=0"
attr measurement "$name=tree_4_3, $un=09, $rep=13, $cd=lce, $cr=lru, $fsize=1, $a=0.9, $sl=nrr, $ttl=1000, $variance=0.05"
attr name tree_4_3
attr network networks.${name}_u${un}_r${rep}_network
attr processid 23511
attr rep 13
attr repetition 0
attr replication #0
attr resultdir results
attr runnumber 192
attr seedset 13
attr sl nrr
attr ttl 1000
attr un 09
attr variance 0.05

scalar . 	a 	0.9
scalar . 	fsize 	1
scalar . 	rep 	13
scalar . 	ttl 	1000
scalar . 	un 	09
scalar . 	variance 	0.05
scalar tree_4_3_u09_r13_network.content_distribution 	repo-0 	0
scalar tree_4_3_u09_r13_network.content_distribution 	client-0 	13
scalar tree_4_3_u09_r13_network.content_distribution 	client-1 	14
scalar tree_4_3_u09_r13_network.content_distribution 	client-2 	15
scalar tree_4_3_u09_r13_network.content_distribution 	client-3 	16
scalar tree_4_3_u09_r13_network.content_distribution 	client-4 	17
scalar tree_4_3_u09_r13_network.content_distribution 	client-5 	18
scalar tree_4_3_u09_r13_network.content_distribution 	client-6 	19
scalar tree_4_3_u09_r13_network.content_distribution 	client-7 	20
scalar tree_4_3_u09_r13_network.content_distribution 	client-8 	21
scalar tree_4_3_u09_r13_network.content_distribution 	client-9 	22
scalar tree_4_3_u09_r13_network.content_distribution 	client-10 	23
scalar tree_4_3_u09_r13_network.content_distribution 	client-11 	24
scalar tree_4_3_u09_r13_network.content_distribution 	client-12 	25
scalar tree_4_3_u09_r13_network.content_distribution 	client-13 	26
scalar tree_4_3_u09_r13_network.content_distribution 	client-14 	27
scalar tree_4_3_u09_r13_network.content_distribution 	client-15 	28
scalar tree_4_3_u09_r13_network.content_distribution 	client-16 	29
scalar tree_4_3_u09_r13_network.content_distribution 	client-17 	30
scalar tree_4_3_u09_r13_network.content_distribution 	client-18 	31
scalar tree_4_3_u09_r13_network.content_distribution 	client-19 	32
scalar tree_4_3_u09_r13_network.content_distribution 	client-20 	33
scalar tree_4_3_u09_r13_network.content_distribution 	client-21 	34
scalar tree_4_3_u09_r13_network.content_distribution 	client-22 	35
scalar tree_4_3_u09_r13_network.content_distribution 	client-23 	36
scalar tree_4_3_u09_r13_network.content_distribution 	client-24 	37
scalar tree_4_3_u09_r13_network.content_distribution 	client-25 	38
scalar tree_4_3_u09_r13_network.content_distribution 	client-26 	39
scalar tree_4_3_u09_r13_network.content_distribution 	repo-0_card 	100000
scalar tree_4_3_u09_r13_network.content_distribution 	repo-0_price 	0
scalar tree_4_3_u09_r13_network.statistics 	stabilization_time 	470.5
scalar tree_4_3_u09_r13_network.statistics 	p_hit 	0.20483370591179
scalar tree_4_3_u09_r13_network.statistics 	interests 	27247.325
scalar tree_4_3_u09_r13_network.statistics 	data 	19169.55
scalar tree_4_3_u09_r13_network.statistics 	hdistance 	2.9860399083157
scalar tree_4_3_u09_r13_network.statistics 	avg_time 	0.004746164987
scalar tree_4_3_u09_r13_network.statistics 	downloads 	323110
scalar tree_4_3_u09_r13_network.statistics 	total_cost 	0
scalar tree_4_3_u09_r13_network.statistics 	total_replicas 	100000
scalar tree_4_3_u09_r13_network.statistics 	inner_hit 	0.3871065581381
scalar tree_4_3_u09_r13_network.node[0].core_layer 	interests[0] 	198581
scalar tree_4_3_u09_r13_network.node[0].core_layer 	repo_load[0] 	198032
scalar tree_4_3_u09_r13_network.node[0].core_layer 	data[0] 	0
scalar tree_4_3_u09_r13_network.node[0].core_layer 	repo_int[0] 	198032
scalar tree_4_3_u09_r13_network.node[0].content_store 	p_hit[0] 	0.0027646149430207
scalar tree_4_3_u09_r13_network.node[0].content_store 	hits[0] 	549
scalar tree_4_3_u09_r13_network.node[0].content_store 	misses[0] 	198032
scalar tree_4_3_u09_r13_network.node[0].content_store 	decision_yes[0] 	198032
scalar tree_4_3_u09_r13_network.node[0].content_store 	decision_no[0] 	0
scalar tree_4_3_u09_r13_network.node[0].content_store 	decision_ratio[0] 	1
scalar tree_4_3_u09_r13_network.node[1].core_layer 	interests[1] 	110769
scalar tree_4_3_u09_r13_network.node[1].core_layer 	data[1] 	110016
scalar tree_4_3_u09_r13_network.node[1].content_store 	p_hit[1] 	0.0067708474392655
scalar tree_4_3_u09_r13_network.node[1].content_store 	hits[1] 	750
scalar tree_4_3_u09_r13_network.node[1].content_store 	misses[1] 	110019
scalar tree_4_3_u09_r13_network.node[1].content_store 	decision_yes[1] 	110008
scalar tree_4_3_u09_r13_network.node[1].content_store 	decision_no[1] 	0
scalar tree_4_3_u09_r13_network.node[1].content_store 	decision_ratio[1] 	1
scalar tree_4_3_u09_r13_network.node[2].core_layer 	interests[2] 	103067
scalar tree_4_3_u09_r13_network.node[2].core_layer 	data[2] 	101639
scalar tree_4_3_u09_r13_network.node[2].content_store 	p_hit[2] 	0.01380655301891
scalar tree_4_3_u09_r13_network.node[2].content_store 	hits[2] 	1423
scalar tree_4_3_u09_r13_network.node[2].content_store 	misses[2] 	101644
scalar tree_4_3_u09_r13_network.node[2].content_store 	decision_yes[2] 	101630
scalar tree_4_3_u09_r13_network.node[2].content_store 	decision_no[2] 	0
scalar tree_4_3_u09_r13_network.node[2].content_store 	decision_ratio[2] 	1
scalar tree_4_3_u09_r13_network.node[3].core_layer 	interests[3] 	13985
scalar tree_4_3_u09_r13_network.node[3].core_layer 	data[3] 	12116
scalar tree_4_3_u09_r13_network.node[3].content_store 	p_hit[3] 	0.13364318913121
scalar tree_4_3_u09_r13_network.node[3].content_store 	hits[3] 	1869
scalar tree_4_3_u09_r13_network.node[3].content_store 	misses[3] 	12116
scalar tree_4_3_u09_r13_network.node[3].content_store 	decision_yes[3] 	12116
scalar tree_4_3_u09_r13_network.node[3].content_store 	decision_no[3] 	0
scalar tree_4_3_u09_r13_network.node[3].content_store 	decision_ratio[3] 	1
scalar tree_4_3_u09_r13_network.node[4].core_layer 	interests[4] 	46648
scalar tree_4_3_u09_r13_network.node[4].core_layer 	data[4] 	45219
scalar tree_4_3_u09_r13_network.node[4].content_store 	p_hit[4] 	0.030590807751672
scalar tree_4_3_u09_r13_network.node[4].content_store 	hits[4] 	1427
scalar tree_4_3_u09_r13_network.node[4].content_store 	misses[4] 	45221
scalar tree_4_3_u09_r13_network.node[4].content_store 	decision_yes[4] 	45216
scalar tree_4_3_u09_r13_network.node[4].content_store 	decision_no[4] 	0
scalar tree_4_3_u09_r13_network.node[4].content_store 	decision_ratio[4] 	1
scalar tree_4_3_u09_r13_network.node[5].core_layer 	interests[5] 	37205
scalar tree_4_3_u09_r13_network.node[5].core_layer 	data[5] 	33935
scalar tree_4_3_u09_r13_network.node[5].content_store 	p_hit[5] 	0.08781077812122
scalar tree_4_3_u09_r13_network.node[5].content_store 	hits[5] 	3267
scalar tree_4_3_u09_r13_network.node[5].content_store 	misses[5] 	33938
scalar tree_4_3_u09_r13_network.node[5].content_store 	decision_yes[5] 	33933
scalar tree_4_3_u09_r13_network.node[5].content_store 	decision_no[5] 	0
scalar tree_4_3_u09_r13_network.node[5].content_store 	decision_ratio[5] 	1
scalar tree_4_3_u09_r13_network.node[6].core_layer 	interests[6] 	14760
scalar tree_4_3_u09_r13_network.node[6].core_layer 	data[6] 	11390
scalar tree_4_3_u09_r13_network.node[6].content_store 	p_hit[6] 	0.22831978319783
scalar tree_4_3_u09_r13_network.node[6].content_store 	hits[6] 	3370
scalar tree_4_3_u09_r13_network.node[6].content_store 	misses[6] 	11390
scalar tree_4_3_u09_r13_network.node[6].content_store 	decision_yes[6] 	11390
scalar tree_4_3_u09_r13_network.node[6].content_store 	decision_no[6] 	0
scalar tree_4_3_u09_r13_network.node[6].content_store 	decision_ratio[6] 	1
scalar tree_4_3_u09_r13_network.node[7].core_layer 	interests[7] 	48504
scalar tree_4_3_u09_r13_network.node[7].core_layer 	data[7] 	46836
scalar tree_4_3_u09_r13_network.node[7].content_store 	p_hit[7] 	0.034347682665347
scalar tree_4_3_u09_r13_network.node[7].content_store 	hits[7] 	1666
scalar tree_4_3_u09_r13_network.node[7].content_store 	misses[7] 	46838
scalar tree_4_3_u09_r13_network.node[7].content_store 	decision_yes[7] 	46835
scalar tree_4_3_u09_r13_network.node[7].content_store 	decision_no[7] 	0
scalar tree_4_3_u09_r13_network.node[7].content_store 	decision_ratio[7] 	1
scalar tree_4_3_u09_r13_network.node[8].core_layer 	interests[8] 	30906
scalar tree_4_3_u09_r13_network.node[8].core_layer 	data[8] 	28814
scalar tree_4_3_u09_r13_network.node[8].content_store 	p_hit[8] 	0.067689121853362
scalar tree_4_3_u09_r13_network.node[8].content_store 	hits[8] 	2092
scalar tree_4_3_u09_r13_network.node[8].content_store 	misses[8] 	28814
scalar tree_4_3_u09_r13_network.node[8].content_store 	decision_yes[8] 	28813
scalar tree_4_3_u09_r13_network.node[8].content_store 	decision_no[8] 	0
scalar tree_4_3_u09_r13_network.node[8].content_store 	decision_ratio[8] 	1
scalar tree_4_3_u09_r13_network.node[9].core_layer 	interests[9] 	18933
scalar tree_4_3_u09_r13_network.node[9].core_layer 	data[9] 	14266
scalar tree_4_3_u09_r13_network.node[9].content_store 	p_hit[9] 	0.24639518301379
scalar tree_4_3_u09_r13_network.node[9].content_store 	hits[9] 	4665
scalar tree_4_3_u09_r13_network.node[9].content_store 	misses[9] 	14268
scalar tree_4_3_u09_r13_network.node[9].content_store 	decision_yes[9] 	14265
scalar tree_4_3_u09_r13_network.node[9].content_store 	decision_no[9] 	0
scalar tree_4_3_u09_r13_network.node[9].content_store 	decision_ratio[9] 	1
scalar tree_4_3_u09_r13_network.node[10].core_layer 	interests[10] 	50598
scalar tree_4_3_u09_r13_network.node[10].core_layer 	data[10] 	48168
scalar tree_4_3_u09_r13_network.node[10].content_store 	p_hit[10] 	0.047946559152536
scalar tree_4_3_u09_r13_network.node[10].content_store 	hits[10] 	2426
scalar tree_4_3_u09_r13_network.node[10].content_store 	misses[10] 	48172
scalar tree_4_3_u09_r13_network.node[10].content_store 	decision_yes[10] 	48163
scalar tree_4_3_u09_r13_network.node[10].content_store 	decision_no[10] 	0
scalar tree_4_3_u09_r13_network.node[10].content_store 	decision_ratio[10] 	1
scalar tree_4_3_u09_r13_network.node[11].core_layer 	interests[11] 	34635
scalar tree_4_3_u09_r13_network.node[11].core_layer 	data[11] 	31905
scalar tree_4_3_u09_r13_network.node[11].content_store 	p_hit[11] 	0.078735383282806
scalar tree_4_3_u09_r13_network.node[11].content_store 	hits[11] 	2727
scalar tree_4_3_u09_r13_network.node[11].content_store 	misses[11] 	31908
scalar tree_4_3_u09_r13_network.node[11].content_store 	decision_yes[11] 	31905
scalar tree_4_3_u09_r13_network.node[11].content_store 	decision_no[11] 	0
scalar tree_4_3_u09_r13_network.node[11].content_store 	decision_ratio[11] 	1
scalar tree_4_3_u09_r13_network.node[12].core_layer 	interests[12] 	14193
scalar tree_4_3_u09_r13_network.node[12].core_layer 	data[12] 	11282
scalar tree_4_3_u09_r13_network.node[12].content_store 	p_hit[12] 	0.2051011061791
scalar tree_4_3_u09_r13_network.node[12].content_store 	hits[12] 	2911
scalar tree_4_3_u09_r13_network.node[12].content_store 	misses[12] 	11282
scalar tree_4_3_u09_r13_network.node[12].content_store 	decision_yes[12] 	11282
scalar tree_4_3_u09_r13_network.node[12].content_store 	decision_no[12] 	0
scalar tree_4_3_u09_r13_network.node[12].content_store 	decision_ratio[12] 	1
scalar tree_4_3_u09_r13_network.node[13].core_layer 	interests[13] 	12919
scalar tree_4_3_u09_r13_network.node[13].core_layer 	data[13] 	10042
scalar tree_4_3_u09_r13_network.node[13].content_store 	p_hit[13] 	0.22261784967877
scalar tree_4_3_u09_r13_network.node[13].content_store 	hits[13] 	2876
scalar tree_4_3_u09_r13_network.node[13].content_store 	misses[13] 	10043
scalar tree_4_3_u09_r13_network.node[13].content_store 	decision_yes[13] 	10042
scalar tree_4_3_u09_r13_network.node[13].content_store 	decision_no[13] 	0
scalar tree_4_3_u09_r13_network.node[13].content_store 	decision_ratio[13] 	1
scalar tree_4_3_u09_r13_network.node[14].core_layer 	interests[14] 	14293
scalar tree_4_3_u09_r13_network.node[14].core_layer 	data[14] 	10094
scalar tree_4_3_u09_r13_network.node[14].content_store 	p_hit[14] 	0.29378017211222
scalar tree_4_3_u09_r13_network.node[14].content_store 	hits[14] 	4199
scalar tree_4_3_u09_r13_network.node[14].content_store 	misses[14] 	10094
scalar tree_4_3_u09_r13_network.node[14].content_store 	decision_yes[14] 	10094
scalar tree_4_3_u09_r13_network.node[14].content_store 	decision_no[14] 	0
scalar tree_4_3_u09_r13_network.node[14].content_store 	decision_ratio[14] 	1
scalar tree_4_3_u09_r13_network.node[15].core_layer 	interests[15] 	13504
scalar tree_4_3_u09_r13_network.node[15].core_layer 	data[15] 	10042
scalar tree_4_3_u09_r13_network.node[15].content_store 	p_hit[15] 	0.25636848341232
scalar tree_4_3_u09_r13_network.node[15].content_store 	hits[15] 	3462
scalar tree_4_3_u09_r13_network.node[15].content_store 	misses[15] 	10042
scalar tree_4_3_u09_r13_network.node[15].content_store 	decision_yes[15] 	10042
scalar tree_4_3_u09_r13_network.node[15].content_store 	decision_no[15] 	0
scalar tree_4_3_u09_r13_network.node[15].content_store 	decision_ratio[15] 	1
scalar tree_4_3_u09_r13_network.node[16].core_layer 	interests[16] 	14352
scalar tree_4_3_u09_r13_network.node[16].core_layer 	data[16] 	9966
scalar tree_4_3_u09_r13_network.node[16].content_store 	p_hit[16] 	0.30560200668896
scalar tree_4_3_u09_r13_network.node[16].content_store 	hits[16] 	4386
scalar tree_4_3_u09_r13_network.node[16].content_store 	misses[16] 	9966
scalar tree_4_3_u09_r13_network.node[16].content_store 	decision_yes[16] 	9966
scalar tree_4_3_u09_r13_network.node[16].content_store 	decision_no[16] 	0
scalar tree_4_3_u09_r13_network.node[16].content_store 	decision_ratio[16] 	1
scalar tree_4_3_u09_r13_network.node[17].core_layer 	interests[17] 	13341
scalar tree_4_3_u09_r13_network.node[17].core_layer 	data[17] 	9933
scalar tree_4_3_u09_r13_network.node[17].content_store 	p_hit[17] 	0.25530320065962
scalar tree_4_3_u09_r13_network.node[17].content_store 	hits[17] 	3406
scalar tree_4_3_u09_r13_network.node[17].content_store 	misses[17] 	9935
scalar tree_4_3_u09_r13_network.node[17].content_store 	decision_yes[17] 	9933
scalar tree_4_3_u09_r13_network.node[17].content_store 	decision_no[17] 	0
scalar tree_4_3_u09_r13_network.node[17].content_store 	decision_ratio[17] 	1
scalar tree_4_3_u09_r13_network.node[18].core_layer 	interests[18] 	14225
scalar tree_4_3_u09_r13_network.node[18].core_layer 	data[18] 	10126
scalar tree_4_3_u09_r13_network.node[18].content_store 	p_hit[18] 	0.28808435852373
scalar tree_4_3_u09_r13_network.node[18].content_store 	hits[18] 	4098
scalar tree_4_3_u09_r13_network.node[18].content_store 	misses[18] 	10127
scalar tree_4_3_u09_r13_network.node[18].content_store 	decision_yes[18] 	10126
scalar tree_4_3_u09_r13_network.node[18].content_store 	decision_no[18] 	0
scalar tree_4_3_u09_r13_network.node[18].content_store 	decision_ratio[18] 	1
scalar tree_4_3_u09_r13_network.node[19].core_layer 	interests[19] 	13407
scalar tree_4_3_u09_r13_network.node[19].core_layer 	data[19] 	9965
scalar tree_4_3_u09_r13_network.node[19].content_store 	p_hit[19] 	0.25665697023943
scalar tree_4_3_u09_r13_network.node[19].content_store 	hits[19] 	3441
scalar tree_4_3_u09_r13_network.node[19].content_store 	misses[19] 	9966
scalar tree_4_3_u09_r13_network.node[19].content_store 	decision_yes[19] 	9965
scalar tree_4_3_u09_r13_network.node[19].content_store 	decision_no[19] 	0
scalar tree_4_3_u09_r13_network.node[19].content_store 	decision_ratio[19] 	1
scalar tree_4_3_u09_r13_network.node[20].core_layer 	interests[20] 	14029
scalar tree_4_3_u09_r13_network.node[20].core_layer 	data[20] 	10054
scalar tree_4_3_u09_r13_network.node[20].content_store 	p_hit[20] 	0.28334164944044
scalar tree_4_3_u09_r13_network.node[20].content_store 	hits[20] 	3975
scalar tree_4_3_u09_r13_network.node[20].content_store 	misses[20] 	10054
scalar tree_4_3_u09_r13_network.node[20].content_store 	decision_yes[20] 	10054
scalar tree_4_3_u09_r13_network.node[20].content_store 	decision_no[20] 	0
scalar tree_4_3_u09_r13_network.node[20].content_store 	decision_ratio[20] 	1
scalar tree_4_3_u09_r13_network.node[21].core_layer 	interests[21] 	12157
scalar tree_4_3_u09_r13_network.node[21].core_layer 	data[21] 	10124
scalar tree_4_3_u09_r13_network.node[21].content_store 	p_hit[21] 	0.16722875709468
scalar tree_4_3_u09_r13_network.node[21].content_store 	hits[21] 	2033
scalar tree_4_3_u09_r13_network.node[21].content_store 	misses[21] 	10124
scalar tree_4_3_u09_r13_network.node[21].content_store 	decision_yes[21] 	10124
scalar tree_4_3_u09_r13_network.node[21].content_store 	decision_no[21] 	0
scalar tree_4_3_u09_r13_network.node[21].content_store 	decision_ratio[21] 	1
scalar tree_4_3_u09_r13_network.node[22].core_layer 	interests[22] 	13172
scalar tree_4_3_u09_r13_network.node[22].core_layer 	data[22] 	10147
scalar tree_4_3_u09_r13_network.node[22].content_store 	p_hit[22] 	0.22965381111449
scalar tree_4_3_u09_r13_network.node[22].content_store 	hits[22] 	3025
scalar tree_4_3_u09_r13_network.node[22].content_store 	misses[22] 	10147
scalar tree_4_3_u09_r13_network.node[22].content_store 	decision_yes[22] 	10147
scalar tree_4_3_u09_r13_network.node[22].content_store 	decision_no[22] 	0
scalar tree_4_3_u09_r13_network.node[22].content_store 	decision_ratio[22] 	1
scalar tree_4_3_u09_r13_network.node[23].core_layer 	interests[23] 	13754
scalar tree_4_3_u09_r13_network.node[23].core_layer 	data[23] 	9920
scalar tree_4_3_u09_r13_network.node[23].content_store 	p_hit[23] 	0.27875527119383
scalar tree_4_3_u09_r13_network.node[23].content_store 	hits[23] 	3834
scalar tree_4_3_u09_r13_network.node[23].content_store 	misses[23] 	9920
scalar tree_4_3_u09_r13_network.node[23].content_store 	decision_yes[23] 	9920
scalar tree_4_3_u09_r13_network.node[23].content_store 	decision_no[23] 	0
scalar tree_4_3_u09_r13_network.node[23].content_store 	decision_ratio[23] 	1
scalar tree_4_3_u09_r13_network.node[24].core_layer 	interests[24] 	13674
scalar tree_4_3_u09_r13_network.node[24].core_layer 	data[24] 	9845
scalar tree_4_3_u09_r13_network.node[24].content_store 	p_hit[24] 	0.28002047681732
scalar tree_4_3_u09_r13_network.node[24].content_store 	hits[24] 	3829
scalar tree_4_3_u09_r13_network.node[24].content_store 	misses[24] 	9845
scalar tree_4_3_u09_r13_network.node[24].content_store 	decision_yes[24] 	9845
scalar tree_4_3_u09_r13_network.node[24].content_store 	decision_no[24] 	0
scalar tree_4_3_u09_r13_network.node[24].content_store 	decision_ratio[24] 	1
scalar tree_4_3_u09_r13_network.node[25].core_layer 	interests[25] 	13817
scalar tree_4_3_u09_r13_network.node[25].core_layer 	data[25] 	10050
scalar tree_4_3_u09_r13_network.node[25].content_store 	p_hit[25] 	0.27263515958602
scalar tree_4_3_u09_r13_network.node[25].content_store 	hits[25] 	3767
scalar tree_4_3_u09_r13_network.node[25].content_store 	misses[25] 	10050
scalar tree_4_3_u09_r13_network.node[25].content_store 	decision_yes[25] 	10050
scalar tree_4_3_u09_r13_network.node[25].content_store 	decision_no[25] 	0
scalar tree_4_3_u09_r13_network.node[25].content_store 	decision_ratio[25] 	1
scalar tree_4_3_u09_r13_network.node[26].core_layer 	interests[26] 	12943
scalar tree_4_3_u09_r13_network.node[26].core_layer 	data[26] 	10005
scalar tree_4_3_u09_r13_network.node[26].content_store 	p_hit[26] 	0.22691802518736
scalar tree_4_3_u09_r13_network.node[26].content_store 	hits[26] 	2937
scalar tree_4_3_u09_r13_network.node[26].content_store 	misses[26] 	10006
scalar tree_4_3_u09_r13_network.node[26].content_store 	decision_yes[26] 	10005
scalar tree_4_3_u09_r13_network.node[26].content_store 	decision_no[26] 	0
scalar tree_4_3_u09_r13_network.node[26].content_store 	decision_ratio[26] 	1
scalar tree_4_3_u09_r13_network.node[27].core_layer 	interests[27] 	13911
scalar tree_4_3_u09_r13_network.node[27].core_layer 	data[27] 	10173
scalar tree_4_3_u09_r13_network.node[27].content_store 	p_hit[27] 	0.26863633096111
scalar tree_4_3_u09_r13_network.node[27].content_store 	hits[27] 	3737
scalar tree_4_3_u09_r13_network.node[27].content_store 	misses[27] 	10174
scalar tree_4_3_u09_r13_network.node[27].content_store 	decision_yes[27] 	10173
scalar tree_4_3_u09_r13_network.node[27].content_store 	decision_no[27] 	0
scalar tree_4_3_u09_r13_network.node[27].content_store 	decision_ratio[27] 	1
scalar tree_4_3_u09_r13_network.node[28].core_layer 	interests[28] 	14247
scalar tree_4_3_u09_r13_network.node[28].core_layer 	data[28] 	10196
scalar tree_4_3_u09_r13_network.node[28].content_store 	p_hit[28] 	0.28441075314101
scalar tree_4_3_u09_r13_network.node[28].content_store 	hits[28] 	4052
scalar tree_4_3_u09_r13_network.node[28].content_store 	misses[28] 	10195
scalar tree_4_3_u09_r13_network.node[28].content_store 	decision_yes[28] 	10196
scalar tree_4_3_u09_r13_network.node[28].content_store 	decision_no[28] 	0
scalar tree_4_3_u09_r13_network.node[28].content_store 	decision_ratio[28] 	1
scalar tree_4_3_u09_r13_network.node[29].core_layer 	interests[29] 	13822
scalar tree_4_3_u09_r13_network.node[29].core_layer 	data[29] 	9975
scalar tree_4_3_u09_r13_network.node[29].content_store 	p_hit[29] 	0.2783244103603
scalar tree_4_3_u09_r13_network.node[29].content_store 	hits[29] 	3847
scalar tree_4_3_u09_r13_network.node[29].content_store 	misses[29] 	9975
scalar tree_4_3_u09_r13_network.node[29].content_store 	decision_yes[29] 	9975
scalar tree_4_3_u09_r13_network.node[29].content_store 	decision_no[29] 	0
scalar tree_4_3_u09_r13_network.node[29].content_store 	decision_ratio[29] 	1
scalar tree_4_3_u09_r13_network.node[30].core_layer 	interests[30] 	12545
scalar tree_4_3_u09_r13_network.node[30].core_layer 	data[30] 	10094
scalar tree_4_3_u09_r13_network.node[30].content_store 	p_hit[30] 	0.19537664408131
scalar tree_4_3_u09_r13_network.node[30].content_store 	hits[30] 	2451
scalar tree_4_3_u09_r13_network.node[30].content_store 	misses[30] 	10094
scalar tree_4_3_u09_r13_network.node[30].content_store 	decision_yes[30] 	10094
scalar tree_4_3_u09_r13_network.node[30].content_store 	decision_no[30] 	0
scalar tree_4_3_u09_r13_network.node[30].content_store 	decision_ratio[30] 	1
scalar tree_4_3_u09_r13_network.node[31].core_layer 	interests[31] 	13267
scalar tree_4_3_u09_r13_network.node[31].core_layer 	data[31] 	10045
scalar tree_4_3_u09_r13_network.node[31].content_store 	p_hit[31] 	0.24270746966157
scalar tree_4_3_u09_r13_network.node[31].content_store 	hits[31] 	3220
scalar tree_4_3_u09_r13_network.node[31].content_store 	misses[31] 	10047
scalar tree_4_3_u09_r13_network.node[31].content_store 	decision_yes[31] 	10045
scalar tree_4_3_u09_r13_network.node[31].content_store 	decision_no[31] 	0
scalar tree_4_3_u09_r13_network.node[31].content_store 	decision_ratio[31] 	1
scalar tree_4_3_u09_r13_network.node[32].core_layer 	interests[32] 	14362
scalar tree_4_3_u09_r13_network.node[32].core_layer 	data[32] 	10035
scalar tree_4_3_u09_r13_network.node[32].content_store 	p_hit[32] 	0.3013507867985
scalar tree_4_3_u09_r13_network.node[32].content_store 	hits[32] 	4328
scalar tree_4_3_u09_r13_network.node[32].content_store 	misses[32] 	10034
scalar tree_4_3_u09_r13_network.node[32].content_store 	decision_yes[32] 	10035
scalar tree_4_3_u09_r13_network.node[32].content_store 	decision_no[32] 	0
scalar tree_4_3_u09_r13_network.node[32].content_store 	decision_ratio[32] 	1
scalar tree_4_3_u09_r13_network.node[33].core_layer 	interests[33] 	13813
scalar tree_4_3_u09_r13_network.node[33].core_layer 	data[33] 	9937
scalar tree_4_3_u09_r13_network.node[33].content_store 	p_hit[33] 	0.28060522696011
scalar tree_4_3_u09_r13_network.node[33].content_store 	hits[33] 	3876
scalar tree_4_3_u09_r13_network.node[33].content_store 	misses[33] 	9937
scalar tree_4_3_u09_r13_network.node[33].content_store 	decision_yes[33] 	9937
scalar tree_4_3_u09_r13_network.node[33].content_store 	decision_no[33] 	0
scalar tree_4_3_u09_r13_network.node[33].content_store 	decision_ratio[33] 	1
scalar tree_4_3_u09_r13_network.node[34].core_layer 	interests[34] 	14495
scalar tree_4_3_u09_r13_network.node[34].core_layer 	data[34] 	10054
scalar tree_4_3_u09_r13_network.node[34].content_store 	p_hit[34] 	0.30638151086582
scalar tree_4_3_u09_r13_network.node[34].content_store 	hits[34] 	4441
scalar tree_4_3_u09_r13_network.node[34].content_store 	misses[34] 	10054
scalar tree_4_3_u09_r13_network.node[34].content_store 	decision_yes[34] 	10054
scalar tree_4_3_u09_r13_network.node[34].content_store 	decision_no[34] 	0
scalar tree_4_3_u09_r13_network.node[34].content_store 	decision_ratio[34] 	1
scalar tree_4_3_u09_r13_network.node[35].core_layer 	interests[35] 	13259
scalar tree_4_3_u09_r13_network.node[35].core_layer 	data[35] 	10157
scalar tree_4_3_u09_r13_network.node[35].content_store 	p_hit[35] 	0.2338788747266
scalar tree_4_3_u09_r13_network.node[35].content_store 	hits[35] 	3101
scalar tree_4_3_u09_r13_network.node[35].content_store 	misses[35] 	10158
scalar tree_4_3_u09_r13_network.node[35].content_store 	decision_yes[35] 	10157
scalar tree_4_3_u09_r13_network.node[35].content_store 	decision_no[35] 	0
scalar tree_4_3_u09_r13_network.node[35].content_store 	decision_ratio[35] 	1
scalar tree_4_3_u09_r13_network.node[36].core_layer 	interests[36] 	13802
scalar tree_4_3_u09_r13_network.node[36].core_layer 	data[36] 	9999
scalar tree_4_3_u09_r13_network.node[36].content_store 	p_hit[36] 	0.27553977684394
scalar tree_4_3_u09_r13_network.node[36].content_store 	hits[36] 	3803
scalar tree_4_3_u09_r13_network.node[36].content_store 	misses[36] 	9999
scalar tree_4_3_u09_r13_network.node[36].content_store 	decision_yes[36] 	9999
scalar tree_4_3_u09_r13_network.node[36].content_store 	decision_no[36] 	0
scalar tree_4_3_u09_r13_network.node[36].content_store 	decision_ratio[36] 	1
scalar tree_4_3_u09_r13_network.node[37].core_layer 	interests[37] 	13965
scalar tree_4_3_u09_r13_network.node[37].core_layer 	data[37] 	10118
scalar tree_4_3_u09_r13_network.node[37].content_store 	p_hit[37] 	0.27554600787683
scalar tree_4_3_u09_r13_network.node[37].content_store 	hits[37] 	3848
scalar tree_4_3_u09_r13_network.node[37].content_store 	misses[37] 	10117
scalar tree_4_3_u09_r13_network.node[37].content_store 	decision_yes[37] 	10118
scalar tree_4_3_u09_r13_network.node[37].content_store 	decision_no[37] 	0
scalar tree_4_3_u09_r13_network.node[37].content_store 	decision_ratio[37] 	1
scalar tree_4_3_u09_r13_network.node[38].core_layer 	interests[38] 	13771
scalar tree_4_3_u09_r13_network.node[38].core_layer 	data[38] 	9942
scalar tree_4_3_u09_r13_network.node[38].content_store 	p_hit[38] 	0.27804807203544
scalar tree_4_3_u09_r13_network.node[38].content_store 	hits[38] 	3829
scalar tree_4_3_u09_r13_network.node[38].content_store 	misses[38] 	9942
scalar tree_4_3_u09_r13_network.node[38].content_store 	decision_yes[38] 	9942
scalar tree_4_3_u09_r13_network.node[38].content_store 	decision_no[38] 	0
scalar tree_4_3_u09_r13_network.node[38].content_store 	decision_ratio[38] 	1
scalar tree_4_3_u09_r13_network.node[39].core_layer 	interests[39] 	12263
scalar tree_4_3_u09_r13_network.node[39].core_layer 	data[39] 	10158
scalar tree_4_3_u09_r13_network.node[39].content_store 	p_hit[39] 	0.17165457065971
scalar tree_4_3_u09_r13_network.node[39].content_store 	hits[39] 	2105
scalar tree_4_3_u09_r13_network.node[39].content_store 	misses[39] 	10158
scalar tree_4_3_u09_r13_network.node[39].content_store 	decision_yes[39] 	10158
scalar tree_4_3_u09_r13_network.node[39].content_store 	decision_no[39] 	0
scalar tree_4_3_u09_r13_network.node[39].content_store 	decision_ratio[39] 	1
scalar tree_4_3_u09_r13_network.client[13] 	hdistance[13] 	3.094224159611
scalar tree_4_3_u09_r13_network.client[13] 	downloads[13] 	11929
scalar tree_4_3_u09_r13_network.client[13] 	avg_time[13] 	0.004879258131
scalar tree_4_3_u09_r13_network.client[14] 	hdistance[14] 	2.975085695176
scalar tree_4_3_u09_r13_network.client[14] 	downloads[14] 	11961
scalar tree_4_3_u09_r13_network.client[14] 	avg_time[14] 	0.004751439211
scalar tree_4_3_u09_r13_network.client[15] 	hdistance[15] 	2.9858648377384
scalar tree_4_3_u09_r13_network.client[15] 	downloads[15] 	11956
scalar tree_4_3_u09_r13_network.client[15] 	avg_time[15] 	0.004681973252
scalar tree_4_3_u09_r13_network.client[16] 	hdistance[16] 	2.9367205156106
scalar tree_4_3_u09_r13_network.client[16] 	downloads[16] 	11947
scalar tree_4_3_u09_r13_network.client[16] 	avg_time[16] 	0.004683250618
scalar tree_4_3_u09_r13_network.client[17] 	hdistance[17] 	3.0185107278082
scalar tree_4_3_u09_r13_network.client[17] 	downloads[17] 	11885
scalar tree_4_3_u09_r13_network.client[17] 	avg_time[17] 	0.004842050686
scalar tree_4_3_u09_r13_network.client[18] 	hdistance[18] 	2.9396772858916
scalar tree_4_3_u09_r13_network.client[18] 	downloads[18] 	12085
scalar tree_4_3_u09_r13_network.client[18] 	avg_time[18] 	0.004687452455
scalar tree_4_3_u09_r13_network.client[19] 	hdistance[19] 	2.9915611814346
scalar tree_4_3_u09_r13_network.client[19] 	downloads[19] 	11850
scalar tree_4_3_u09_r13_network.client[19] 	avg_time[19] 	0.004689125281
scalar tree_4_3_u09_r13_network.client[20] 	hdistance[20] 	2.9496120797531
scalar tree_4_3_u09_r13_network.client[20] 	downloads[20] 	11987
scalar tree_4_3_u09_r13_network.client[20] 	avg_time[20] 	0.004687742058
scalar tree_4_3_u09_r13_network.client[21] 	hdistance[21] 	3.0995216917009
scalar tree_4_3_u09_r13_network.client[21] 	downloads[21] 	11917
scalar tree_4_3_u09_r13_network.client[21] 	avg_time[21] 	0.004895975249
scalar tree_4_3_u09_r13_network.client[22] 	hdistance[22] 	3.0805564811729
scalar tree_4_3_u09_r13_network.client[22] 	downloads[22] 	12004
scalar tree_4_3_u09_r13_network.client[22] 	avg_time[22] 	0.004910860023
scalar tree_4_3_u09_r13_network.client[23] 	hdistance[23] 	2.9756303229615
scalar tree_4_3_u09_r13_network.client[23] 	downloads[23] 	11859
scalar tree_4_3_u09_r13_network.client[23] 	avg_time[23] 	0.004716623087
scalar tree_4_3_u09_r13_network.client[24] 	hdistance[24] 	2.9539501840281
scalar tree_4_3_u09_r13_network.client[24] 	downloads[24] 	11683
scalar tree_4_3_u09_r13_network.client[24] 	avg_time[24] 	0.004695207611
scalar tree_4_3_u09_r13_network.client[25] 	hdistance[25] 	3.0077110049451
scalar tree_4_3_u09_r13_network.client[25] 	downloads[25] 	11931
scalar tree_4_3_u09_r13_network.client[25] 	avg_time[25] 	0.004760187136
scalar tree_4_3_u09_r13_network.client[26] 	hdistance[26] 	3.0344397304717
scalar tree_4_3_u09_r13_network.client[26] 	downloads[26] 	12021
scalar tree_4_3_u09_r13_network.client[26] 	avg_time[26] 	0.004846681947
scalar tree_4_3_u09_r13_network.client[27] 	hdistance[27] 	2.9501696879397
scalar tree_4_3_u09_r13_network.client[27] 	downloads[27] 	12081
scalar tree_4_3_u09_r13_network.client[27] 	avg_time[27] 	0.004690772693
scalar tree_4_3_u09_r13_network.client[28] 	hdistance[28] 	2.9172785119922
scalar tree_4_3_u09_r13_network.client[28] 	downloads[28] 	12258
scalar tree_4_3_u09_r13_network.client[28] 	avg_time[28] 	0.004632497732
scalar tree_4_3_u09_r13_network.client[29] 	hdistance[29] 	2.9329314242653
scalar tree_4_3_u09_r13_network.client[29] 	downloads[29] 	11943
scalar tree_4_3_u09_r13_network.client[29] 	avg_time[29] 	0.004655276232
scalar tree_4_3_u09_r13_network.client[30] 	hdistance[30] 	3.0257095158598
scalar tree_4_3_u09_r13_network.client[30] 	downloads[30] 	11980
scalar tree_4_3_u09_r13_network.client[30] 	avg_time[30] 	0.00483459266
scalar tree_4_3_u09_r13_network.client[31] 	hdistance[31] 	3.0209690893901
scalar tree_4_3_u09_r13_network.client[31] 	downloads[31] 	11970
scalar tree_4_3_u09_r13_network.client[31] 	avg_time[31] 	0.004836652769
scalar tree_4_3_u09_r13_network.client[32] 	hdistance[32] 	2.9294245385451
scalar tree_4_3_u09_r13_network.client[32] 	downloads[32] 	11973
scalar tree_4_3_u09_r13_network.client[32] 	avg_time[32] 	0.004687042858
scalar tree_4_3_u09_r13_network.client[33] 	hdistance[33] 	2.9471866576819
scalar tree_4_3_u09_r13_network.client[33] 	downloads[33] 	11872
scalar tree_4_3_u09_r13_network.client[33] 	avg_time[33] 	0.004680968731
scalar tree_4_3_u09_r13_network.client[34] 	hdistance[34] 	2.9477774064171
scalar tree_4_3_u09_r13_network.client[34] 	downloads[34] 	11968
scalar tree_4_3_u09_r13_network.client[34] 	avg_time[34] 	0.004705056998
scalar tree_4_3_u09_r13_network.client[35] 	hdistance[35] 	3.0145454545454
scalar tree_4_3_u09_r13_network.client[35] 	downloads[35] 	12100
scalar tree_4_3_u09_r13_network.client[35] 	avg_time[35] 	0.004822455534
scalar tree_4_3_u09_r13_network.client[36] 	hdistance[36] 	2.9440107445648
scalar tree_4_3_u09_r13_network.client[36] 	downloads[36] 	11913
scalar tree_4_3_u09_r13_network.client[36] 	avg_time[36] 	0.004677077669
scalar tree_4_3_u09_r13_network.client[37] 	hdistance[37] 	2.9470675944334
scalar tree_4_3_u09_r13_network.client[37] 	downloads[37] 	12072
scalar tree_4_3_u09_r13_network.client[37] 	avg_time[37] 	0.004688186047
scalar tree_4_3_u09_r13_network.client[38] 	hdistance[38] 	2.9373427277302
scalar tree_4_3_u09_r13_network.client[38] 	downloads[38] 	11922
scalar tree_4_3_u09_r13_network.client[38] 	avg_time[38] 	0.004665237746
scalar tree_4_3_u09_r13_network.client[39] 	hdistance[39] 	3.0655982728556
scalar tree_4_3_u09_r13_network.client[39] 	downloads[39] 	12043
scalar tree_4_3_u09_r13_network.client[39] 	avg_time[39] 	0.004842810245
