version 2
run General-196-20160819-18:09:44-23511
attr a 0.9
attr cd lce
attr configname General
attr cr lru
attr datetime 20160819-18:09:44
attr experiment General
attr fsize 1
attr inifile hw5115/scenario_A/NRR-LCE.ini
attr iterationvars "$name=tree_4_3, $un=09, $rep=17, $cd=lce, $cr=lru, $fsize=1, $a=0.9, $sl=nrr, $ttl=1000, $variance=0.05"
attr iterationvars2 "$name=tree_4_3, $un=09, $rep=17, $cd=lce, $cr=lru, $fsize=1, $a=0.9, $sl=nrr, $ttl=1000, $variance=0.05, $repetition=0"
attr measurement "$name=tree_4_3, $un=09, $rep=17, $cd=lce, $cr=lru, $fsize=1, $a=0.9, $sl=nrr, $ttl=1000, $variance=0.05"
attr name tree_4_3
attr network networks.${name}_u${un}_r${rep}_network
attr processid 23511
attr rep 17
attr repetition 0
attr replication #0
attr resultdir results
attr runnumber 196
attr seedset 17
attr sl nrr
attr ttl 1000
attr un 09
attr variance 0.05

scalar . 	a 	0.9
scalar . 	fsize 	1
scalar . 	rep 	17
scalar . 	ttl 	1000
scalar . 	un 	09
scalar . 	variance 	0.05
scalar tree_4_3_u09_r17_network.content_distribution 	repo-0 	0
scalar tree_4_3_u09_r17_network.content_distribution 	client-0 	13
scalar tree_4_3_u09_r17_network.content_distribution 	client-1 	14
scalar tree_4_3_u09_r17_network.content_distribution 	client-2 	15
scalar tree_4_3_u09_r17_network.content_distribution 	client-3 	16
scalar tree_4_3_u09_r17_network.content_distribution 	client-4 	17
scalar tree_4_3_u09_r17_network.content_distribution 	client-5 	18
scalar tree_4_3_u09_r17_network.content_distribution 	client-6 	19
scalar tree_4_3_u09_r17_network.content_distribution 	client-7 	20
scalar tree_4_3_u09_r17_network.content_distribution 	client-8 	21
scalar tree_4_3_u09_r17_network.content_distribution 	client-9 	22
scalar tree_4_3_u09_r17_network.content_distribution 	client-10 	23
scalar tree_4_3_u09_r17_network.content_distribution 	client-11 	24
scalar tree_4_3_u09_r17_network.content_distribution 	client-12 	25
scalar tree_4_3_u09_r17_network.content_distribution 	client-13 	26
scalar tree_4_3_u09_r17_network.content_distribution 	client-14 	27
scalar tree_4_3_u09_r17_network.content_distribution 	client-15 	28
scalar tree_4_3_u09_r17_network.content_distribution 	client-16 	29
scalar tree_4_3_u09_r17_network.content_distribution 	client-17 	30
scalar tree_4_3_u09_r17_network.content_distribution 	client-18 	31
scalar tree_4_3_u09_r17_network.content_distribution 	client-19 	32
scalar tree_4_3_u09_r17_network.content_distribution 	client-20 	33
scalar tree_4_3_u09_r17_network.content_distribution 	client-21 	34
scalar tree_4_3_u09_r17_network.content_distribution 	client-22 	35
scalar tree_4_3_u09_r17_network.content_distribution 	client-23 	36
scalar tree_4_3_u09_r17_network.content_distribution 	client-24 	37
scalar tree_4_3_u09_r17_network.content_distribution 	client-25 	38
scalar tree_4_3_u09_r17_network.content_distribution 	client-26 	39
scalar tree_4_3_u09_r17_network.content_distribution 	repo-0_card 	100000
scalar tree_4_3_u09_r17_network.content_distribution 	repo-0_price 	0
scalar tree_4_3_u09_r17_network.statistics 	stabilization_time 	553
scalar tree_4_3_u09_r17_network.statistics 	p_hit 	0.20702843277995
scalar tree_4_3_u09_r17_network.statistics 	interests 	27299.35
scalar tree_4_3_u09_r17_network.statistics 	data 	19221.55
scalar tree_4_3_u09_r17_network.statistics 	hdistance 	2.9849830745362
scalar tree_4_3_u09_r17_network.statistics 	avg_time 	0.004758889857
scalar tree_4_3_u09_r17_network.statistics 	downloads 	323107
scalar tree_4_3_u09_r17_network.statistics 	total_cost 	0
scalar tree_4_3_u09_r17_network.statistics 	total_replicas 	100000
scalar tree_4_3_u09_r17_network.statistics 	inner_hit 	0.39439875954405
scalar tree_4_3_u09_r17_network.node[0].core_layer 	interests[0] 	196080
scalar tree_4_3_u09_r17_network.node[0].core_layer 	repo_load[0] 	195674
scalar tree_4_3_u09_r17_network.node[0].core_layer 	data[0] 	0
scalar tree_4_3_u09_r17_network.node[0].core_layer 	repo_int[0] 	195674
scalar tree_4_3_u09_r17_network.node[0].content_store 	p_hit[0] 	0.0020705834353325
scalar tree_4_3_u09_r17_network.node[0].content_store 	hits[0] 	406
scalar tree_4_3_u09_r17_network.node[0].content_store 	misses[0] 	195674
scalar tree_4_3_u09_r17_network.node[0].content_store 	decision_yes[0] 	195674
scalar tree_4_3_u09_r17_network.node[0].content_store 	decision_no[0] 	0
scalar tree_4_3_u09_r17_network.node[0].content_store 	decision_ratio[0] 	1
scalar tree_4_3_u09_r17_network.node[1].core_layer 	interests[1] 	152959
scalar tree_4_3_u09_r17_network.node[1].core_layer 	data[1] 	151716
scalar tree_4_3_u09_r17_network.node[1].content_store 	p_hit[1] 	0.0080805967612236
scalar tree_4_3_u09_r17_network.node[1].content_store 	hits[1] 	1236
scalar tree_4_3_u09_r17_network.node[1].content_store 	misses[1] 	151723
scalar tree_4_3_u09_r17_network.node[1].content_store 	decision_yes[1] 	151691
scalar tree_4_3_u09_r17_network.node[1].content_store 	decision_no[1] 	0
scalar tree_4_3_u09_r17_network.node[1].content_store 	decision_ratio[1] 	1
scalar tree_4_3_u09_r17_network.node[2].core_layer 	interests[2] 	62222
scalar tree_4_3_u09_r17_network.node[2].core_layer 	data[2] 	60761
scalar tree_4_3_u09_r17_network.node[2].content_store 	p_hit[2] 	0.023432226543666
scalar tree_4_3_u09_r17_network.node[2].content_store 	hits[2] 	1458
scalar tree_4_3_u09_r17_network.node[2].content_store 	misses[2] 	60764
scalar tree_4_3_u09_r17_network.node[2].content_store 	decision_yes[2] 	60750
scalar tree_4_3_u09_r17_network.node[2].content_store 	decision_no[2] 	0
scalar tree_4_3_u09_r17_network.node[2].content_store 	decision_ratio[2] 	1
scalar tree_4_3_u09_r17_network.node[3].core_layer 	interests[3] 	13528
scalar tree_4_3_u09_r17_network.node[3].core_layer 	data[3] 	11549
scalar tree_4_3_u09_r17_network.node[3].content_store 	p_hit[3] 	0.14621525724423
scalar tree_4_3_u09_r17_network.node[3].content_store 	hits[3] 	1978
scalar tree_4_3_u09_r17_network.node[3].content_store 	misses[3] 	11550
scalar tree_4_3_u09_r17_network.node[3].content_store 	decision_yes[3] 	11549
scalar tree_4_3_u09_r17_network.node[3].content_store 	decision_no[3] 	0
scalar tree_4_3_u09_r17_network.node[3].content_store 	decision_ratio[3] 	1
scalar tree_4_3_u09_r17_network.node[4].core_layer 	interests[4] 	48244
scalar tree_4_3_u09_r17_network.node[4].core_layer 	data[4] 	46506
scalar tree_4_3_u09_r17_network.node[4].content_store 	p_hit[4] 	0.035983749274521
scalar tree_4_3_u09_r17_network.node[4].content_store 	hits[4] 	1736
scalar tree_4_3_u09_r17_network.node[4].content_store 	misses[4] 	46508
scalar tree_4_3_u09_r17_network.node[4].content_store 	decision_yes[4] 	46500
scalar tree_4_3_u09_r17_network.node[4].content_store 	decision_no[4] 	0
scalar tree_4_3_u09_r17_network.node[4].content_store 	decision_ratio[4] 	1
scalar tree_4_3_u09_r17_network.node[5].core_layer 	interests[5] 	35636
scalar tree_4_3_u09_r17_network.node[5].core_layer 	data[5] 	32504
scalar tree_4_3_u09_r17_network.node[5].content_store 	p_hit[5] 	0.087860590414188
scalar tree_4_3_u09_r17_network.node[5].content_store 	hits[5] 	3131
scalar tree_4_3_u09_r17_network.node[5].content_store 	misses[5] 	32505
scalar tree_4_3_u09_r17_network.node[5].content_store 	decision_yes[5] 	32503
scalar tree_4_3_u09_r17_network.node[5].content_store 	decision_no[5] 	0
scalar tree_4_3_u09_r17_network.node[5].content_store 	decision_ratio[5] 	1
scalar tree_4_3_u09_r17_network.node[6].core_layer 	interests[6] 	15471
scalar tree_4_3_u09_r17_network.node[6].core_layer 	data[6] 	11557
scalar tree_4_3_u09_r17_network.node[6].content_store 	p_hit[6] 	0.25311873828453
scalar tree_4_3_u09_r17_network.node[6].content_store 	hits[6] 	3916
scalar tree_4_3_u09_r17_network.node[6].content_store 	misses[6] 	11555
scalar tree_4_3_u09_r17_network.node[6].content_store 	decision_yes[6] 	11557
scalar tree_4_3_u09_r17_network.node[6].content_store 	decision_no[6] 	0
scalar tree_4_3_u09_r17_network.node[6].content_store 	decision_ratio[6] 	1
scalar tree_4_3_u09_r17_network.node[7].core_layer 	interests[7] 	51994
scalar tree_4_3_u09_r17_network.node[7].core_layer 	data[7] 	49435
scalar tree_4_3_u09_r17_network.node[7].content_store 	p_hit[7] 	0.049140285417548
scalar tree_4_3_u09_r17_network.node[7].content_store 	hits[7] 	2555
scalar tree_4_3_u09_r17_network.node[7].content_store 	misses[7] 	49439
scalar tree_4_3_u09_r17_network.node[7].content_store 	decision_yes[7] 	49429
scalar tree_4_3_u09_r17_network.node[7].content_store 	decision_no[7] 	0
scalar tree_4_3_u09_r17_network.node[7].content_store 	decision_ratio[7] 	1
scalar tree_4_3_u09_r17_network.node[8].core_layer 	interests[8] 	30850
scalar tree_4_3_u09_r17_network.node[8].core_layer 	data[8] 	28866
scalar tree_4_3_u09_r17_network.node[8].content_store 	p_hit[8] 	0.064311183144246
scalar tree_4_3_u09_r17_network.node[8].content_store 	hits[8] 	1984
scalar tree_4_3_u09_r17_network.node[8].content_store 	misses[8] 	28866
scalar tree_4_3_u09_r17_network.node[8].content_store 	decision_yes[8] 	28862
scalar tree_4_3_u09_r17_network.node[8].content_store 	decision_no[8] 	0
scalar tree_4_3_u09_r17_network.node[8].content_store 	decision_ratio[8] 	1
scalar tree_4_3_u09_r17_network.node[9].core_layer 	interests[9] 	17816
scalar tree_4_3_u09_r17_network.node[9].core_layer 	data[9] 	13127
scalar tree_4_3_u09_r17_network.node[9].content_store 	p_hit[9] 	0.26313426133812
scalar tree_4_3_u09_r17_network.node[9].content_store 	hits[9] 	4688
scalar tree_4_3_u09_r17_network.node[9].content_store 	misses[9] 	13128
scalar tree_4_3_u09_r17_network.node[9].content_store 	decision_yes[9] 	13126
scalar tree_4_3_u09_r17_network.node[9].content_store 	decision_no[9] 	0
scalar tree_4_3_u09_r17_network.node[9].content_store 	decision_ratio[9] 	1
scalar tree_4_3_u09_r17_network.node[10].core_layer 	interests[10] 	52543
scalar tree_4_3_u09_r17_network.node[10].core_layer 	data[10] 	49699
scalar tree_4_3_u09_r17_network.node[10].content_store 	p_hit[10] 	0.054050967778772
scalar tree_4_3_u09_r17_network.node[10].content_store 	hits[10] 	2840
scalar tree_4_3_u09_r17_network.node[10].content_store 	misses[10] 	49703
scalar tree_4_3_u09_r17_network.node[10].content_store 	decision_yes[10] 	49694
scalar tree_4_3_u09_r17_network.node[10].content_store 	decision_no[10] 	0
scalar tree_4_3_u09_r17_network.node[10].content_store 	decision_ratio[10] 	1
scalar tree_4_3_u09_r17_network.node[11].core_layer 	interests[11] 	33747
scalar tree_4_3_u09_r17_network.node[11].core_layer 	data[11] 	31207
scalar tree_4_3_u09_r17_network.node[11].content_store 	p_hit[11] 	0.075265949565887
scalar tree_4_3_u09_r17_network.node[11].content_store 	hits[11] 	2540
scalar tree_4_3_u09_r17_network.node[11].content_store 	misses[11] 	31207
scalar tree_4_3_u09_r17_network.node[11].content_store 	decision_yes[11] 	31204
scalar tree_4_3_u09_r17_network.node[11].content_store 	decision_no[11] 	0
scalar tree_4_3_u09_r17_network.node[11].content_store 	decision_ratio[11] 	1
scalar tree_4_3_u09_r17_network.node[12].core_layer 	interests[12] 	12753
scalar tree_4_3_u09_r17_network.node[12].core_layer 	data[12] 	10824
scalar tree_4_3_u09_r17_network.node[12].content_store 	p_hit[12] 	0.15125852740532
scalar tree_4_3_u09_r17_network.node[12].content_store 	hits[12] 	1929
scalar tree_4_3_u09_r17_network.node[12].content_store 	misses[12] 	10824
scalar tree_4_3_u09_r17_network.node[12].content_store 	decision_yes[12] 	10823
scalar tree_4_3_u09_r17_network.node[12].content_store 	decision_no[12] 	0
scalar tree_4_3_u09_r17_network.node[12].content_store 	decision_ratio[12] 	1
scalar tree_4_3_u09_r17_network.node[13].core_layer 	interests[13] 	13088
scalar tree_4_3_u09_r17_network.node[13].core_layer 	data[13] 	9997
scalar tree_4_3_u09_r17_network.node[13].content_store 	p_hit[13] 	0.23609413202934
scalar tree_4_3_u09_r17_network.node[13].content_store 	hits[13] 	3090
scalar tree_4_3_u09_r17_network.node[13].content_store 	misses[13] 	9998
scalar tree_4_3_u09_r17_network.node[13].content_store 	decision_yes[13] 	9997
scalar tree_4_3_u09_r17_network.node[13].content_store 	decision_no[13] 	0
scalar tree_4_3_u09_r17_network.node[13].content_store 	decision_ratio[13] 	1
scalar tree_4_3_u09_r17_network.node[14].core_layer 	interests[14] 	14125
scalar tree_4_3_u09_r17_network.node[14].core_layer 	data[14] 	9941
scalar tree_4_3_u09_r17_network.node[14].content_store 	p_hit[14] 	0.29614159292035
scalar tree_4_3_u09_r17_network.node[14].content_store 	hits[14] 	4183
scalar tree_4_3_u09_r17_network.node[14].content_store 	misses[14] 	9942
scalar tree_4_3_u09_r17_network.node[14].content_store 	decision_yes[14] 	9941
scalar tree_4_3_u09_r17_network.node[14].content_store 	decision_no[14] 	0
scalar tree_4_3_u09_r17_network.node[14].content_store 	decision_ratio[14] 	1
scalar tree_4_3_u09_r17_network.node[15].core_layer 	interests[15] 	13582
scalar tree_4_3_u09_r17_network.node[15].core_layer 	data[15] 	9818
scalar tree_4_3_u09_r17_network.node[15].content_store 	p_hit[15] 	0.27713149757031
scalar tree_4_3_u09_r17_network.node[15].content_store 	hits[15] 	3764
scalar tree_4_3_u09_r17_network.node[15].content_store 	misses[15] 	9818
scalar tree_4_3_u09_r17_network.node[15].content_store 	decision_yes[15] 	9818
scalar tree_4_3_u09_r17_network.node[15].content_store 	decision_no[15] 	0
scalar tree_4_3_u09_r17_network.node[15].content_store 	decision_ratio[15] 	1
scalar tree_4_3_u09_r17_network.node[16].core_layer 	interests[16] 	14295
scalar tree_4_3_u09_r17_network.node[16].core_layer 	data[16] 	10063
scalar tree_4_3_u09_r17_network.node[16].content_store 	p_hit[16] 	0.2960475690801
scalar tree_4_3_u09_r17_network.node[16].content_store 	hits[16] 	4232
scalar tree_4_3_u09_r17_network.node[16].content_store 	misses[16] 	10063
scalar tree_4_3_u09_r17_network.node[16].content_store 	decision_yes[16] 	10063
scalar tree_4_3_u09_r17_network.node[16].content_store 	decision_no[16] 	0
scalar tree_4_3_u09_r17_network.node[16].content_store 	decision_ratio[16] 	1
scalar tree_4_3_u09_r17_network.node[17].core_layer 	interests[17] 	13240
scalar tree_4_3_u09_r17_network.node[17].core_layer 	data[17] 	10045
scalar tree_4_3_u09_r17_network.node[17].content_store 	p_hit[17] 	0.24123867069486
scalar tree_4_3_u09_r17_network.node[17].content_store 	hits[17] 	3194
scalar tree_4_3_u09_r17_network.node[17].content_store 	misses[17] 	10046
scalar tree_4_3_u09_r17_network.node[17].content_store 	decision_yes[17] 	10045
scalar tree_4_3_u09_r17_network.node[17].content_store 	decision_no[17] 	0
scalar tree_4_3_u09_r17_network.node[17].content_store 	decision_ratio[17] 	1
scalar tree_4_3_u09_r17_network.node[18].core_layer 	interests[18] 	14041
scalar tree_4_3_u09_r17_network.node[18].core_layer 	data[18] 	10130
scalar tree_4_3_u09_r17_network.node[18].content_store 	p_hit[18] 	0.27854141442917
scalar tree_4_3_u09_r17_network.node[18].content_store 	hits[18] 	3911
scalar tree_4_3_u09_r17_network.node[18].content_store 	misses[18] 	10130
scalar tree_4_3_u09_r17_network.node[18].content_store 	decision_yes[18] 	10130
scalar tree_4_3_u09_r17_network.node[18].content_store 	decision_no[18] 	0
scalar tree_4_3_u09_r17_network.node[18].content_store 	decision_ratio[18] 	1
scalar tree_4_3_u09_r17_network.node[19].core_layer 	interests[19] 	13786
scalar tree_4_3_u09_r17_network.node[19].core_layer 	data[19] 	10023
scalar tree_4_3_u09_r17_network.node[19].content_store 	p_hit[19] 	0.27295807340781
scalar tree_4_3_u09_r17_network.node[19].content_store 	hits[19] 	3763
scalar tree_4_3_u09_r17_network.node[19].content_store 	misses[19] 	10023
scalar tree_4_3_u09_r17_network.node[19].content_store 	decision_yes[19] 	10023
scalar tree_4_3_u09_r17_network.node[19].content_store 	decision_no[19] 	0
scalar tree_4_3_u09_r17_network.node[19].content_store 	decision_ratio[19] 	1
scalar tree_4_3_u09_r17_network.node[20].core_layer 	interests[20] 	14010
scalar tree_4_3_u09_r17_network.node[20].core_layer 	data[20] 	10086
scalar tree_4_3_u09_r17_network.node[20].content_store 	p_hit[20] 	0.28001427551749
scalar tree_4_3_u09_r17_network.node[20].content_store 	hits[20] 	3923
scalar tree_4_3_u09_r17_network.node[20].content_store 	misses[20] 	10087
scalar tree_4_3_u09_r17_network.node[20].content_store 	decision_yes[20] 	10086
scalar tree_4_3_u09_r17_network.node[20].content_store 	decision_no[20] 	0
scalar tree_4_3_u09_r17_network.node[20].content_store 	decision_ratio[20] 	1
scalar tree_4_3_u09_r17_network.node[21].core_layer 	interests[21] 	12330
scalar tree_4_3_u09_r17_network.node[21].core_layer 	data[21] 	10232
scalar tree_4_3_u09_r17_network.node[21].content_store 	p_hit[21] 	0.17015409570154
scalar tree_4_3_u09_r17_network.node[21].content_store 	hits[21] 	2098
scalar tree_4_3_u09_r17_network.node[21].content_store 	misses[21] 	10232
scalar tree_4_3_u09_r17_network.node[21].content_store 	decision_yes[21] 	10232
scalar tree_4_3_u09_r17_network.node[21].content_store 	decision_no[21] 	0
scalar tree_4_3_u09_r17_network.node[21].content_store 	decision_ratio[21] 	1
scalar tree_4_3_u09_r17_network.node[22].core_layer 	interests[22] 	13494
scalar tree_4_3_u09_r17_network.node[22].core_layer 	data[22] 	10032
scalar tree_4_3_u09_r17_network.node[22].content_store 	p_hit[22] 	0.2565584704313
scalar tree_4_3_u09_r17_network.node[22].content_store 	hits[22] 	3462
scalar tree_4_3_u09_r17_network.node[22].content_store 	misses[22] 	10032
scalar tree_4_3_u09_r17_network.node[22].content_store 	decision_yes[22] 	10032
scalar tree_4_3_u09_r17_network.node[22].content_store 	decision_no[22] 	0
scalar tree_4_3_u09_r17_network.node[22].content_store 	decision_ratio[22] 	1
scalar tree_4_3_u09_r17_network.node[23].core_layer 	interests[23] 	14409
scalar tree_4_3_u09_r17_network.node[23].core_layer 	data[23] 	10133
scalar tree_4_3_u09_r17_network.node[23].content_store 	p_hit[23] 	0.29668956901936
scalar tree_4_3_u09_r17_network.node[23].content_store 	hits[23] 	4275
scalar tree_4_3_u09_r17_network.node[23].content_store 	misses[23] 	10134
scalar tree_4_3_u09_r17_network.node[23].content_store 	decision_yes[23] 	10133
scalar tree_4_3_u09_r17_network.node[23].content_store 	decision_no[23] 	0
scalar tree_4_3_u09_r17_network.node[23].content_store 	decision_ratio[23] 	1
scalar tree_4_3_u09_r17_network.node[24].core_layer 	interests[24] 	14213
scalar tree_4_3_u09_r17_network.node[24].core_layer 	data[24] 	9993
scalar tree_4_3_u09_r17_network.node[24].content_store 	p_hit[24] 	0.29684092028425
scalar tree_4_3_u09_r17_network.node[24].content_store 	hits[24] 	4219
scalar tree_4_3_u09_r17_network.node[24].content_store 	misses[24] 	9994
scalar tree_4_3_u09_r17_network.node[24].content_store 	decision_yes[24] 	9993
scalar tree_4_3_u09_r17_network.node[24].content_store 	decision_no[24] 	0
scalar tree_4_3_u09_r17_network.node[24].content_store 	decision_ratio[24] 	1
scalar tree_4_3_u09_r17_network.node[25].core_layer 	interests[25] 	14314
scalar tree_4_3_u09_r17_network.node[25].core_layer 	data[25] 	10186
scalar tree_4_3_u09_r17_network.node[25].content_store 	p_hit[25] 	0.2883889898002
scalar tree_4_3_u09_r17_network.node[25].content_store 	hits[25] 	4128
scalar tree_4_3_u09_r17_network.node[25].content_store 	misses[25] 	10186
scalar tree_4_3_u09_r17_network.node[25].content_store 	decision_yes[25] 	10186
scalar tree_4_3_u09_r17_network.node[25].content_store 	decision_no[25] 	0
scalar tree_4_3_u09_r17_network.node[25].content_store 	decision_ratio[25] 	1
scalar tree_4_3_u09_r17_network.node[26].core_layer 	interests[26] 	13021
scalar tree_4_3_u09_r17_network.node[26].core_layer 	data[26] 	10129
scalar tree_4_3_u09_r17_network.node[26].content_store 	p_hit[26] 	0.22210275708471
scalar tree_4_3_u09_r17_network.node[26].content_store 	hits[26] 	2892
scalar tree_4_3_u09_r17_network.node[26].content_store 	misses[26] 	10129
scalar tree_4_3_u09_r17_network.node[26].content_store 	decision_yes[26] 	10129
scalar tree_4_3_u09_r17_network.node[26].content_store 	decision_no[26] 	0
scalar tree_4_3_u09_r17_network.node[26].content_store 	decision_ratio[26] 	1
scalar tree_4_3_u09_r17_network.node[27].core_layer 	interests[27] 	13644
scalar tree_4_3_u09_r17_network.node[27].core_layer 	data[27] 	9999
scalar tree_4_3_u09_r17_network.node[27].content_store 	p_hit[27] 	0.26715039577836
scalar tree_4_3_u09_r17_network.node[27].content_store 	hits[27] 	3645
scalar tree_4_3_u09_r17_network.node[27].content_store 	misses[27] 	9999
scalar tree_4_3_u09_r17_network.node[27].content_store 	decision_yes[27] 	9999
scalar tree_4_3_u09_r17_network.node[27].content_store 	decision_no[27] 	0
scalar tree_4_3_u09_r17_network.node[27].content_store 	decision_ratio[27] 	1
scalar tree_4_3_u09_r17_network.node[28].core_layer 	interests[28] 	14230
scalar tree_4_3_u09_r17_network.node[28].core_layer 	data[28] 	10031
scalar tree_4_3_u09_r17_network.node[28].content_store 	p_hit[28] 	0.2950808151792
scalar tree_4_3_u09_r17_network.node[28].content_store 	hits[28] 	4199
scalar tree_4_3_u09_r17_network.node[28].content_store 	misses[28] 	10031
scalar tree_4_3_u09_r17_network.node[28].content_store 	decision_yes[28] 	10031
scalar tree_4_3_u09_r17_network.node[28].content_store 	decision_no[28] 	0
scalar tree_4_3_u09_r17_network.node[28].content_store 	decision_ratio[28] 	1
scalar tree_4_3_u09_r17_network.node[29].core_layer 	interests[29] 	13704
scalar tree_4_3_u09_r17_network.node[29].core_layer 	data[29] 	10045
scalar tree_4_3_u09_r17_network.node[29].content_store 	p_hit[29] 	0.26692936368943
scalar tree_4_3_u09_r17_network.node[29].content_store 	hits[29] 	3658
scalar tree_4_3_u09_r17_network.node[29].content_store 	misses[29] 	10046
scalar tree_4_3_u09_r17_network.node[29].content_store 	decision_yes[29] 	10045
scalar tree_4_3_u09_r17_network.node[29].content_store 	decision_no[29] 	0
scalar tree_4_3_u09_r17_network.node[29].content_store 	decision_ratio[29] 	1
scalar tree_4_3_u09_r17_network.node[30].core_layer 	interests[30] 	12357
scalar tree_4_3_u09_r17_network.node[30].core_layer 	data[30] 	9992
scalar tree_4_3_u09_r17_network.node[30].content_store 	p_hit[30] 	0.19130857004127
scalar tree_4_3_u09_r17_network.node[30].content_store 	hits[30] 	2364
scalar tree_4_3_u09_r17_network.node[30].content_store 	misses[30] 	9993
scalar tree_4_3_u09_r17_network.node[30].content_store 	decision_yes[30] 	9992
scalar tree_4_3_u09_r17_network.node[30].content_store 	decision_no[30] 	0
scalar tree_4_3_u09_r17_network.node[30].content_store 	decision_ratio[30] 	1
scalar tree_4_3_u09_r17_network.node[31].core_layer 	interests[31] 	13314
scalar tree_4_3_u09_r17_network.node[31].core_layer 	data[31] 	9900
scalar tree_4_3_u09_r17_network.node[31].content_store 	p_hit[31] 	0.25642181162686
scalar tree_4_3_u09_r17_network.node[31].content_store 	hits[31] 	3414
scalar tree_4_3_u09_r17_network.node[31].content_store 	misses[31] 	9900
scalar tree_4_3_u09_r17_network.node[31].content_store 	decision_yes[31] 	9900
scalar tree_4_3_u09_r17_network.node[31].content_store 	decision_no[31] 	0
scalar tree_4_3_u09_r17_network.node[31].content_store 	decision_ratio[31] 	1
scalar tree_4_3_u09_r17_network.node[32].core_layer 	interests[32] 	14432
scalar tree_4_3_u09_r17_network.node[32].core_layer 	data[32] 	9956
scalar tree_4_3_u09_r17_network.node[32].content_store 	p_hit[32] 	0.31014412416851
scalar tree_4_3_u09_r17_network.node[32].content_store 	hits[32] 	4476
scalar tree_4_3_u09_r17_network.node[32].content_store 	misses[32] 	9956
scalar tree_4_3_u09_r17_network.node[32].content_store 	decision_yes[32] 	9956
scalar tree_4_3_u09_r17_network.node[32].content_store 	decision_no[32] 	0
scalar tree_4_3_u09_r17_network.node[32].content_store 	decision_ratio[32] 	1
scalar tree_4_3_u09_r17_network.node[33].core_layer 	interests[33] 	13509
scalar tree_4_3_u09_r17_network.node[33].core_layer 	data[33] 	10161
scalar tree_4_3_u09_r17_network.node[33].content_store 	p_hit[33] 	0.24783477681546
scalar tree_4_3_u09_r17_network.node[33].content_store 	hits[33] 	3348
scalar tree_4_3_u09_r17_network.node[33].content_store 	misses[33] 	10161
scalar tree_4_3_u09_r17_network.node[33].content_store 	decision_yes[33] 	10161
scalar tree_4_3_u09_r17_network.node[33].content_store 	decision_no[33] 	0
scalar tree_4_3_u09_r17_network.node[33].content_store 	decision_ratio[33] 	1
scalar tree_4_3_u09_r17_network.node[34].core_layer 	interests[34] 	14399
scalar tree_4_3_u09_r17_network.node[34].core_layer 	data[34] 	10044
scalar tree_4_3_u09_r17_network.node[34].content_store 	p_hit[34] 	0.30245155913605
scalar tree_4_3_u09_r17_network.node[34].content_store 	hits[34] 	4355
scalar tree_4_3_u09_r17_network.node[34].content_store 	misses[34] 	10044
scalar tree_4_3_u09_r17_network.node[34].content_store 	decision_yes[34] 	10044
scalar tree_4_3_u09_r17_network.node[34].content_store 	decision_no[34] 	0
scalar tree_4_3_u09_r17_network.node[34].content_store 	decision_ratio[34] 	1
scalar tree_4_3_u09_r17_network.node[35].core_layer 	interests[35] 	12951
scalar tree_4_3_u09_r17_network.node[35].core_layer 	data[35] 	10028
scalar tree_4_3_u09_r17_network.node[35].content_store 	p_hit[35] 	0.22569685738553
scalar tree_4_3_u09_r17_network.node[35].content_store 	hits[35] 	2923
scalar tree_4_3_u09_r17_network.node[35].content_store 	misses[35] 	10028
scalar tree_4_3_u09_r17_network.node[35].content_store 	decision_yes[35] 	10028
scalar tree_4_3_u09_r17_network.node[35].content_store 	decision_no[35] 	0
scalar tree_4_3_u09_r17_network.node[35].content_store 	decision_ratio[35] 	1
scalar tree_4_3_u09_r17_network.node[36].core_layer 	interests[36] 	13758
scalar tree_4_3_u09_r17_network.node[36].core_layer 	data[36] 	10152
scalar tree_4_3_u09_r17_network.node[36].content_store 	p_hit[36] 	0.26202936473325
scalar tree_4_3_u09_r17_network.node[36].content_store 	hits[36] 	3605
scalar tree_4_3_u09_r17_network.node[36].content_store 	misses[36] 	10153
scalar tree_4_3_u09_r17_network.node[36].content_store 	decision_yes[36] 	10152
scalar tree_4_3_u09_r17_network.node[36].content_store 	decision_no[36] 	0
scalar tree_4_3_u09_r17_network.node[36].content_store 	decision_ratio[36] 	1
scalar tree_4_3_u09_r17_network.node[37].core_layer 	interests[37] 	14027
scalar tree_4_3_u09_r17_network.node[37].core_layer 	data[37] 	9909
scalar tree_4_3_u09_r17_network.node[37].content_store 	p_hit[37] 	0.29357667355814
scalar tree_4_3_u09_r17_network.node[37].content_store 	hits[37] 	4118
scalar tree_4_3_u09_r17_network.node[37].content_store 	misses[37] 	9909
scalar tree_4_3_u09_r17_network.node[37].content_store 	decision_yes[37] 	9909
scalar tree_4_3_u09_r17_network.node[37].content_store 	decision_no[37] 	0
scalar tree_4_3_u09_r17_network.node[37].content_store 	decision_ratio[37] 	1
scalar tree_4_3_u09_r17_network.node[38].core_layer 	interests[38] 	13679
scalar tree_4_3_u09_r17_network.node[38].core_layer 	data[38] 	9885
scalar tree_4_3_u09_r17_network.node[38].content_store 	p_hit[38] 	0.27735945610059
scalar tree_4_3_u09_r17_network.node[38].content_store 	hits[38] 	3794
scalar tree_4_3_u09_r17_network.node[38].content_store 	misses[38] 	9885
scalar tree_4_3_u09_r17_network.node[38].content_store 	decision_yes[38] 	9885
scalar tree_4_3_u09_r17_network.node[38].content_store 	decision_no[38] 	0
scalar tree_4_3_u09_r17_network.node[38].content_store 	decision_ratio[38] 	1
scalar tree_4_3_u09_r17_network.node[39].core_layer 	interests[39] 	12179
scalar tree_4_3_u09_r17_network.node[39].core_layer 	data[39] 	10201
scalar tree_4_3_u09_r17_network.node[39].content_store 	p_hit[39] 	0.16232859840709
scalar tree_4_3_u09_r17_network.node[39].content_store 	hits[39] 	1977
scalar tree_4_3_u09_r17_network.node[39].content_store 	misses[39] 	10202
scalar tree_4_3_u09_r17_network.node[39].content_store 	decision_yes[39] 	10201
scalar tree_4_3_u09_r17_network.node[39].content_store 	decision_no[39] 	0
scalar tree_4_3_u09_r17_network.node[39].content_store 	decision_ratio[39] 	1
scalar tree_4_3_u09_r17_network.client[13] 	hdistance[13] 	3.0417014178482
scalar tree_4_3_u09_r17_network.client[13] 	downloads[13] 	11990
scalar tree_4_3_u09_r17_network.client[13] 	avg_time[13] 	0.004840499156
scalar tree_4_3_u09_r17_network.client[14] 	hdistance[14] 	2.9638127372417
scalar tree_4_3_u09_r17_network.client[14] 	downloads[14] 	11855
scalar tree_4_3_u09_r17_network.client[14] 	avg_time[14] 	0.004717600185
scalar tree_4_3_u09_r17_network.client[15] 	hdistance[15] 	2.9522881355932
scalar tree_4_3_u09_r17_network.client[15] 	downloads[15] 	11800
scalar tree_4_3_u09_r17_network.client[15] 	avg_time[15] 	0.00466625971
scalar tree_4_3_u09_r17_network.client[16] 	hdistance[16] 	2.9561214333112
scalar tree_4_3_u09_r17_network.client[16] 	downloads[16] 	12056
scalar tree_4_3_u09_r17_network.client[16] 	avg_time[16] 	0.004709563073
scalar tree_4_3_u09_r17_network.client[17] 	hdistance[17] 	3.0313890054553
scalar tree_4_3_u09_r17_network.client[17] 	downloads[17] 	11915
scalar tree_4_3_u09_r17_network.client[17] 	avg_time[17] 	0.00487330954
scalar tree_4_3_u09_r17_network.client[18] 	hdistance[18] 	2.9445408711464
scalar tree_4_3_u09_r17_network.client[18] 	downloads[18] 	12099
scalar tree_4_3_u09_r17_network.client[18] 	avg_time[18] 	0.004685673445
scalar tree_4_3_u09_r17_network.client[19] 	hdistance[19] 	2.9637090061595
scalar tree_4_3_u09_r17_network.client[19] 	downloads[19] 	12014
scalar tree_4_3_u09_r17_network.client[19] 	avg_time[19] 	0.004681868124
scalar tree_4_3_u09_r17_network.client[20] 	hdistance[20] 	2.9378531073446
scalar tree_4_3_u09_r17_network.client[20] 	downloads[20] 	12036
scalar tree_4_3_u09_r17_network.client[20] 	avg_time[20] 	0.004685637631
scalar tree_4_3_u09_r17_network.client[21] 	hdistance[21] 	3.0910831737574
scalar tree_4_3_u09_r17_network.client[21] 	downloads[21] 	12011
scalar tree_4_3_u09_r17_network.client[21] 	avg_time[21] 	0.004931377213
scalar tree_4_3_u09_r17_network.client[22] 	hdistance[22] 	3.0074340126963
scalar tree_4_3_u09_r17_network.client[22] 	downloads[22] 	11972
scalar tree_4_3_u09_r17_network.client[22] 	avg_time[22] 	0.00483940332
scalar tree_4_3_u09_r17_network.client[23] 	hdistance[23] 	2.9451424817278
scalar tree_4_3_u09_r17_network.client[23] 	downloads[23] 	12177
scalar tree_4_3_u09_r17_network.client[23] 	avg_time[23] 	0.004691037271
scalar tree_4_3_u09_r17_network.client[24] 	hdistance[24] 	2.9090985184565
scalar tree_4_3_u09_r17_network.client[24] 	downloads[24] 	11947
scalar tree_4_3_u09_r17_network.client[24] 	avg_time[24] 	0.004635933159
scalar tree_4_3_u09_r17_network.client[25] 	hdistance[25] 	2.9772200132538
scalar tree_4_3_u09_r17_network.client[25] 	downloads[25] 	12072
scalar tree_4_3_u09_r17_network.client[25] 	avg_time[25] 	0.004750162682
scalar tree_4_3_u09_r17_network.client[26] 	hdistance[26] 	3.0604500539733
scalar tree_4_3_u09_r17_network.client[26] 	downloads[26] 	12043
scalar tree_4_3_u09_r17_network.client[26] 	avg_time[26] 	0.004893960299
scalar tree_4_3_u09_r17_network.client[27] 	hdistance[27] 	2.9550845319203
scalar tree_4_3_u09_r17_network.client[27] 	downloads[27] 	11889
scalar tree_4_3_u09_r17_network.client[27] 	avg_time[27] 	0.004690108494
scalar tree_4_3_u09_r17_network.client[28] 	hdistance[28] 	2.922518765638
scalar tree_4_3_u09_r17_network.client[28] 	downloads[28] 	11990
scalar tree_4_3_u09_r17_network.client[28] 	avg_time[28] 	0.004655293219
scalar tree_4_3_u09_r17_network.client[29] 	hdistance[29] 	2.960628604865
scalar tree_4_3_u09_r17_network.client[29] 	downloads[29] 	11963
scalar tree_4_3_u09_r17_network.client[29] 	avg_time[29] 	0.004702412701
scalar tree_4_3_u09_r17_network.client[30] 	hdistance[30] 	3.0204236644443
scalar tree_4_3_u09_r17_network.client[30] 	downloads[30] 	11849
scalar tree_4_3_u09_r17_network.client[30] 	avg_time[30] 	0.004834124541
scalar tree_4_3_u09_r17_network.client[31] 	hdistance[31] 	3.0235553296051
scalar tree_4_3_u09_r17_network.client[31] 	downloads[31] 	11802
scalar tree_4_3_u09_r17_network.client[31] 	avg_time[31] 	0.004846802708
scalar tree_4_3_u09_r17_network.client[32] 	hdistance[32] 	2.9022443890274
scalar tree_4_3_u09_r17_network.client[32] 	downloads[32] 	12030
scalar tree_4_3_u09_r17_network.client[32] 	avg_time[32] 	0.004631353311
scalar tree_4_3_u09_r17_network.client[33] 	hdistance[33] 	3.0419895026243
scalar tree_4_3_u09_r17_network.client[33] 	downloads[33] 	12003
scalar tree_4_3_u09_r17_network.client[33] 	avg_time[33] 	0.004877283307
scalar tree_4_3_u09_r17_network.client[34] 	hdistance[34] 	2.9466096722823
scalar tree_4_3_u09_r17_network.client[34] 	downloads[34] 	11931
scalar tree_4_3_u09_r17_network.client[34] 	avg_time[34] 	0.004700692693
scalar tree_4_3_u09_r17_network.client[35] 	hdistance[35] 	3.0541955090326
scalar tree_4_3_u09_r17_network.client[35] 	downloads[35] 	11846
scalar tree_4_3_u09_r17_network.client[35] 	avg_time[35] 	0.004879787695
scalar tree_4_3_u09_r17_network.client[36] 	hdistance[36] 	2.9807023355971
scalar tree_4_3_u09_r17_network.client[36] 	downloads[36] 	12074
scalar tree_4_3_u09_r17_network.client[36] 	avg_time[36] 	0.004744287165
scalar tree_4_3_u09_r17_network.client[37] 	hdistance[37] 	2.9554145516075
scalar tree_4_3_u09_r17_network.client[37] 	downloads[37] 	11820
scalar tree_4_3_u09_r17_network.client[37] 	avg_time[37] 	0.004721026043
scalar tree_4_3_u09_r17_network.client[38] 	hdistance[38] 	2.9400689249391
scalar tree_4_3_u09_r17_network.client[38] 	downloads[38] 	11897
scalar tree_4_3_u09_r17_network.client[38] 	avg_time[38] 	0.004675125208
scalar tree_4_3_u09_r17_network.client[39] 	hdistance[39] 	3.1092632629303
scalar tree_4_3_u09_r17_network.client[39] 	downloads[39] 	12026
scalar tree_4_3_u09_r17_network.client[39] 	avg_time[39] 	0.004929444253
