version 2
run General-81-20160825-09:18:15-24543
attr D lce
attr F nrr
attr R lru
attr a 0.9
attr configname General
attr datetime 20160825-09:18:15
attr experiment General
attr inifile hw5115/scenario_C/omnetp.ini
attr iterationvars "$net=dtelecom, $rep=10, $a=0.9, $F=nrr, $D=lce, $R=lru, $window=60, $variance=0.05, $mytime=600"
attr iterationvars2 "$net=dtelecom, $rep=10, $a=0.9, $F=nrr, $D=lce, $R=lru, $window=60, $variance=0.05, $mytime=600, $repetition=0"
attr measurement "$net=dtelecom, $rep=10, $a=0.9, $F=nrr, $D=lce, $R=lru, $window=60, $variance=0.05, $mytime=600"
attr mytime 600
attr net dtelecom
attr network networks.${net=dtelecom}_network
attr processid 24543
attr rep 10
attr repetition 0
attr replication #0
attr resultdir results
attr runnumber 81
attr seedset 10
attr variance 0.05
attr window 60

scalar . 	a 	0.9
scalar . 	mytime 	600
scalar . 	rep 	10
scalar . 	variance 	0.05
scalar . 	window 	60
scalar dtelecom_network.content_distribution 	repo-0 	16
scalar dtelecom_network.content_distribution 	repo-1 	23
scalar dtelecom_network.content_distribution 	repo-2 	58
scalar dtelecom_network.content_distribution 	repo-3 	28
scalar dtelecom_network.content_distribution 	repo-4 	42
scalar dtelecom_network.content_distribution 	repo-5 	46
scalar dtelecom_network.content_distribution 	repo-6 	6
scalar dtelecom_network.content_distribution 	repo-7 	18
scalar dtelecom_network.content_distribution 	repo-8 	25
scalar dtelecom_network.content_distribution 	repo-9 	10
scalar dtelecom_network.content_distribution 	repo-10 	44
scalar dtelecom_network.content_distribution 	repo-11 	54
scalar dtelecom_network.content_distribution 	repo-12 	24
scalar dtelecom_network.content_distribution 	repo-13 	31
scalar dtelecom_network.content_distribution 	repo-14 	65
scalar dtelecom_network.content_distribution 	repo-15 	27
scalar dtelecom_network.content_distribution 	client-0 	46
scalar dtelecom_network.content_distribution 	client-1 	30
scalar dtelecom_network.content_distribution 	client-2 	8
scalar dtelecom_network.content_distribution 	client-3 	49
scalar dtelecom_network.content_distribution 	client-4 	66
scalar dtelecom_network.content_distribution 	client-5 	58
scalar dtelecom_network.content_distribution 	client-6 	32
scalar dtelecom_network.content_distribution 	client-7 	40
scalar dtelecom_network.content_distribution 	client-8 	42
scalar dtelecom_network.content_distribution 	client-9 	45
scalar dtelecom_network.content_distribution 	client-10 	33
scalar dtelecom_network.content_distribution 	client-11 	28
scalar dtelecom_network.content_distribution 	client-12 	3
scalar dtelecom_network.content_distribution 	client-13 	57
scalar dtelecom_network.content_distribution 	client-14 	50
scalar dtelecom_network.content_distribution 	client-15 	17
scalar dtelecom_network.content_distribution 	client-16 	59
scalar dtelecom_network.content_distribution 	client-17 	48
scalar dtelecom_network.content_distribution 	client-18 	23
scalar dtelecom_network.content_distribution 	client-19 	22
scalar dtelecom_network.content_distribution 	client-20 	67
scalar dtelecom_network.content_distribution 	client-21 	62
scalar dtelecom_network.content_distribution 	client-22 	56
scalar dtelecom_network.content_distribution 	client-23 	55
scalar dtelecom_network.content_distribution 	client-24 	53
scalar dtelecom_network.content_distribution 	client-25 	36
scalar dtelecom_network.content_distribution 	client-26 	51
scalar dtelecom_network.content_distribution 	client-27 	37
scalar dtelecom_network.content_distribution 	client-28 	54
scalar dtelecom_network.content_distribution 	client-29 	4
scalar dtelecom_network.content_distribution 	client-30 	31
scalar dtelecom_network.content_distribution 	client-31 	9
scalar dtelecom_network.content_distribution 	repo-0_card 	6240
scalar dtelecom_network.content_distribution 	repo-0_price 	0
scalar dtelecom_network.content_distribution 	repo-1_card 	6300
scalar dtelecom_network.content_distribution 	repo-1_price 	0
scalar dtelecom_network.content_distribution 	repo-2_card 	6351
scalar dtelecom_network.content_distribution 	repo-2_price 	0
scalar dtelecom_network.content_distribution 	repo-3_card 	6069
scalar dtelecom_network.content_distribution 	repo-3_price 	0
scalar dtelecom_network.content_distribution 	repo-4_card 	6322
scalar dtelecom_network.content_distribution 	repo-4_price 	0
scalar dtelecom_network.content_distribution 	repo-5_card 	6183
scalar dtelecom_network.content_distribution 	repo-5_price 	0
scalar dtelecom_network.content_distribution 	repo-6_card 	6236
scalar dtelecom_network.content_distribution 	repo-6_price 	0
scalar dtelecom_network.content_distribution 	repo-7_card 	6223
scalar dtelecom_network.content_distribution 	repo-7_price 	0
scalar dtelecom_network.content_distribution 	repo-8_card 	6295
scalar dtelecom_network.content_distribution 	repo-8_price 	0
scalar dtelecom_network.content_distribution 	repo-9_card 	6273
scalar dtelecom_network.content_distribution 	repo-9_price 	0
scalar dtelecom_network.content_distribution 	repo-10_card 	6196
scalar dtelecom_network.content_distribution 	repo-10_price 	0
scalar dtelecom_network.content_distribution 	repo-11_card 	6130
scalar dtelecom_network.content_distribution 	repo-11_price 	0
scalar dtelecom_network.content_distribution 	repo-12_card 	6287
scalar dtelecom_network.content_distribution 	repo-12_price 	0
scalar dtelecom_network.content_distribution 	repo-13_card 	6300
scalar dtelecom_network.content_distribution 	repo-13_price 	0
scalar dtelecom_network.content_distribution 	repo-14_card 	6333
scalar dtelecom_network.content_distribution 	repo-14_price 	0
scalar dtelecom_network.content_distribution 	repo-15_card 	6262
scalar dtelecom_network.content_distribution 	repo-15_price 	0
scalar dtelecom_network.statistics 	stabilization_time 	542.7
scalar dtelecom_network.statistics 	p_hit 	0.23442694136954
scalar dtelecom_network.statistics 	interests 	13842.352941176
scalar dtelecom_network.statistics 	data 	8206.8235294118
scalar dtelecom_network.statistics 	hdistance 	2.0340802503642
scalar dtelecom_network.statistics 	avg_time 	0.02301963535
scalar dtelecom_network.statistics 	downloads 	383051
scalar dtelecom_network.statistics 	total_cost 	0
scalar dtelecom_network.statistics 	total_replicas 	100000
scalar dtelecom_network.statistics 	inner_hit 	0.42283142453616
scalar dtelecom_network.node[0].core_layer 	interests[0] 	3425
scalar dtelecom_network.node[0].core_layer 	data[0] 	1210
scalar dtelecom_network.node[0].core_layer 	repo_int[0] 	221085
scalar dtelecom_network.node[0].content_store 	p_hit[0] 	0.64671532846715
scalar dtelecom_network.node[0].content_store 	hits[0] 	2215
scalar dtelecom_network.node[0].content_store 	misses[0] 	1210
scalar dtelecom_network.node[0].content_store 	decision_yes[0] 	1210
scalar dtelecom_network.node[0].content_store 	decision_no[0] 	0
scalar dtelecom_network.node[0].content_store 	decision_ratio[0] 	1
scalar dtelecom_network.node[1].core_layer 	interests[1] 	190629
scalar dtelecom_network.node[1].core_layer 	data[1] 	186870
scalar dtelecom_network.node[1].content_store 	p_hit[1] 	0.019477624076085
scalar dtelecom_network.node[1].content_store 	hits[1] 	3713
scalar dtelecom_network.node[1].content_store 	misses[1] 	186916
scalar dtelecom_network.node[1].content_store 	decision_yes[1] 	186847
scalar dtelecom_network.node[1].content_store 	decision_no[1] 	0
scalar dtelecom_network.node[1].content_store 	decision_ratio[1] 	1
scalar dtelecom_network.node[2].core_layer 	interests[2] 	7378
scalar dtelecom_network.node[2].core_layer 	data[2] 	889
scalar dtelecom_network.node[2].content_store 	p_hit[2] 	0.87937110328002
scalar dtelecom_network.node[2].content_store 	hits[2] 	6488
scalar dtelecom_network.node[2].content_store 	misses[2] 	890
scalar dtelecom_network.node[2].content_store 	decision_yes[2] 	889
scalar dtelecom_network.node[2].content_store 	decision_no[2] 	0
scalar dtelecom_network.node[2].content_store 	decision_ratio[2] 	1
scalar dtelecom_network.node[3].core_layer 	interests[3] 	29219
scalar dtelecom_network.node[3].core_layer 	data[3] 	9451
scalar dtelecom_network.node[3].content_store 	p_hit[3] 	0.67651185872206
scalar dtelecom_network.node[3].content_store 	hits[3] 	19767
scalar dtelecom_network.node[3].content_store 	misses[3] 	9452
scalar dtelecom_network.node[3].content_store 	decision_yes[3] 	9451
scalar dtelecom_network.node[3].content_store 	decision_no[3] 	0
scalar dtelecom_network.node[3].content_store 	decision_ratio[3] 	1
scalar dtelecom_network.node[4].core_layer 	interests[4] 	54516
scalar dtelecom_network.node[4].core_layer 	data[4] 	44363
scalar dtelecom_network.node[4].content_store 	p_hit[4] 	0.18442292171106
scalar dtelecom_network.node[4].content_store 	hits[4] 	10054
scalar dtelecom_network.node[4].content_store 	misses[4] 	44462
scalar dtelecom_network.node[4].content_store 	decision_yes[4] 	44320
scalar dtelecom_network.node[4].content_store 	decision_no[4] 	0
scalar dtelecom_network.node[4].content_store 	decision_ratio[4] 	1
scalar dtelecom_network.node[5].core_layer 	interests[5] 	0
scalar dtelecom_network.node[5].core_layer 	data[5] 	0
scalar dtelecom_network.node[5].content_store 	p_hit[5] 	-nan
scalar dtelecom_network.node[5].content_store 	hits[5] 	0
scalar dtelecom_network.node[5].content_store 	misses[5] 	0
scalar dtelecom_network.node[5].content_store 	decision_yes[5] 	0
scalar dtelecom_network.node[5].content_store 	decision_no[5] 	0
scalar dtelecom_network.node[5].content_store 	decision_ratio[5] 	0
scalar dtelecom_network.node[6].core_layer 	interests[6] 	13757
scalar dtelecom_network.node[6].core_layer 	repo_load[6] 	12829
scalar dtelecom_network.node[6].core_layer 	data[6] 	0
scalar dtelecom_network.node[6].content_store 	p_hit[6] 	0.067456567565603
scalar dtelecom_network.node[6].content_store 	hits[6] 	928
scalar dtelecom_network.node[6].content_store 	misses[6] 	12829
scalar dtelecom_network.node[6].content_store 	decision_yes[6] 	12829
scalar dtelecom_network.node[6].content_store 	decision_no[6] 	0
scalar dtelecom_network.node[6].content_store 	decision_ratio[6] 	1
scalar dtelecom_network.node[7].core_layer 	interests[7] 	0
scalar dtelecom_network.node[7].core_layer 	data[7] 	0
scalar dtelecom_network.node[7].content_store 	p_hit[7] 	-nan
scalar dtelecom_network.node[7].content_store 	hits[7] 	0
scalar dtelecom_network.node[7].content_store 	misses[7] 	0
scalar dtelecom_network.node[7].content_store 	decision_yes[7] 	0
scalar dtelecom_network.node[7].content_store 	decision_no[7] 	0
scalar dtelecom_network.node[7].content_store 	decision_ratio[7] 	0
scalar dtelecom_network.node[8].core_layer 	interests[8] 	13740
scalar dtelecom_network.node[8].core_layer 	data[8] 	10119
scalar dtelecom_network.node[8].content_store 	p_hit[8] 	0.2636826783115
scalar dtelecom_network.node[8].content_store 	hits[8] 	3623
scalar dtelecom_network.node[8].content_store 	misses[8] 	10117
scalar dtelecom_network.node[8].content_store 	decision_yes[8] 	10119
scalar dtelecom_network.node[8].content_store 	decision_no[8] 	0
scalar dtelecom_network.node[8].content_store 	decision_ratio[8] 	1
scalar dtelecom_network.node[9].core_layer 	interests[9] 	15307
scalar dtelecom_network.node[9].core_layer 	data[9] 	10605
scalar dtelecom_network.node[9].content_store 	p_hit[9] 	0.30698373293265
scalar dtelecom_network.node[9].content_store 	hits[9] 	4699
scalar dtelecom_network.node[9].content_store 	misses[9] 	10608
scalar dtelecom_network.node[9].content_store 	decision_yes[9] 	10605
scalar dtelecom_network.node[9].content_store 	decision_no[9] 	0
scalar dtelecom_network.node[9].content_store 	decision_ratio[9] 	1
scalar dtelecom_network.node[10].core_layer 	interests[10] 	14184
scalar dtelecom_network.node[10].core_layer 	repo_load[10] 	13511
scalar dtelecom_network.node[10].core_layer 	data[10] 	0
scalar dtelecom_network.node[10].content_store 	p_hit[10] 	0.047447828539199
scalar dtelecom_network.node[10].content_store 	hits[10] 	673
scalar dtelecom_network.node[10].content_store 	misses[10] 	13511
scalar dtelecom_network.node[10].content_store 	decision_yes[10] 	13511
scalar dtelecom_network.node[10].content_store 	decision_no[10] 	0
scalar dtelecom_network.node[10].content_store 	decision_ratio[10] 	1
scalar dtelecom_network.node[11].core_layer 	interests[11] 	0
scalar dtelecom_network.node[11].core_layer 	data[11] 	0
scalar dtelecom_network.node[11].content_store 	p_hit[11] 	-nan
scalar dtelecom_network.node[11].content_store 	hits[11] 	0
scalar dtelecom_network.node[11].content_store 	misses[11] 	0
scalar dtelecom_network.node[11].content_store 	decision_yes[11] 	0
scalar dtelecom_network.node[11].content_store 	decision_no[11] 	0
scalar dtelecom_network.node[11].content_store 	decision_ratio[11] 	0
scalar dtelecom_network.node[12].core_layer 	interests[12] 	0
scalar dtelecom_network.node[12].core_layer 	data[12] 	0
scalar dtelecom_network.node[12].content_store 	p_hit[12] 	-nan
scalar dtelecom_network.node[12].content_store 	hits[12] 	0
scalar dtelecom_network.node[12].content_store 	misses[12] 	0
scalar dtelecom_network.node[12].content_store 	decision_yes[12] 	0
scalar dtelecom_network.node[12].content_store 	decision_no[12] 	0
scalar dtelecom_network.node[12].content_store 	decision_ratio[12] 	0
scalar dtelecom_network.node[13].core_layer 	interests[13] 	0
scalar dtelecom_network.node[13].core_layer 	data[13] 	0
scalar dtelecom_network.node[13].content_store 	p_hit[13] 	-nan
scalar dtelecom_network.node[13].content_store 	hits[13] 	0
scalar dtelecom_network.node[13].content_store 	misses[13] 	0
scalar dtelecom_network.node[13].content_store 	decision_yes[13] 	0
scalar dtelecom_network.node[13].content_store 	decision_no[13] 	0
scalar dtelecom_network.node[13].content_store 	decision_ratio[13] 	0
scalar dtelecom_network.node[14].core_layer 	interests[14] 	0
scalar dtelecom_network.node[14].core_layer 	data[14] 	0
scalar dtelecom_network.node[14].content_store 	p_hit[14] 	-nan
scalar dtelecom_network.node[14].content_store 	hits[14] 	0
scalar dtelecom_network.node[14].content_store 	misses[14] 	0
scalar dtelecom_network.node[14].content_store 	decision_yes[14] 	0
scalar dtelecom_network.node[14].content_store 	decision_no[14] 	0
scalar dtelecom_network.node[14].content_store 	decision_ratio[14] 	0
scalar dtelecom_network.node[15].core_layer 	interests[15] 	0
scalar dtelecom_network.node[15].core_layer 	data[15] 	0
scalar dtelecom_network.node[15].content_store 	p_hit[15] 	-nan
scalar dtelecom_network.node[15].content_store 	hits[15] 	0
scalar dtelecom_network.node[15].content_store 	misses[15] 	0
scalar dtelecom_network.node[15].content_store 	decision_yes[15] 	0
scalar dtelecom_network.node[15].content_store 	decision_no[15] 	0
scalar dtelecom_network.node[15].content_store 	decision_ratio[15] 	0
scalar dtelecom_network.node[16].core_layer 	interests[16] 	14598
scalar dtelecom_network.node[16].core_layer 	repo_load[16] 	13801
scalar dtelecom_network.node[16].core_layer 	data[16] 	0
scalar dtelecom_network.node[16].content_store 	p_hit[16] 	0.054596520071243
scalar dtelecom_network.node[16].content_store 	hits[16] 	797
scalar dtelecom_network.node[16].content_store 	misses[16] 	13801
scalar dtelecom_network.node[16].content_store 	decision_yes[16] 	13801
scalar dtelecom_network.node[16].content_store 	decision_no[16] 	0
scalar dtelecom_network.node[16].content_store 	decision_ratio[16] 	1
scalar dtelecom_network.node[17].core_layer 	interests[17] 	13886
scalar dtelecom_network.node[17].core_layer 	data[17] 	10062
scalar dtelecom_network.node[17].content_store 	p_hit[17] 	0.27531326515915
scalar dtelecom_network.node[17].content_store 	hits[17] 	3823
scalar dtelecom_network.node[17].content_store 	misses[17] 	10063
scalar dtelecom_network.node[17].content_store 	decision_yes[17] 	10062
scalar dtelecom_network.node[17].content_store 	decision_no[17] 	0
scalar dtelecom_network.node[17].content_store 	decision_ratio[17] 	1
scalar dtelecom_network.node[18].core_layer 	interests[18] 	13518
scalar dtelecom_network.node[18].core_layer 	repo_load[18] 	12919
scalar dtelecom_network.node[18].core_layer 	data[18] 	0
scalar dtelecom_network.node[18].content_store 	p_hit[18] 	0.044311288652167
scalar dtelecom_network.node[18].content_store 	hits[18] 	599
scalar dtelecom_network.node[18].content_store 	misses[18] 	12919
scalar dtelecom_network.node[18].content_store 	decision_yes[18] 	12919
scalar dtelecom_network.node[18].content_store 	decision_no[18] 	0
scalar dtelecom_network.node[18].content_store 	decision_ratio[18] 	1
scalar dtelecom_network.node[19].core_layer 	interests[19] 	0
scalar dtelecom_network.node[19].core_layer 	data[19] 	0
scalar dtelecom_network.node[19].content_store 	p_hit[19] 	-nan
scalar dtelecom_network.node[19].content_store 	hits[19] 	0
scalar dtelecom_network.node[19].content_store 	misses[19] 	0
scalar dtelecom_network.node[19].content_store 	decision_yes[19] 	0
scalar dtelecom_network.node[19].content_store 	decision_no[19] 	0
scalar dtelecom_network.node[19].content_store 	decision_ratio[19] 	0
scalar dtelecom_network.node[20].core_layer 	interests[20] 	0
scalar dtelecom_network.node[20].core_layer 	data[20] 	0
scalar dtelecom_network.node[20].content_store 	p_hit[20] 	-nan
scalar dtelecom_network.node[20].content_store 	hits[20] 	0
scalar dtelecom_network.node[20].content_store 	misses[20] 	0
scalar dtelecom_network.node[20].content_store 	decision_yes[20] 	0
scalar dtelecom_network.node[20].content_store 	decision_no[20] 	0
scalar dtelecom_network.node[20].content_store 	decision_ratio[20] 	0
scalar dtelecom_network.node[21].core_layer 	interests[21] 	0
scalar dtelecom_network.node[21].core_layer 	data[21] 	0
scalar dtelecom_network.node[21].content_store 	p_hit[21] 	-nan
scalar dtelecom_network.node[21].content_store 	hits[21] 	0
scalar dtelecom_network.node[21].content_store 	misses[21] 	0
scalar dtelecom_network.node[21].content_store 	decision_yes[21] 	0
scalar dtelecom_network.node[21].content_store 	decision_no[21] 	0
scalar dtelecom_network.node[21].content_store 	decision_ratio[21] 	0
scalar dtelecom_network.node[22].core_layer 	interests[22] 	13648
scalar dtelecom_network.node[22].core_layer 	data[22] 	10089
scalar dtelecom_network.node[22].content_store 	p_hit[22] 	0.26069753810082
scalar dtelecom_network.node[22].content_store 	hits[22] 	3558
scalar dtelecom_network.node[22].content_store 	misses[22] 	10090
scalar dtelecom_network.node[22].content_store 	decision_yes[22] 	10089
scalar dtelecom_network.node[22].content_store 	decision_no[22] 	0
scalar dtelecom_network.node[22].content_store 	decision_ratio[22] 	1
scalar dtelecom_network.node[23].core_layer 	interests[23] 	40347
scalar dtelecom_network.node[23].core_layer 	repo_load[23] 	14810
scalar dtelecom_network.node[23].core_layer 	data[23] 	20852
scalar dtelecom_network.node[23].content_store 	p_hit[23] 	0.11584504424121
scalar dtelecom_network.node[23].content_store 	hits[23] 	4674
scalar dtelecom_network.node[23].content_store 	misses[23] 	35673
scalar dtelecom_network.node[23].content_store 	decision_yes[23] 	35656
scalar dtelecom_network.node[23].content_store 	decision_no[23] 	0
scalar dtelecom_network.node[23].content_store 	decision_ratio[23] 	1
scalar dtelecom_network.node[24].core_layer 	interests[24] 	15034
scalar dtelecom_network.node[24].core_layer 	repo_load[24] 	14296
scalar dtelecom_network.node[24].core_layer 	data[24] 	0
scalar dtelecom_network.node[24].content_store 	p_hit[24] 	0.049088732206997
scalar dtelecom_network.node[24].content_store 	hits[24] 	738
scalar dtelecom_network.node[24].content_store 	misses[24] 	14296
scalar dtelecom_network.node[24].content_store 	decision_yes[24] 	14296
scalar dtelecom_network.node[24].content_store 	decision_no[24] 	0
scalar dtelecom_network.node[24].content_store 	decision_ratio[24] 	1
scalar dtelecom_network.node[25].core_layer 	interests[25] 	13881
scalar dtelecom_network.node[25].core_layer 	repo_load[25] 	13318
scalar dtelecom_network.node[25].core_layer 	data[25] 	0
scalar dtelecom_network.node[25].content_store 	p_hit[25] 	0.040559037533319
scalar dtelecom_network.node[25].content_store 	hits[25] 	563
scalar dtelecom_network.node[25].content_store 	misses[25] 	13318
scalar dtelecom_network.node[25].content_store 	decision_yes[25] 	13318
scalar dtelecom_network.node[25].content_store 	decision_no[25] 	0
scalar dtelecom_network.node[25].content_store 	decision_ratio[25] 	1
scalar dtelecom_network.node[26].core_layer 	interests[26] 	4579
scalar dtelecom_network.node[26].core_layer 	data[26] 	1750
scalar dtelecom_network.node[26].content_store 	p_hit[26] 	0.6180388731164
scalar dtelecom_network.node[26].content_store 	hits[26] 	2830
scalar dtelecom_network.node[26].content_store 	misses[26] 	1749
scalar dtelecom_network.node[26].content_store 	decision_yes[26] 	1750
scalar dtelecom_network.node[26].content_store 	decision_no[26] 	0
scalar dtelecom_network.node[26].content_store 	decision_ratio[26] 	1
scalar dtelecom_network.node[27].core_layer 	interests[27] 	14784
scalar dtelecom_network.node[27].core_layer 	repo_load[27] 	13985
scalar dtelecom_network.node[27].core_layer 	data[27] 	0
scalar dtelecom_network.node[27].content_store 	p_hit[27] 	0.054044913419913
scalar dtelecom_network.node[27].content_store 	hits[27] 	799
scalar dtelecom_network.node[27].content_store 	misses[27] 	13985
scalar dtelecom_network.node[27].content_store 	decision_yes[27] 	13985
scalar dtelecom_network.node[27].content_store 	decision_no[27] 	0
scalar dtelecom_network.node[27].content_store 	decision_ratio[27] 	1
scalar dtelecom_network.node[28].core_layer 	interests[28] 	27056
scalar dtelecom_network.node[28].core_layer 	repo_load[28] 	14182
scalar dtelecom_network.node[28].core_layer 	data[28] 	10029
scalar dtelecom_network.node[28].content_store 	p_hit[28] 	0.10481963335305
scalar dtelecom_network.node[28].content_store 	hits[28] 	2836
scalar dtelecom_network.node[28].content_store 	misses[28] 	24220
scalar dtelecom_network.node[28].content_store 	decision_yes[28] 	24211
scalar dtelecom_network.node[28].content_store 	decision_no[28] 	0
scalar dtelecom_network.node[28].content_store 	decision_ratio[28] 	1
scalar dtelecom_network.node[29].core_layer 	interests[29] 	0
scalar dtelecom_network.node[29].core_layer 	data[29] 	0
scalar dtelecom_network.node[29].content_store 	p_hit[29] 	-nan
scalar dtelecom_network.node[29].content_store 	hits[29] 	0
scalar dtelecom_network.node[29].content_store 	misses[29] 	0
scalar dtelecom_network.node[29].content_store 	decision_yes[29] 	0
scalar dtelecom_network.node[29].content_store 	decision_no[29] 	0
scalar dtelecom_network.node[29].content_store 	decision_ratio[29] 	0
scalar dtelecom_network.node[30].core_layer 	interests[30] 	13669
scalar dtelecom_network.node[30].core_layer 	data[30] 	10328
scalar dtelecom_network.node[30].content_store 	p_hit[30] 	0.24420220937889
scalar dtelecom_network.node[30].content_store 	hits[30] 	3338
scalar dtelecom_network.node[30].content_store 	misses[30] 	10331
scalar dtelecom_network.node[30].content_store 	decision_yes[30] 	10328
scalar dtelecom_network.node[30].content_store 	decision_no[30] 	0
scalar dtelecom_network.node[30].content_store 	decision_ratio[30] 	1
scalar dtelecom_network.node[31].core_layer 	interests[31] 	26482
scalar dtelecom_network.node[31].core_layer 	repo_load[31] 	13814
scalar dtelecom_network.node[31].core_layer 	data[31] 	10106
scalar dtelecom_network.node[31].content_store 	p_hit[31] 	0.096593912846462
scalar dtelecom_network.node[31].content_store 	hits[31] 	2558
scalar dtelecom_network.node[31].content_store 	misses[31] 	23924
scalar dtelecom_network.node[31].content_store 	decision_yes[31] 	23920
scalar dtelecom_network.node[31].content_store 	decision_no[31] 	0
scalar dtelecom_network.node[31].content_store 	decision_ratio[31] 	1
scalar dtelecom_network.node[32].core_layer 	interests[32] 	13528
scalar dtelecom_network.node[32].core_layer 	data[32] 	10025
scalar dtelecom_network.node[32].content_store 	p_hit[32] 	0.25872264931993
scalar dtelecom_network.node[32].content_store 	hits[32] 	3500
scalar dtelecom_network.node[32].content_store 	misses[32] 	10028
scalar dtelecom_network.node[32].content_store 	decision_yes[32] 	10025
scalar dtelecom_network.node[32].content_store 	decision_no[32] 	0
scalar dtelecom_network.node[32].content_store 	decision_ratio[32] 	1
scalar dtelecom_network.node[33].core_layer 	interests[33] 	14726
scalar dtelecom_network.node[33].core_layer 	data[33] 	9946
scalar dtelecom_network.node[33].content_store 	p_hit[33] 	0.32432432432432
scalar dtelecom_network.node[33].content_store 	hits[33] 	4776
scalar dtelecom_network.node[33].content_store 	misses[33] 	9950
scalar dtelecom_network.node[33].content_store 	decision_yes[33] 	9946
scalar dtelecom_network.node[33].content_store 	decision_no[33] 	0
scalar dtelecom_network.node[33].content_store 	decision_ratio[33] 	1
scalar dtelecom_network.node[34].core_layer 	interests[34] 	0
scalar dtelecom_network.node[34].core_layer 	data[34] 	0
scalar dtelecom_network.node[34].content_store 	p_hit[34] 	-nan
scalar dtelecom_network.node[34].content_store 	hits[34] 	0
scalar dtelecom_network.node[34].content_store 	misses[34] 	0
scalar dtelecom_network.node[34].content_store 	decision_yes[34] 	0
scalar dtelecom_network.node[34].content_store 	decision_no[34] 	0
scalar dtelecom_network.node[34].content_store 	decision_ratio[34] 	0
scalar dtelecom_network.node[35].core_layer 	interests[35] 	0
scalar dtelecom_network.node[35].core_layer 	data[35] 	0
scalar dtelecom_network.node[35].content_store 	p_hit[35] 	-nan
scalar dtelecom_network.node[35].content_store 	hits[35] 	0
scalar dtelecom_network.node[35].content_store 	misses[35] 	0
scalar dtelecom_network.node[35].content_store 	decision_yes[35] 	0
scalar dtelecom_network.node[35].content_store 	decision_no[35] 	0
scalar dtelecom_network.node[35].content_store 	decision_ratio[35] 	0
scalar dtelecom_network.node[36].core_layer 	interests[36] 	13549
scalar dtelecom_network.node[36].core_layer 	data[36] 	10076
scalar dtelecom_network.node[36].content_store 	p_hit[36] 	0.25625507417522
scalar dtelecom_network.node[36].content_store 	hits[36] 	3472
scalar dtelecom_network.node[36].content_store 	misses[36] 	10077
scalar dtelecom_network.node[36].content_store 	decision_yes[36] 	10076
scalar dtelecom_network.node[36].content_store 	decision_no[36] 	0
scalar dtelecom_network.node[36].content_store 	decision_ratio[36] 	1
scalar dtelecom_network.node[37].core_layer 	interests[37] 	14011
scalar dtelecom_network.node[37].core_layer 	data[37] 	10161
scalar dtelecom_network.node[37].content_store 	p_hit[37] 	0.27471272571551
scalar dtelecom_network.node[37].content_store 	hits[37] 	3849
scalar dtelecom_network.node[37].content_store 	misses[37] 	10162
scalar dtelecom_network.node[37].content_store 	decision_yes[37] 	10161
scalar dtelecom_network.node[37].content_store 	decision_no[37] 	0
scalar dtelecom_network.node[37].content_store 	decision_ratio[37] 	1
scalar dtelecom_network.node[38].core_layer 	interests[38] 	0
scalar dtelecom_network.node[38].core_layer 	data[38] 	0
scalar dtelecom_network.node[38].content_store 	p_hit[38] 	-nan
scalar dtelecom_network.node[38].content_store 	hits[38] 	0
scalar dtelecom_network.node[38].content_store 	misses[38] 	0
scalar dtelecom_network.node[38].content_store 	decision_yes[38] 	0
scalar dtelecom_network.node[38].content_store 	decision_no[38] 	0
scalar dtelecom_network.node[38].content_store 	decision_ratio[38] 	0
scalar dtelecom_network.node[39].core_layer 	interests[39] 	0
scalar dtelecom_network.node[39].core_layer 	data[39] 	0
scalar dtelecom_network.node[39].content_store 	p_hit[39] 	-nan
scalar dtelecom_network.node[39].content_store 	hits[39] 	0
scalar dtelecom_network.node[39].content_store 	misses[39] 	0
scalar dtelecom_network.node[39].content_store 	decision_yes[39] 	0
scalar dtelecom_network.node[39].content_store 	decision_no[39] 	0
scalar dtelecom_network.node[39].content_store 	decision_ratio[39] 	0
scalar dtelecom_network.node[40].core_layer 	interests[40] 	16018
scalar dtelecom_network.node[40].core_layer 	data[40] 	10235
scalar dtelecom_network.node[40].content_store 	p_hit[40] 	0.36090648020976
scalar dtelecom_network.node[40].content_store 	hits[40] 	5781
scalar dtelecom_network.node[40].content_store 	misses[40] 	10237
scalar dtelecom_network.node[40].content_store 	decision_yes[40] 	10235
scalar dtelecom_network.node[40].content_store 	decision_no[40] 	0
scalar dtelecom_network.node[40].content_store 	decision_ratio[40] 	1
scalar dtelecom_network.node[41].core_layer 	interests[41] 	0
scalar dtelecom_network.node[41].core_layer 	data[41] 	0
scalar dtelecom_network.node[41].content_store 	p_hit[41] 	-nan
scalar dtelecom_network.node[41].content_store 	hits[41] 	0
scalar dtelecom_network.node[41].content_store 	misses[41] 	0
scalar dtelecom_network.node[41].content_store 	decision_yes[41] 	0
scalar dtelecom_network.node[41].content_store 	decision_no[41] 	0
scalar dtelecom_network.node[41].content_store 	decision_ratio[41] 	0
scalar dtelecom_network.node[42].core_layer 	interests[42] 	26514
scalar dtelecom_network.node[42].core_layer 	repo_load[42] 	14093
scalar dtelecom_network.node[42].core_layer 	data[42] 	10101
scalar dtelecom_network.node[42].content_store 	p_hit[42] 	0.087387795127103
scalar dtelecom_network.node[42].content_store 	hits[42] 	2317
scalar dtelecom_network.node[42].content_store 	misses[42] 	24197
scalar dtelecom_network.node[42].content_store 	decision_yes[42] 	24194
scalar dtelecom_network.node[42].content_store 	decision_no[42] 	0
scalar dtelecom_network.node[42].content_store 	decision_ratio[42] 	1
scalar dtelecom_network.node[43].core_layer 	interests[43] 	0
scalar dtelecom_network.node[43].core_layer 	data[43] 	0
scalar dtelecom_network.node[43].content_store 	p_hit[43] 	-nan
scalar dtelecom_network.node[43].content_store 	hits[43] 	0
scalar dtelecom_network.node[43].content_store 	misses[43] 	0
scalar dtelecom_network.node[43].content_store 	decision_yes[43] 	0
scalar dtelecom_network.node[43].content_store 	decision_no[43] 	0
scalar dtelecom_network.node[43].content_store 	decision_ratio[43] 	0
scalar dtelecom_network.node[44].core_layer 	interests[44] 	13688
scalar dtelecom_network.node[44].core_layer 	repo_load[44] 	13117
scalar dtelecom_network.node[44].core_layer 	data[44] 	0
scalar dtelecom_network.node[44].content_store 	p_hit[44] 	0.041715371127995
scalar dtelecom_network.node[44].content_store 	hits[44] 	571
scalar dtelecom_network.node[44].content_store 	misses[44] 	13117
scalar dtelecom_network.node[44].content_store 	decision_yes[44] 	13117
scalar dtelecom_network.node[44].content_store 	decision_no[44] 	0
scalar dtelecom_network.node[44].content_store 	decision_ratio[44] 	1
scalar dtelecom_network.node[45].core_layer 	interests[45] 	14414
scalar dtelecom_network.node[45].core_layer 	data[45] 	10075
scalar dtelecom_network.node[45].content_store 	p_hit[45] 	0.30061051755238
scalar dtelecom_network.node[45].content_store 	hits[45] 	4333
scalar dtelecom_network.node[45].content_store 	misses[45] 	10081
scalar dtelecom_network.node[45].content_store 	decision_yes[45] 	10075
scalar dtelecom_network.node[45].content_store 	decision_no[45] 	0
scalar dtelecom_network.node[45].content_store 	decision_ratio[45] 	1
scalar dtelecom_network.node[46].core_layer 	interests[46] 	27126
scalar dtelecom_network.node[46].core_layer 	repo_load[46] 	14340
scalar dtelecom_network.node[46].core_layer 	data[46] 	10306
scalar dtelecom_network.node[46].content_store 	p_hit[46] 	0.091056550910566
scalar dtelecom_network.node[46].content_store 	hits[46] 	2470
scalar dtelecom_network.node[46].content_store 	misses[46] 	24656
scalar dtelecom_network.node[46].content_store 	decision_yes[46] 	24646
scalar dtelecom_network.node[46].content_store 	decision_no[46] 	0
scalar dtelecom_network.node[46].content_store 	decision_ratio[46] 	1
scalar dtelecom_network.node[47].core_layer 	interests[47] 	0
scalar dtelecom_network.node[47].core_layer 	data[47] 	0
scalar dtelecom_network.node[47].content_store 	p_hit[47] 	-nan
scalar dtelecom_network.node[47].content_store 	hits[47] 	0
scalar dtelecom_network.node[47].content_store 	misses[47] 	0
scalar dtelecom_network.node[47].content_store 	decision_yes[47] 	0
scalar dtelecom_network.node[47].content_store 	decision_no[47] 	0
scalar dtelecom_network.node[47].content_store 	decision_ratio[47] 	0
scalar dtelecom_network.node[48].core_layer 	interests[48] 	13762
scalar dtelecom_network.node[48].core_layer 	data[48] 	10077
scalar dtelecom_network.node[48].content_store 	p_hit[48] 	0.2676936491789
scalar dtelecom_network.node[48].content_store 	hits[48] 	3684
scalar dtelecom_network.node[48].content_store 	misses[48] 	10078
scalar dtelecom_network.node[48].content_store 	decision_yes[48] 	10077
scalar dtelecom_network.node[48].content_store 	decision_no[48] 	0
scalar dtelecom_network.node[48].content_store 	decision_ratio[48] 	1
scalar dtelecom_network.node[49].core_layer 	interests[49] 	13757
scalar dtelecom_network.node[49].core_layer 	data[49] 	10060
scalar dtelecom_network.node[49].content_store 	p_hit[49] 	0.26851784546049
scalar dtelecom_network.node[49].content_store 	hits[49] 	3694
scalar dtelecom_network.node[49].content_store 	misses[49] 	10063
scalar dtelecom_network.node[49].content_store 	decision_yes[49] 	10060
scalar dtelecom_network.node[49].content_store 	decision_no[49] 	0
scalar dtelecom_network.node[49].content_store 	decision_ratio[49] 	1
scalar dtelecom_network.node[50].core_layer 	interests[50] 	13351
scalar dtelecom_network.node[50].core_layer 	data[50] 	9978
scalar dtelecom_network.node[50].content_store 	p_hit[50] 	0.25249045015355
scalar dtelecom_network.node[50].content_store 	hits[50] 	3371
scalar dtelecom_network.node[50].content_store 	misses[50] 	9980
scalar dtelecom_network.node[50].content_store 	decision_yes[50] 	9978
scalar dtelecom_network.node[50].content_store 	decision_no[50] 	0
scalar dtelecom_network.node[50].content_store 	decision_ratio[50] 	1
scalar dtelecom_network.node[51].core_layer 	interests[51] 	14492
scalar dtelecom_network.node[51].core_layer 	data[51] 	10151
scalar dtelecom_network.node[51].content_store 	p_hit[51] 	0.2994065691416
scalar dtelecom_network.node[51].content_store 	hits[51] 	4339
scalar dtelecom_network.node[51].content_store 	misses[51] 	10153
scalar dtelecom_network.node[51].content_store 	decision_yes[51] 	10151
scalar dtelecom_network.node[51].content_store 	decision_no[51] 	0
scalar dtelecom_network.node[51].content_store 	decision_ratio[51] 	1
scalar dtelecom_network.node[52].core_layer 	interests[52] 	0
scalar dtelecom_network.node[52].core_layer 	data[52] 	0
scalar dtelecom_network.node[52].content_store 	p_hit[52] 	-nan
scalar dtelecom_network.node[52].content_store 	hits[52] 	0
scalar dtelecom_network.node[52].content_store 	misses[52] 	0
scalar dtelecom_network.node[52].content_store 	decision_yes[52] 	0
scalar dtelecom_network.node[52].content_store 	decision_no[52] 	0
scalar dtelecom_network.node[52].content_store 	decision_ratio[52] 	0
scalar dtelecom_network.node[53].core_layer 	interests[53] 	13634
scalar dtelecom_network.node[53].core_layer 	data[53] 	9913
scalar dtelecom_network.node[53].content_store 	p_hit[53] 	0.27284729353088
scalar dtelecom_network.node[53].content_store 	hits[53] 	3720
scalar dtelecom_network.node[53].content_store 	misses[53] 	9914
scalar dtelecom_network.node[53].content_store 	decision_yes[53] 	9913
scalar dtelecom_network.node[53].content_store 	decision_no[53] 	0
scalar dtelecom_network.node[53].content_store 	decision_ratio[53] 	1
scalar dtelecom_network.node[54].core_layer 	interests[54] 	26252
scalar dtelecom_network.node[54].core_layer 	repo_load[54] 	13878
scalar dtelecom_network.node[54].core_layer 	data[54] 	9867
scalar dtelecom_network.node[54].content_store 	p_hit[54] 	0.095230839555082
scalar dtelecom_network.node[54].content_store 	hits[54] 	2500
scalar dtelecom_network.node[54].content_store 	misses[54] 	23752
scalar dtelecom_network.node[54].content_store 	decision_yes[54] 	23745
scalar dtelecom_network.node[54].content_store 	decision_no[54] 	0
scalar dtelecom_network.node[54].content_store 	decision_ratio[54] 	1
scalar dtelecom_network.node[55].core_layer 	interests[55] 	14181
scalar dtelecom_network.node[55].core_layer 	data[55] 	10163
scalar dtelecom_network.node[55].content_store 	p_hit[55] 	0.2829842747338
scalar dtelecom_network.node[55].content_store 	hits[55] 	4013
scalar dtelecom_network.node[55].content_store 	misses[55] 	10168
scalar dtelecom_network.node[55].content_store 	decision_yes[55] 	10163
scalar dtelecom_network.node[55].content_store 	decision_no[55] 	0
scalar dtelecom_network.node[55].content_store 	decision_ratio[55] 	1
scalar dtelecom_network.node[56].core_layer 	interests[56] 	13544
scalar dtelecom_network.node[56].core_layer 	data[56] 	9897
scalar dtelecom_network.node[56].content_store 	p_hit[56] 	0.26897519196692
scalar dtelecom_network.node[56].content_store 	hits[56] 	3643
scalar dtelecom_network.node[56].content_store 	misses[56] 	9901
scalar dtelecom_network.node[56].content_store 	decision_yes[56] 	9897
scalar dtelecom_network.node[56].content_store 	decision_no[56] 	0
scalar dtelecom_network.node[56].content_store 	decision_ratio[56] 	1
scalar dtelecom_network.node[57].core_layer 	interests[57] 	13504
scalar dtelecom_network.node[57].core_layer 	data[57] 	10167
scalar dtelecom_network.node[57].content_store 	p_hit[57] 	0.24696386255924
scalar dtelecom_network.node[57].content_store 	hits[57] 	3335
scalar dtelecom_network.node[57].content_store 	misses[57] 	10169
scalar dtelecom_network.node[57].content_store 	decision_yes[57] 	10167
scalar dtelecom_network.node[57].content_store 	decision_no[57] 	0
scalar dtelecom_network.node[57].content_store 	decision_ratio[57] 	1
scalar dtelecom_network.node[58].core_layer 	interests[58] 	26598
scalar dtelecom_network.node[58].core_layer 	repo_load[58] 	13989
scalar dtelecom_network.node[58].core_layer 	data[58] 	10122
scalar dtelecom_network.node[58].content_store 	p_hit[58] 	0.093240093240093
scalar dtelecom_network.node[58].content_store 	hits[58] 	2480
scalar dtelecom_network.node[58].content_store 	misses[58] 	24118
scalar dtelecom_network.node[58].content_store 	decision_yes[58] 	24111
scalar dtelecom_network.node[58].content_store 	decision_no[58] 	0
scalar dtelecom_network.node[58].content_store 	decision_ratio[58] 	1
scalar dtelecom_network.node[59].core_layer 	interests[59] 	16768
scalar dtelecom_network.node[59].core_layer 	data[59] 	9836
scalar dtelecom_network.node[59].content_store 	p_hit[59] 	0.41328721374046
scalar dtelecom_network.node[59].content_store 	hits[59] 	6930
scalar dtelecom_network.node[59].content_store 	misses[59] 	9838
scalar dtelecom_network.node[59].content_store 	decision_yes[59] 	9836
scalar dtelecom_network.node[59].content_store 	decision_no[59] 	0
scalar dtelecom_network.node[59].content_store 	decision_ratio[59] 	1
scalar dtelecom_network.node[60].core_layer 	interests[60] 	0
scalar dtelecom_network.node[60].core_layer 	data[60] 	0
scalar dtelecom_network.node[60].content_store 	p_hit[60] 	-nan
scalar dtelecom_network.node[60].content_store 	hits[60] 	0
scalar dtelecom_network.node[60].content_store 	misses[60] 	0
scalar dtelecom_network.node[60].content_store 	decision_yes[60] 	0
scalar dtelecom_network.node[60].content_store 	decision_no[60] 	0
scalar dtelecom_network.node[60].content_store 	decision_ratio[60] 	0
scalar dtelecom_network.node[61].core_layer 	interests[61] 	0
scalar dtelecom_network.node[61].core_layer 	data[61] 	0
scalar dtelecom_network.node[61].content_store 	p_hit[61] 	-nan
scalar dtelecom_network.node[61].content_store 	hits[61] 	0
scalar dtelecom_network.node[61].content_store 	misses[61] 	0
scalar dtelecom_network.node[61].content_store 	decision_yes[61] 	0
scalar dtelecom_network.node[61].content_store 	decision_no[61] 	0
scalar dtelecom_network.node[61].content_store 	decision_ratio[61] 	0
scalar dtelecom_network.node[62].core_layer 	interests[62] 	13021
scalar dtelecom_network.node[62].core_layer 	data[62] 	9966
scalar dtelecom_network.node[62].content_store 	p_hit[62] 	0.23369940864757
scalar dtelecom_network.node[62].content_store 	hits[62] 	3043
scalar dtelecom_network.node[62].content_store 	misses[62] 	9978
scalar dtelecom_network.node[62].content_store 	decision_yes[62] 	9966
scalar dtelecom_network.node[62].content_store 	decision_no[62] 	0
scalar dtelecom_network.node[62].content_store 	decision_ratio[62] 	1
scalar dtelecom_network.node[63].core_layer 	interests[63] 	0
scalar dtelecom_network.node[63].core_layer 	data[63] 	0
scalar dtelecom_network.node[63].content_store 	p_hit[63] 	-nan
scalar dtelecom_network.node[63].content_store 	hits[63] 	0
scalar dtelecom_network.node[63].content_store 	misses[63] 	0
scalar dtelecom_network.node[63].content_store 	decision_yes[63] 	0
scalar dtelecom_network.node[63].content_store 	decision_no[63] 	0
scalar dtelecom_network.node[63].content_store 	decision_ratio[63] 	0
scalar dtelecom_network.node[64].core_layer 	interests[64] 	0
scalar dtelecom_network.node[64].core_layer 	data[64] 	0
scalar dtelecom_network.node[64].content_store 	p_hit[64] 	-nan
scalar dtelecom_network.node[64].content_store 	hits[64] 	0
scalar dtelecom_network.node[64].content_store 	misses[64] 	0
scalar dtelecom_network.node[64].content_store 	decision_yes[64] 	0
scalar dtelecom_network.node[64].content_store 	decision_no[64] 	0
scalar dtelecom_network.node[64].content_store 	decision_ratio[64] 	0
scalar dtelecom_network.node[65].core_layer 	interests[65] 	14899
scalar dtelecom_network.node[65].core_layer 	repo_load[65] 	14203
scalar dtelecom_network.node[65].core_layer 	data[65] 	69
scalar dtelecom_network.node[65].content_store 	p_hit[65] 	0.042083361299416
scalar dtelecom_network.node[65].content_store 	hits[65] 	627
scalar dtelecom_network.node[65].content_store 	misses[65] 	14272
scalar dtelecom_network.node[65].content_store 	decision_yes[65] 	14272
scalar dtelecom_network.node[65].content_store 	decision_no[65] 	0
scalar dtelecom_network.node[65].content_store 	decision_ratio[65] 	1
scalar dtelecom_network.node[66].core_layer 	interests[66] 	13088
scalar dtelecom_network.node[66].core_layer 	data[66] 	9995
scalar dtelecom_network.node[66].content_store 	p_hit[66] 	0.23487163814181
scalar dtelecom_network.node[66].content_store 	hits[66] 	3074
scalar dtelecom_network.node[66].content_store 	misses[66] 	10014
scalar dtelecom_network.node[66].content_store 	decision_yes[66] 	9995
scalar dtelecom_network.node[66].content_store 	decision_no[66] 	0
scalar dtelecom_network.node[66].content_store 	decision_ratio[66] 	1
scalar dtelecom_network.node[67].core_layer 	interests[67] 	13218
scalar dtelecom_network.node[67].core_layer 	data[67] 	10155
scalar dtelecom_network.node[67].content_store 	p_hit[67] 	0.23104857013164
scalar dtelecom_network.node[67].content_store 	hits[67] 	3054
scalar dtelecom_network.node[67].content_store 	misses[67] 	10164
scalar dtelecom_network.node[67].content_store 	decision_yes[67] 	10155
scalar dtelecom_network.node[67].content_store 	decision_no[67] 	0
scalar dtelecom_network.node[67].content_store 	decision_ratio[67] 	1
scalar dtelecom_network.client[3] 	hdistance[3] 	1.3982611603411
scalar dtelecom_network.client[3] 	downloads[3] 	11962
scalar dtelecom_network.client[3] 	avg_time[3] 	0.008590482862
scalar dtelecom_network.client[4] 	hdistance[4] 	1.4849818089517
scalar dtelecom_network.client[4] 	downloads[4] 	11819
scalar dtelecom_network.client[4] 	avg_time[4] 	0.054626626592
scalar dtelecom_network.client[8] 	hdistance[8] 	2.1232648990109
scalar dtelecom_network.client[8] 	downloads[8] 	12031
scalar dtelecom_network.client[8] 	avg_time[8] 	0.014357398638
scalar dtelecom_network.client[9] 	hdistance[9] 	2.0151553211086
scalar dtelecom_network.client[9] 	downloads[9] 	11943
scalar dtelecom_network.client[9] 	avg_time[9] 	0.014557758578
scalar dtelecom_network.client[17] 	hdistance[17] 	2.1038146227204
scalar dtelecom_network.client[17] 	downloads[17] 	11954
scalar dtelecom_network.client[17] 	avg_time[17] 	0.012789917247
scalar dtelecom_network.client[22] 	hdistance[22] 	2.0945764981587
scalar dtelecom_network.client[22] 	downloads[22] 	11948
scalar dtelecom_network.client[22] 	avg_time[22] 	0.013745684801
scalar dtelecom_network.client[23] 	hdistance[23] 	1.8529411764706
scalar dtelecom_network.client[23] 	downloads[23] 	12240
scalar dtelecom_network.client[23] 	avg_time[23] 	0.011631658476
scalar dtelecom_network.client[28] 	hdistance[28] 	2.0438369864155
scalar dtelecom_network.client[28] 	downloads[28] 	11999
scalar dtelecom_network.client[28] 	avg_time[28] 	0.017286422211
scalar dtelecom_network.client[30] 	hdistance[30] 	2.127857260319
scalar dtelecom_network.client[30] 	downloads[30] 	12162
scalar dtelecom_network.client[30] 	avg_time[30] 	0.013430085615
scalar dtelecom_network.client[31] 	hdistance[31] 	2.0331042574589
scalar dtelecom_network.client[31] 	downloads[31] 	11932
scalar dtelecom_network.client[31] 	avg_time[31] 	0.016973367164
scalar dtelecom_network.client[32] 	hdistance[32] 	2.0735637942552
scalar dtelecom_network.client[32] 	downloads[32] 	11976
scalar dtelecom_network.client[32] 	avg_time[32] 	0.011591657131
scalar dtelecom_network.client[33] 	hdistance[33] 	1.9813898901836
scalar dtelecom_network.client[33] 	downloads[33] 	11929
scalar dtelecom_network.client[33] 	avg_time[33] 	0.01268777498
scalar dtelecom_network.client[36] 	hdistance[36] 	2.0951981898936
scalar dtelecom_network.client[36] 	downloads[36] 	11933
scalar dtelecom_network.client[36] 	avg_time[36] 	0.013819416559
scalar dtelecom_network.client[37] 	hdistance[37] 	2.0463400480809
scalar dtelecom_network.client[37] 	downloads[37] 	12063
scalar dtelecom_network.client[37] 	avg_time[37] 	0.014263233952
scalar dtelecom_network.client[40] 	hdistance[40] 	1.9411521613356
scalar dtelecom_network.client[40] 	downloads[40] 	12099
scalar dtelecom_network.client[40] 	avg_time[40] 	0.014210666063
scalar dtelecom_network.client[42] 	hdistance[42] 	2.1006399069226
scalar dtelecom_network.client[42] 	downloads[42] 	12033
scalar dtelecom_network.client[42] 	avg_time[42] 	0.016257451029
scalar dtelecom_network.client[45] 	hdistance[45] 	2.0436710449259
scalar dtelecom_network.client[45] 	downloads[45] 	11953
scalar dtelecom_network.client[45] 	avg_time[45] 	0.014391556828
scalar dtelecom_network.client[46] 	hdistance[46] 	2.0734369831293
scalar dtelecom_network.client[46] 	downloads[46] 	12092
scalar dtelecom_network.client[46] 	avg_time[46] 	0.015485625832
scalar dtelecom_network.client[48] 	hdistance[48] 	2.1361278447122
scalar dtelecom_network.client[48] 	downloads[48] 	11952
scalar dtelecom_network.client[48] 	avg_time[48] 	0.014076038789
scalar dtelecom_network.client[49] 	hdistance[49] 	2.0959316926168
scalar dtelecom_network.client[49] 	downloads[49] 	11946
scalar dtelecom_network.client[49] 	avg_time[49] 	0.013055140196
scalar dtelecom_network.client[50] 	hdistance[50] 	2.0855524558289
scalar dtelecom_network.client[50] 	downloads[50] 	11829
scalar dtelecom_network.client[50] 	avg_time[50] 	0.012598597958
scalar dtelecom_network.client[51] 	hdistance[51] 	1.9721254355401
scalar dtelecom_network.client[51] 	downloads[51] 	12054
scalar dtelecom_network.client[51] 	avg_time[51] 	0.012872895891
scalar dtelecom_network.client[53] 	hdistance[53] 	2.1030831780451
scalar dtelecom_network.client[53] 	downloads[53] 	11806
scalar dtelecom_network.client[53] 	avg_time[53] 	0.012601064928
scalar dtelecom_network.client[54] 	hdistance[54] 	1.9969750441139
scalar dtelecom_network.client[54] 	downloads[54] 	11901
scalar dtelecom_network.client[54] 	avg_time[54] 	0.013858760141
scalar dtelecom_network.client[55] 	hdistance[55] 	2.0841991521902
scalar dtelecom_network.client[55] 	downloads[55] 	12031
scalar dtelecom_network.client[55] 	avg_time[55] 	0.018406678072
scalar dtelecom_network.client[56] 	hdistance[56] 	2.0640163445986
scalar dtelecom_network.client[56] 	downloads[56] 	11747
scalar dtelecom_network.client[56] 	avg_time[56] 	0.012834459015
scalar dtelecom_network.client[57] 	hdistance[57] 	2.0895821169405
scalar dtelecom_network.client[57] 	downloads[57] 	11989
scalar dtelecom_network.client[57] 	avg_time[57] 	0.01201797163
scalar dtelecom_network.client[58] 	hdistance[58] 	2.0567754863488
scalar dtelecom_network.client[58] 	downloads[58] 	11977
scalar dtelecom_network.client[58] 	avg_time[58] 	0.017112474553
scalar dtelecom_network.client[59] 	hdistance[59] 	1.8501713044205
scalar dtelecom_network.client[59] 	downloads[59] 	11967
scalar dtelecom_network.client[59] 	avg_time[59] 	0.060145571609
scalar dtelecom_network.client[62] 	hdistance[62] 	2.4042553191489
scalar dtelecom_network.client[62] 	downloads[62] 	11891
scalar dtelecom_network.client[62] 	avg_time[62] 	0.05876012032
scalar dtelecom_network.client[66] 	hdistance[66] 	2.253829321663
scalar dtelecom_network.client[66] 	downloads[66] 	11882
scalar dtelecom_network.client[66] 	avg_time[66] 	0.101927802435
scalar dtelecom_network.client[67] 	hdistance[67] 	2.264757305803
scalar dtelecom_network.client[67] 	downloads[67] 	12011
scalar dtelecom_network.client[67] 	avg_time[67] 	0.085663971131
