version 2
run General-0-20160824-10:30:38-24543
attr D lce
attr F nrr
attr R lru
attr a 0.9
attr configname General
attr datetime 20160824-10:30:38
attr experiment General
attr inifile hw5115/scenario_C/omnetp.ini
attr iterationvars "$net=dtelecom, $rep=1, $a=0.9, $F=nrr, $D=lce, $R=lru, $window=60, $variance=0.05, $mytime=600"
attr iterationvars2 "$net=dtelecom, $rep=1, $a=0.9, $F=nrr, $D=lce, $R=lru, $window=60, $variance=0.05, $mytime=600, $repetition=0"
attr measurement "$net=dtelecom, $rep=1, $a=0.9, $F=nrr, $D=lce, $R=lru, $window=60, $variance=0.05, $mytime=600"
attr mytime 600
attr net dtelecom
attr network networks.${net=dtelecom}_network
attr processid 24543
attr rep 1
attr repetition 0
attr replication #0
attr resultdir results
attr runnumber 0
attr seedset 1
attr variance 0.05
attr window 60

scalar . 	a 	0.9
scalar . 	mytime 	600
scalar . 	rep 	1
scalar . 	variance 	0.05
scalar . 	window 	60
scalar dtelecom_network.content_distribution 	repo-0 	46
scalar dtelecom_network.content_distribution 	repo-1 	55
scalar dtelecom_network.content_distribution 	repo-2 	1
scalar dtelecom_network.content_distribution 	repo-3 	50
scalar dtelecom_network.content_distribution 	repo-4 	9
scalar dtelecom_network.content_distribution 	repo-5 	58
scalar dtelecom_network.content_distribution 	repo-6 	57
scalar dtelecom_network.content_distribution 	repo-7 	36
scalar dtelecom_network.content_distribution 	repo-8 	44
scalar dtelecom_network.content_distribution 	repo-9 	38
scalar dtelecom_network.content_distribution 	repo-10 	52
scalar dtelecom_network.content_distribution 	repo-11 	3
scalar dtelecom_network.content_distribution 	repo-12 	0
scalar dtelecom_network.content_distribution 	repo-13 	21
scalar dtelecom_network.content_distribution 	repo-14 	56
scalar dtelecom_network.content_distribution 	repo-15 	66
scalar dtelecom_network.content_distribution 	client-0 	46
scalar dtelecom_network.content_distribution 	client-1 	30
scalar dtelecom_network.content_distribution 	client-2 	8
scalar dtelecom_network.content_distribution 	client-3 	49
scalar dtelecom_network.content_distribution 	client-4 	66
scalar dtelecom_network.content_distribution 	client-5 	58
scalar dtelecom_network.content_distribution 	client-6 	32
scalar dtelecom_network.content_distribution 	client-7 	40
scalar dtelecom_network.content_distribution 	client-8 	42
scalar dtelecom_network.content_distribution 	client-9 	45
scalar dtelecom_network.content_distribution 	client-10 	33
scalar dtelecom_network.content_distribution 	client-11 	28
scalar dtelecom_network.content_distribution 	client-12 	3
scalar dtelecom_network.content_distribution 	client-13 	57
scalar dtelecom_network.content_distribution 	client-14 	50
scalar dtelecom_network.content_distribution 	client-15 	17
scalar dtelecom_network.content_distribution 	client-16 	59
scalar dtelecom_network.content_distribution 	client-17 	48
scalar dtelecom_network.content_distribution 	client-18 	23
scalar dtelecom_network.content_distribution 	client-19 	22
scalar dtelecom_network.content_distribution 	client-20 	67
scalar dtelecom_network.content_distribution 	client-21 	62
scalar dtelecom_network.content_distribution 	client-22 	56
scalar dtelecom_network.content_distribution 	client-23 	55
scalar dtelecom_network.content_distribution 	client-24 	53
scalar dtelecom_network.content_distribution 	client-25 	36
scalar dtelecom_network.content_distribution 	client-26 	51
scalar dtelecom_network.content_distribution 	client-27 	37
scalar dtelecom_network.content_distribution 	client-28 	54
scalar dtelecom_network.content_distribution 	client-29 	4
scalar dtelecom_network.content_distribution 	client-30 	31
scalar dtelecom_network.content_distribution 	client-31 	9
scalar dtelecom_network.content_distribution 	repo-0_card 	6193
scalar dtelecom_network.content_distribution 	repo-0_price 	0
scalar dtelecom_network.content_distribution 	repo-1_card 	6205
scalar dtelecom_network.content_distribution 	repo-1_price 	0
scalar dtelecom_network.content_distribution 	repo-2_card 	6196
scalar dtelecom_network.content_distribution 	repo-2_price 	0
scalar dtelecom_network.content_distribution 	repo-3_card 	6245
scalar dtelecom_network.content_distribution 	repo-3_price 	0
scalar dtelecom_network.content_distribution 	repo-4_card 	6368
scalar dtelecom_network.content_distribution 	repo-4_price 	0
scalar dtelecom_network.content_distribution 	repo-5_card 	6249
scalar dtelecom_network.content_distribution 	repo-5_price 	0
scalar dtelecom_network.content_distribution 	repo-6_card 	6165
scalar dtelecom_network.content_distribution 	repo-6_price 	0
scalar dtelecom_network.content_distribution 	repo-7_card 	6310
scalar dtelecom_network.content_distribution 	repo-7_price 	0
scalar dtelecom_network.content_distribution 	repo-8_card 	6162
scalar dtelecom_network.content_distribution 	repo-8_price 	0
scalar dtelecom_network.content_distribution 	repo-9_card 	6247
scalar dtelecom_network.content_distribution 	repo-9_price 	0
scalar dtelecom_network.content_distribution 	repo-10_card 	6287
scalar dtelecom_network.content_distribution 	repo-10_price 	0
scalar dtelecom_network.content_distribution 	repo-11_card 	6275
scalar dtelecom_network.content_distribution 	repo-11_price 	0
scalar dtelecom_network.content_distribution 	repo-12_card 	6339
scalar dtelecom_network.content_distribution 	repo-12_price 	0
scalar dtelecom_network.content_distribution 	repo-13_card 	6363
scalar dtelecom_network.content_distribution 	repo-13_price 	0
scalar dtelecom_network.content_distribution 	repo-14_card 	6277
scalar dtelecom_network.content_distribution 	repo-14_price 	0
scalar dtelecom_network.content_distribution 	repo-15_card 	6119
scalar dtelecom_network.content_distribution 	repo-15_price 	0
scalar dtelecom_network.statistics 	stabilization_time 	1515.1
scalar dtelecom_network.statistics 	p_hit 	0.24899348090088
scalar dtelecom_network.statistics 	interests 	13756.352941176
scalar dtelecom_network.statistics 	data 	8110.5882352941
scalar dtelecom_network.statistics 	hdistance 	2.0307268093868
scalar dtelecom_network.statistics 	avg_time 	0.026303627266
scalar dtelecom_network.statistics 	downloads 	383733
scalar dtelecom_network.statistics 	total_cost 	0
scalar dtelecom_network.statistics 	total_replicas 	100000
scalar dtelecom_network.statistics 	inner_hit 	0.40649097158701
scalar dtelecom_network.node[0].core_layer 	interests[0] 	15213
scalar dtelecom_network.node[0].core_layer 	repo_load[0] 	14283
scalar dtelecom_network.node[0].core_layer 	data[0] 	0
scalar dtelecom_network.node[0].core_layer 	repo_int[0] 	227749
scalar dtelecom_network.node[0].content_store 	p_hit[0] 	0.061131926641688
scalar dtelecom_network.node[0].content_store 	hits[0] 	930
scalar dtelecom_network.node[0].content_store 	misses[0] 	14283
scalar dtelecom_network.node[0].content_store 	decision_yes[0] 	14283
scalar dtelecom_network.node[0].content_store 	decision_no[0] 	0
scalar dtelecom_network.node[0].content_store 	decision_ratio[0] 	1
scalar dtelecom_network.node[1].core_layer 	interests[1] 	198590
scalar dtelecom_network.node[1].core_layer 	repo_load[1] 	16096
scalar dtelecom_network.node[1].core_layer 	data[1] 	177918
scalar dtelecom_network.node[1].content_store 	p_hit[1] 	0.022624502744348
scalar dtelecom_network.node[1].content_store 	hits[1] 	4493
scalar dtelecom_network.node[1].content_store 	misses[1] 	194097
scalar dtelecom_network.node[1].content_store 	decision_yes[1] 	193981
scalar dtelecom_network.node[1].content_store 	decision_no[1] 	0
scalar dtelecom_network.node[1].content_store 	decision_ratio[1] 	1
scalar dtelecom_network.node[2].core_layer 	interests[2] 	6779
scalar dtelecom_network.node[2].core_layer 	data[2] 	3686
scalar dtelecom_network.node[2].content_store 	p_hit[2] 	0.45640949992624
scalar dtelecom_network.node[2].content_store 	hits[2] 	3094
scalar dtelecom_network.node[2].content_store 	misses[2] 	3685
scalar dtelecom_network.node[2].content_store 	decision_yes[2] 	3686
scalar dtelecom_network.node[2].content_store 	decision_no[2] 	0
scalar dtelecom_network.node[2].content_store 	decision_ratio[2] 	1
scalar dtelecom_network.node[3].core_layer 	interests[3] 	34394
scalar dtelecom_network.node[3].core_layer 	repo_load[3] 	14060
scalar dtelecom_network.node[3].core_layer 	data[3] 	9587
scalar dtelecom_network.node[3].content_store 	p_hit[3] 	0.31238006629063
scalar dtelecom_network.node[3].content_store 	hits[3] 	10744
scalar dtelecom_network.node[3].content_store 	misses[3] 	23650
scalar dtelecom_network.node[3].content_store 	decision_yes[3] 	23647
scalar dtelecom_network.node[3].content_store 	decision_no[3] 	0
scalar dtelecom_network.node[3].content_store 	decision_ratio[3] 	1
scalar dtelecom_network.node[4].core_layer 	interests[4] 	56609
scalar dtelecom_network.node[4].core_layer 	data[4] 	45151
scalar dtelecom_network.node[4].content_store 	p_hit[4] 	0.20033916868342
scalar dtelecom_network.node[4].content_store 	hits[4] 	11341
scalar dtelecom_network.node[4].content_store 	misses[4] 	45268
scalar dtelecom_network.node[4].content_store 	decision_yes[4] 	45105
scalar dtelecom_network.node[4].content_store 	decision_no[4] 	0
scalar dtelecom_network.node[4].content_store 	decision_ratio[4] 	1
scalar dtelecom_network.node[5].core_layer 	interests[5] 	0
scalar dtelecom_network.node[5].core_layer 	data[5] 	0
scalar dtelecom_network.node[5].content_store 	p_hit[5] 	-nan
scalar dtelecom_network.node[5].content_store 	hits[5] 	0
scalar dtelecom_network.node[5].content_store 	misses[5] 	0
scalar dtelecom_network.node[5].content_store 	decision_yes[5] 	0
scalar dtelecom_network.node[5].content_store 	decision_no[5] 	0
scalar dtelecom_network.node[5].content_store 	decision_ratio[5] 	0
scalar dtelecom_network.node[6].core_layer 	interests[6] 	0
scalar dtelecom_network.node[6].core_layer 	data[6] 	0
scalar dtelecom_network.node[6].content_store 	p_hit[6] 	-nan
scalar dtelecom_network.node[6].content_store 	hits[6] 	0
scalar dtelecom_network.node[6].content_store 	misses[6] 	0
scalar dtelecom_network.node[6].content_store 	decision_yes[6] 	0
scalar dtelecom_network.node[6].content_store 	decision_no[6] 	0
scalar dtelecom_network.node[6].content_store 	decision_ratio[6] 	0
scalar dtelecom_network.node[7].core_layer 	interests[7] 	0
scalar dtelecom_network.node[7].core_layer 	data[7] 	0
scalar dtelecom_network.node[7].content_store 	p_hit[7] 	-nan
scalar dtelecom_network.node[7].content_store 	hits[7] 	0
scalar dtelecom_network.node[7].content_store 	misses[7] 	0
scalar dtelecom_network.node[7].content_store 	decision_yes[7] 	0
scalar dtelecom_network.node[7].content_store 	decision_no[7] 	0
scalar dtelecom_network.node[7].content_store 	decision_ratio[7] 	0
scalar dtelecom_network.node[8].core_layer 	interests[8] 	14147
scalar dtelecom_network.node[8].core_layer 	data[8] 	10216
scalar dtelecom_network.node[8].content_store 	p_hit[8] 	0.27786809924366
scalar dtelecom_network.node[8].content_store 	hits[8] 	3931
scalar dtelecom_network.node[8].content_store 	misses[8] 	10216
scalar dtelecom_network.node[8].content_store 	decision_yes[8] 	10216
scalar dtelecom_network.node[8].content_store 	decision_no[8] 	0
scalar dtelecom_network.node[8].content_store 	decision_ratio[8] 	1
scalar dtelecom_network.node[9].core_layer 	interests[9] 	28360
scalar dtelecom_network.node[9].core_layer 	repo_load[9] 	14391
scalar dtelecom_network.node[9].core_layer 	data[9] 	10661
scalar dtelecom_network.node[9].content_store 	p_hit[9] 	0.11629055007052
scalar dtelecom_network.node[9].content_store 	hits[9] 	3298
scalar dtelecom_network.node[9].content_store 	misses[9] 	25062
scalar dtelecom_network.node[9].content_store 	decision_yes[9] 	25052
scalar dtelecom_network.node[9].content_store 	decision_no[9] 	0
scalar dtelecom_network.node[9].content_store 	decision_ratio[9] 	1
scalar dtelecom_network.node[10].core_layer 	interests[10] 	0
scalar dtelecom_network.node[10].core_layer 	data[10] 	0
scalar dtelecom_network.node[10].content_store 	p_hit[10] 	-nan
scalar dtelecom_network.node[10].content_store 	hits[10] 	0
scalar dtelecom_network.node[10].content_store 	misses[10] 	0
scalar dtelecom_network.node[10].content_store 	decision_yes[10] 	0
scalar dtelecom_network.node[10].content_store 	decision_no[10] 	0
scalar dtelecom_network.node[10].content_store 	decision_ratio[10] 	0
scalar dtelecom_network.node[11].core_layer 	interests[11] 	0
scalar dtelecom_network.node[11].core_layer 	data[11] 	0
scalar dtelecom_network.node[11].content_store 	p_hit[11] 	-nan
scalar dtelecom_network.node[11].content_store 	hits[11] 	0
scalar dtelecom_network.node[11].content_store 	misses[11] 	0
scalar dtelecom_network.node[11].content_store 	decision_yes[11] 	0
scalar dtelecom_network.node[11].content_store 	decision_no[11] 	0
scalar dtelecom_network.node[11].content_store 	decision_ratio[11] 	0
scalar dtelecom_network.node[12].core_layer 	interests[12] 	0
scalar dtelecom_network.node[12].core_layer 	data[12] 	0
scalar dtelecom_network.node[12].content_store 	p_hit[12] 	-nan
scalar dtelecom_network.node[12].content_store 	hits[12] 	0
scalar dtelecom_network.node[12].content_store 	misses[12] 	0
scalar dtelecom_network.node[12].content_store 	decision_yes[12] 	0
scalar dtelecom_network.node[12].content_store 	decision_no[12] 	0
scalar dtelecom_network.node[12].content_store 	decision_ratio[12] 	0
scalar dtelecom_network.node[13].core_layer 	interests[13] 	0
scalar dtelecom_network.node[13].core_layer 	data[13] 	0
scalar dtelecom_network.node[13].content_store 	p_hit[13] 	-nan
scalar dtelecom_network.node[13].content_store 	hits[13] 	0
scalar dtelecom_network.node[13].content_store 	misses[13] 	0
scalar dtelecom_network.node[13].content_store 	decision_yes[13] 	0
scalar dtelecom_network.node[13].content_store 	decision_no[13] 	0
scalar dtelecom_network.node[13].content_store 	decision_ratio[13] 	0
scalar dtelecom_network.node[14].core_layer 	interests[14] 	0
scalar dtelecom_network.node[14].core_layer 	data[14] 	0
scalar dtelecom_network.node[14].content_store 	p_hit[14] 	-nan
scalar dtelecom_network.node[14].content_store 	hits[14] 	0
scalar dtelecom_network.node[14].content_store 	misses[14] 	0
scalar dtelecom_network.node[14].content_store 	decision_yes[14] 	0
scalar dtelecom_network.node[14].content_store 	decision_no[14] 	0
scalar dtelecom_network.node[14].content_store 	decision_ratio[14] 	0
scalar dtelecom_network.node[15].core_layer 	interests[15] 	0
scalar dtelecom_network.node[15].core_layer 	data[15] 	0
scalar dtelecom_network.node[15].content_store 	p_hit[15] 	-nan
scalar dtelecom_network.node[15].content_store 	hits[15] 	0
scalar dtelecom_network.node[15].content_store 	misses[15] 	0
scalar dtelecom_network.node[15].content_store 	decision_yes[15] 	0
scalar dtelecom_network.node[15].content_store 	decision_no[15] 	0
scalar dtelecom_network.node[15].content_store 	decision_ratio[15] 	0
scalar dtelecom_network.node[16].core_layer 	interests[16] 	0
scalar dtelecom_network.node[16].core_layer 	data[16] 	0
scalar dtelecom_network.node[16].content_store 	p_hit[16] 	-nan
scalar dtelecom_network.node[16].content_store 	hits[16] 	0
scalar dtelecom_network.node[16].content_store 	misses[16] 	0
scalar dtelecom_network.node[16].content_store 	decision_yes[16] 	0
scalar dtelecom_network.node[16].content_store 	decision_no[16] 	0
scalar dtelecom_network.node[16].content_store 	decision_ratio[16] 	0
scalar dtelecom_network.node[17].core_layer 	interests[17] 	14708
scalar dtelecom_network.node[17].core_layer 	data[17] 	10546
scalar dtelecom_network.node[17].content_store 	p_hit[17] 	0.28263530051673
scalar dtelecom_network.node[17].content_store 	hits[17] 	4157
scalar dtelecom_network.node[17].content_store 	misses[17] 	10551
scalar dtelecom_network.node[17].content_store 	decision_yes[17] 	10546
scalar dtelecom_network.node[17].content_store 	decision_no[17] 	0
scalar dtelecom_network.node[17].content_store 	decision_ratio[17] 	1
scalar dtelecom_network.node[18].core_layer 	interests[18] 	0
scalar dtelecom_network.node[18].core_layer 	data[18] 	0
scalar dtelecom_network.node[18].content_store 	p_hit[18] 	-nan
scalar dtelecom_network.node[18].content_store 	hits[18] 	0
scalar dtelecom_network.node[18].content_store 	misses[18] 	0
scalar dtelecom_network.node[18].content_store 	decision_yes[18] 	0
scalar dtelecom_network.node[18].content_store 	decision_no[18] 	0
scalar dtelecom_network.node[18].content_store 	decision_ratio[18] 	0
scalar dtelecom_network.node[19].core_layer 	interests[19] 	0
scalar dtelecom_network.node[19].core_layer 	data[19] 	0
scalar dtelecom_network.node[19].content_store 	p_hit[19] 	-nan
scalar dtelecom_network.node[19].content_store 	hits[19] 	0
scalar dtelecom_network.node[19].content_store 	misses[19] 	0
scalar dtelecom_network.node[19].content_store 	decision_yes[19] 	0
scalar dtelecom_network.node[19].content_store 	decision_no[19] 	0
scalar dtelecom_network.node[19].content_store 	decision_ratio[19] 	0
scalar dtelecom_network.node[20].core_layer 	interests[20] 	0
scalar dtelecom_network.node[20].core_layer 	data[20] 	0
scalar dtelecom_network.node[20].content_store 	p_hit[20] 	-nan
scalar dtelecom_network.node[20].content_store 	hits[20] 	0
scalar dtelecom_network.node[20].content_store 	misses[20] 	0
scalar dtelecom_network.node[20].content_store 	decision_yes[20] 	0
scalar dtelecom_network.node[20].content_store 	decision_no[20] 	0
scalar dtelecom_network.node[20].content_store 	decision_ratio[20] 	0
scalar dtelecom_network.node[21].core_layer 	interests[21] 	14803
scalar dtelecom_network.node[21].core_layer 	repo_load[21] 	13929
scalar dtelecom_network.node[21].core_layer 	data[21] 	0
scalar dtelecom_network.node[21].content_store 	p_hit[21] 	0.059042086063636
scalar dtelecom_network.node[21].content_store 	hits[21] 	874
scalar dtelecom_network.node[21].content_store 	misses[21] 	13929
scalar dtelecom_network.node[21].content_store 	decision_yes[21] 	13929
scalar dtelecom_network.node[21].content_store 	decision_no[21] 	0
scalar dtelecom_network.node[21].content_store 	decision_ratio[21] 	1
scalar dtelecom_network.node[22].core_layer 	interests[22] 	14095
scalar dtelecom_network.node[22].core_layer 	data[22] 	10002
scalar dtelecom_network.node[22].content_store 	p_hit[22] 	0.2902447676481
scalar dtelecom_network.node[22].content_store 	hits[22] 	4091
scalar dtelecom_network.node[22].content_store 	misses[22] 	10004
scalar dtelecom_network.node[22].content_store 	decision_yes[22] 	10002
scalar dtelecom_network.node[22].content_store 	decision_no[22] 	0
scalar dtelecom_network.node[22].content_store 	decision_ratio[22] 	1
scalar dtelecom_network.node[23].core_layer 	interests[23] 	28532
scalar dtelecom_network.node[23].core_layer 	data[23] 	21539
scalar dtelecom_network.node[23].content_store 	p_hit[23] 	0.24442730968737
scalar dtelecom_network.node[23].content_store 	hits[23] 	6974
scalar dtelecom_network.node[23].content_store 	misses[23] 	21558
scalar dtelecom_network.node[23].content_store 	decision_yes[23] 	21530
scalar dtelecom_network.node[23].content_store 	decision_no[23] 	0
scalar dtelecom_network.node[23].content_store 	decision_ratio[23] 	1
scalar dtelecom_network.node[24].core_layer 	interests[24] 	0
scalar dtelecom_network.node[24].core_layer 	data[24] 	0
scalar dtelecom_network.node[24].content_store 	p_hit[24] 	-nan
scalar dtelecom_network.node[24].content_store 	hits[24] 	0
scalar dtelecom_network.node[24].content_store 	misses[24] 	0
scalar dtelecom_network.node[24].content_store 	decision_yes[24] 	0
scalar dtelecom_network.node[24].content_store 	decision_no[24] 	0
scalar dtelecom_network.node[24].content_store 	decision_ratio[24] 	0
scalar dtelecom_network.node[25].core_layer 	interests[25] 	0
scalar dtelecom_network.node[25].core_layer 	data[25] 	0
scalar dtelecom_network.node[25].content_store 	p_hit[25] 	-nan
scalar dtelecom_network.node[25].content_store 	hits[25] 	0
scalar dtelecom_network.node[25].content_store 	misses[25] 	0
scalar dtelecom_network.node[25].content_store 	decision_yes[25] 	0
scalar dtelecom_network.node[25].content_store 	decision_no[25] 	0
scalar dtelecom_network.node[25].content_store 	decision_ratio[25] 	0
scalar dtelecom_network.node[26].core_layer 	interests[26] 	2491
scalar dtelecom_network.node[26].core_layer 	data[26] 	374
scalar dtelecom_network.node[26].content_store 	p_hit[26] 	0.84985949417904
scalar dtelecom_network.node[26].content_store 	hits[26] 	2117
scalar dtelecom_network.node[26].content_store 	misses[26] 	374
scalar dtelecom_network.node[26].content_store 	decision_yes[26] 	374
scalar dtelecom_network.node[26].content_store 	decision_no[26] 	0
scalar dtelecom_network.node[26].content_store 	decision_ratio[26] 	1
scalar dtelecom_network.node[27].core_layer 	interests[27] 	0
scalar dtelecom_network.node[27].core_layer 	data[27] 	0
scalar dtelecom_network.node[27].content_store 	p_hit[27] 	-nan
scalar dtelecom_network.node[27].content_store 	hits[27] 	0
scalar dtelecom_network.node[27].content_store 	misses[27] 	0
scalar dtelecom_network.node[27].content_store 	decision_yes[27] 	0
scalar dtelecom_network.node[27].content_store 	decision_no[27] 	0
scalar dtelecom_network.node[27].content_store 	decision_ratio[27] 	0
scalar dtelecom_network.node[28].core_layer 	interests[28] 	14844
scalar dtelecom_network.node[28].core_layer 	data[28] 	9902
scalar dtelecom_network.node[28].content_store 	p_hit[28] 	0.33265966046888
scalar dtelecom_network.node[28].content_store 	hits[28] 	4938
scalar dtelecom_network.node[28].content_store 	misses[28] 	9906
scalar dtelecom_network.node[28].content_store 	decision_yes[28] 	9902
scalar dtelecom_network.node[28].content_store 	decision_no[28] 	0
scalar dtelecom_network.node[28].content_store 	decision_ratio[28] 	1
scalar dtelecom_network.node[29].core_layer 	interests[29] 	0
scalar dtelecom_network.node[29].core_layer 	data[29] 	0
scalar dtelecom_network.node[29].content_store 	p_hit[29] 	-nan
scalar dtelecom_network.node[29].content_store 	hits[29] 	0
scalar dtelecom_network.node[29].content_store 	misses[29] 	0
scalar dtelecom_network.node[29].content_store 	decision_yes[29] 	0
scalar dtelecom_network.node[29].content_store 	decision_no[29] 	0
scalar dtelecom_network.node[29].content_store 	decision_ratio[29] 	0
scalar dtelecom_network.node[30].core_layer 	interests[30] 	13933
scalar dtelecom_network.node[30].core_layer 	data[30] 	10289
scalar dtelecom_network.node[30].content_store 	p_hit[30] 	0.26139381324912
scalar dtelecom_network.node[30].content_store 	hits[30] 	3642
scalar dtelecom_network.node[30].content_store 	misses[30] 	10291
scalar dtelecom_network.node[30].content_store 	decision_yes[30] 	10289
scalar dtelecom_network.node[30].content_store 	decision_no[30] 	0
scalar dtelecom_network.node[30].content_store 	decision_ratio[30] 	1
scalar dtelecom_network.node[31].core_layer 	interests[31] 	14477
scalar dtelecom_network.node[31].core_layer 	data[31] 	10122
scalar dtelecom_network.node[31].content_store 	p_hit[31] 	0.30047661808386
scalar dtelecom_network.node[31].content_store 	hits[31] 	4350
scalar dtelecom_network.node[31].content_store 	misses[31] 	10127
scalar dtelecom_network.node[31].content_store 	decision_yes[31] 	10122
scalar dtelecom_network.node[31].content_store 	decision_no[31] 	0
scalar dtelecom_network.node[31].content_store 	decision_ratio[31] 	1
scalar dtelecom_network.node[32].core_layer 	interests[32] 	13856
scalar dtelecom_network.node[32].core_layer 	data[32] 	10099
scalar dtelecom_network.node[32].content_store 	p_hit[32] 	0.27085739030023
scalar dtelecom_network.node[32].content_store 	hits[32] 	3753
scalar dtelecom_network.node[32].content_store 	misses[32] 	10103
scalar dtelecom_network.node[32].content_store 	decision_yes[32] 	10099
scalar dtelecom_network.node[32].content_store 	decision_no[32] 	0
scalar dtelecom_network.node[32].content_store 	decision_ratio[32] 	1
scalar dtelecom_network.node[33].core_layer 	interests[33] 	15469
scalar dtelecom_network.node[33].core_layer 	data[33] 	10007
scalar dtelecom_network.node[33].content_store 	p_hit[33] 	0.35315792876075
scalar dtelecom_network.node[33].content_store 	hits[33] 	5463
scalar dtelecom_network.node[33].content_store 	misses[33] 	10006
scalar dtelecom_network.node[33].content_store 	decision_yes[33] 	10007
scalar dtelecom_network.node[33].content_store 	decision_no[33] 	0
scalar dtelecom_network.node[33].content_store 	decision_ratio[33] 	1
scalar dtelecom_network.node[34].core_layer 	interests[34] 	0
scalar dtelecom_network.node[34].core_layer 	data[34] 	0
scalar dtelecom_network.node[34].content_store 	p_hit[34] 	-nan
scalar dtelecom_network.node[34].content_store 	hits[34] 	0
scalar dtelecom_network.node[34].content_store 	misses[34] 	0
scalar dtelecom_network.node[34].content_store 	decision_yes[34] 	0
scalar dtelecom_network.node[34].content_store 	decision_no[34] 	0
scalar dtelecom_network.node[34].content_store 	decision_ratio[34] 	0
scalar dtelecom_network.node[35].core_layer 	interests[35] 	0
scalar dtelecom_network.node[35].core_layer 	data[35] 	0
scalar dtelecom_network.node[35].content_store 	p_hit[35] 	-nan
scalar dtelecom_network.node[35].content_store 	hits[35] 	0
scalar dtelecom_network.node[35].content_store 	misses[35] 	0
scalar dtelecom_network.node[35].content_store 	decision_yes[35] 	0
scalar dtelecom_network.node[35].content_store 	decision_no[35] 	0
scalar dtelecom_network.node[35].content_store 	decision_ratio[35] 	0
scalar dtelecom_network.node[36].core_layer 	interests[36] 	27535
scalar dtelecom_network.node[36].core_layer 	repo_load[36] 	15129
scalar dtelecom_network.node[36].core_layer 	data[36] 	10028
scalar dtelecom_network.node[36].content_store 	p_hit[36] 	0.086326493553659
scalar dtelecom_network.node[36].content_store 	hits[36] 	2377
scalar dtelecom_network.node[36].content_store 	misses[36] 	25158
scalar dtelecom_network.node[36].content_store 	decision_yes[36] 	25157
scalar dtelecom_network.node[36].content_store 	decision_no[36] 	0
scalar dtelecom_network.node[36].content_store 	decision_ratio[36] 	1
scalar dtelecom_network.node[37].core_layer 	interests[37] 	14245
scalar dtelecom_network.node[37].core_layer 	data[37] 	10072
scalar dtelecom_network.node[37].content_store 	p_hit[37] 	0.29252369252369
scalar dtelecom_network.node[37].content_store 	hits[37] 	4167
scalar dtelecom_network.node[37].content_store 	misses[37] 	10078
scalar dtelecom_network.node[37].content_store 	decision_yes[37] 	10072
scalar dtelecom_network.node[37].content_store 	decision_no[37] 	0
scalar dtelecom_network.node[37].content_store 	decision_ratio[37] 	1
scalar dtelecom_network.node[38].core_layer 	interests[38] 	15740
scalar dtelecom_network.node[38].core_layer 	repo_load[38] 	14578
scalar dtelecom_network.node[38].core_layer 	data[38] 	0
scalar dtelecom_network.node[38].content_store 	p_hit[38] 	0.073824650571792
scalar dtelecom_network.node[38].content_store 	hits[38] 	1162
scalar dtelecom_network.node[38].content_store 	misses[38] 	14578
scalar dtelecom_network.node[38].content_store 	decision_yes[38] 	14578
scalar dtelecom_network.node[38].content_store 	decision_no[38] 	0
scalar dtelecom_network.node[38].content_store 	decision_ratio[38] 	1
scalar dtelecom_network.node[39].core_layer 	interests[39] 	0
scalar dtelecom_network.node[39].core_layer 	data[39] 	0
scalar dtelecom_network.node[39].content_store 	p_hit[39] 	-nan
scalar dtelecom_network.node[39].content_store 	hits[39] 	0
scalar dtelecom_network.node[39].content_store 	misses[39] 	0
scalar dtelecom_network.node[39].content_store 	decision_yes[39] 	0
scalar dtelecom_network.node[39].content_store 	decision_no[39] 	0
scalar dtelecom_network.node[39].content_store 	decision_ratio[39] 	0
scalar dtelecom_network.node[40].core_layer 	interests[40] 	16501
scalar dtelecom_network.node[40].core_layer 	data[40] 	9969
scalar dtelecom_network.node[40].content_store 	p_hit[40] 	0.39579419429126
scalar dtelecom_network.node[40].content_store 	hits[40] 	6531
scalar dtelecom_network.node[40].content_store 	misses[40] 	9970
scalar dtelecom_network.node[40].content_store 	decision_yes[40] 	9969
scalar dtelecom_network.node[40].content_store 	decision_no[40] 	0
scalar dtelecom_network.node[40].content_store 	decision_ratio[40] 	1
scalar dtelecom_network.node[41].core_layer 	interests[41] 	0
scalar dtelecom_network.node[41].core_layer 	data[41] 	0
scalar dtelecom_network.node[41].content_store 	p_hit[41] 	-nan
scalar dtelecom_network.node[41].content_store 	hits[41] 	0
scalar dtelecom_network.node[41].content_store 	misses[41] 	0
scalar dtelecom_network.node[41].content_store 	decision_yes[41] 	0
scalar dtelecom_network.node[41].content_store 	decision_no[41] 	0
scalar dtelecom_network.node[41].content_store 	decision_ratio[41] 	0
scalar dtelecom_network.node[42].core_layer 	interests[42] 	14065
scalar dtelecom_network.node[42].core_layer 	data[42] 	9987
scalar dtelecom_network.node[42].content_store 	p_hit[42] 	0.28972627088518
scalar dtelecom_network.node[42].content_store 	hits[42] 	4075
scalar dtelecom_network.node[42].content_store 	misses[42] 	9990
scalar dtelecom_network.node[42].content_store 	decision_yes[42] 	9987
scalar dtelecom_network.node[42].content_store 	decision_no[42] 	0
scalar dtelecom_network.node[42].content_store 	decision_ratio[42] 	1
scalar dtelecom_network.node[43].core_layer 	interests[43] 	0
scalar dtelecom_network.node[43].core_layer 	data[43] 	0
scalar dtelecom_network.node[43].content_store 	p_hit[43] 	-nan
scalar dtelecom_network.node[43].content_store 	hits[43] 	0
scalar dtelecom_network.node[43].content_store 	misses[43] 	0
scalar dtelecom_network.node[43].content_store 	decision_yes[43] 	0
scalar dtelecom_network.node[43].content_store 	decision_no[43] 	0
scalar dtelecom_network.node[43].content_store 	decision_ratio[43] 	0
scalar dtelecom_network.node[44].core_layer 	interests[44] 	11053
scalar dtelecom_network.node[44].core_layer 	repo_load[44] 	10725
scalar dtelecom_network.node[44].core_layer 	data[44] 	0
scalar dtelecom_network.node[44].content_store 	p_hit[44] 	0.029675201302814
scalar dtelecom_network.node[44].content_store 	hits[44] 	328
scalar dtelecom_network.node[44].content_store 	misses[44] 	10725
scalar dtelecom_network.node[44].content_store 	decision_yes[44] 	10725
scalar dtelecom_network.node[44].content_store 	decision_no[44] 	0
scalar dtelecom_network.node[44].content_store 	decision_ratio[44] 	1
scalar dtelecom_network.node[45].core_layer 	interests[45] 	14724
scalar dtelecom_network.node[45].core_layer 	data[45] 	10055
scalar dtelecom_network.node[45].content_store 	p_hit[45] 	0.31682966585167
scalar dtelecom_network.node[45].content_store 	hits[45] 	4665
scalar dtelecom_network.node[45].content_store 	misses[45] 	10059
scalar dtelecom_network.node[45].content_store 	decision_yes[45] 	10055
scalar dtelecom_network.node[45].content_store 	decision_no[45] 	0
scalar dtelecom_network.node[45].content_store 	decision_ratio[45] 	1
scalar dtelecom_network.node[46].core_layer 	interests[46] 	27048
scalar dtelecom_network.node[46].core_layer 	repo_load[46] 	14558
scalar dtelecom_network.node[46].core_layer 	data[46] 	9970
scalar dtelecom_network.node[46].content_store 	p_hit[46] 	0.093019816622301
scalar dtelecom_network.node[46].content_store 	hits[46] 	2516
scalar dtelecom_network.node[46].content_store 	misses[46] 	24532
scalar dtelecom_network.node[46].content_store 	decision_yes[46] 	24528
scalar dtelecom_network.node[46].content_store 	decision_no[46] 	0
scalar dtelecom_network.node[46].content_store 	decision_ratio[46] 	1
scalar dtelecom_network.node[47].core_layer 	interests[47] 	0
scalar dtelecom_network.node[47].core_layer 	data[47] 	0
scalar dtelecom_network.node[47].content_store 	p_hit[47] 	-nan
scalar dtelecom_network.node[47].content_store 	hits[47] 	0
scalar dtelecom_network.node[47].content_store 	misses[47] 	0
scalar dtelecom_network.node[47].content_store 	decision_yes[47] 	0
scalar dtelecom_network.node[47].content_store 	decision_no[47] 	0
scalar dtelecom_network.node[47].content_store 	decision_ratio[47] 	0
scalar dtelecom_network.node[48].core_layer 	interests[48] 	14081
scalar dtelecom_network.node[48].core_layer 	data[48] 	10085
scalar dtelecom_network.node[48].content_store 	p_hit[48] 	0.28378666287906
scalar dtelecom_network.node[48].content_store 	hits[48] 	3996
scalar dtelecom_network.node[48].content_store 	misses[48] 	10085
scalar dtelecom_network.node[48].content_store 	decision_yes[48] 	10085
scalar dtelecom_network.node[48].content_store 	decision_no[48] 	0
scalar dtelecom_network.node[48].content_store 	decision_ratio[48] 	1
scalar dtelecom_network.node[49].core_layer 	interests[49] 	13976
scalar dtelecom_network.node[49].core_layer 	data[49] 	10072
scalar dtelecom_network.node[49].content_store 	p_hit[49] 	0.27919290211792
scalar dtelecom_network.node[49].content_store 	hits[49] 	3902
scalar dtelecom_network.node[49].content_store 	misses[49] 	10074
scalar dtelecom_network.node[49].content_store 	decision_yes[49] 	10072
scalar dtelecom_network.node[49].content_store 	decision_no[49] 	0
scalar dtelecom_network.node[49].content_store 	decision_ratio[49] 	1
scalar dtelecom_network.node[50].core_layer 	interests[50] 	26693
scalar dtelecom_network.node[50].core_layer 	repo_load[50] 	14317
scalar dtelecom_network.node[50].core_layer 	data[50] 	9979
scalar dtelecom_network.node[50].content_store 	p_hit[50] 	0.089386730603529
scalar dtelecom_network.node[50].content_store 	hits[50] 	2386
scalar dtelecom_network.node[50].content_store 	misses[50] 	24307
scalar dtelecom_network.node[50].content_store 	decision_yes[50] 	24296
scalar dtelecom_network.node[50].content_store 	decision_no[50] 	0
scalar dtelecom_network.node[50].content_store 	decision_ratio[50] 	1
scalar dtelecom_network.node[51].core_layer 	interests[51] 	14893
scalar dtelecom_network.node[51].core_layer 	data[51] 	10184
scalar dtelecom_network.node[51].content_store 	p_hit[51] 	0.31598737661989
scalar dtelecom_network.node[51].content_store 	hits[51] 	4706
scalar dtelecom_network.node[51].content_store 	misses[51] 	10187
scalar dtelecom_network.node[51].content_store 	decision_yes[51] 	10184
scalar dtelecom_network.node[51].content_store 	decision_no[51] 	0
scalar dtelecom_network.node[51].content_store 	decision_ratio[51] 	1
scalar dtelecom_network.node[52].core_layer 	interests[52] 	15139
scalar dtelecom_network.node[52].core_layer 	repo_load[52] 	14208
scalar dtelecom_network.node[52].core_layer 	data[52] 	0
scalar dtelecom_network.node[52].content_store 	p_hit[52] 	0.061496796353788
scalar dtelecom_network.node[52].content_store 	hits[52] 	931
scalar dtelecom_network.node[52].content_store 	misses[52] 	14208
scalar dtelecom_network.node[52].content_store 	decision_yes[52] 	14208
scalar dtelecom_network.node[52].content_store 	decision_no[52] 	0
scalar dtelecom_network.node[52].content_store 	decision_ratio[52] 	1
scalar dtelecom_network.node[53].core_layer 	interests[53] 	14200
scalar dtelecom_network.node[53].core_layer 	data[53] 	10211
scalar dtelecom_network.node[53].content_store 	p_hit[53] 	0.28056338028169
scalar dtelecom_network.node[53].content_store 	hits[53] 	3984
scalar dtelecom_network.node[53].content_store 	misses[53] 	10216
scalar dtelecom_network.node[53].content_store 	decision_yes[53] 	10211
scalar dtelecom_network.node[53].content_store 	decision_no[53] 	0
scalar dtelecom_network.node[53].content_store 	decision_ratio[53] 	1
scalar dtelecom_network.node[54].core_layer 	interests[54] 	14540
scalar dtelecom_network.node[54].core_layer 	data[54] 	10042
scalar dtelecom_network.node[54].content_store 	p_hit[54] 	0.30928473177442
scalar dtelecom_network.node[54].content_store 	hits[54] 	4497
scalar dtelecom_network.node[54].content_store 	misses[54] 	10043
scalar dtelecom_network.node[54].content_store 	decision_yes[54] 	10042
scalar dtelecom_network.node[54].content_store 	decision_no[54] 	0
scalar dtelecom_network.node[54].content_store 	decision_ratio[54] 	1
scalar dtelecom_network.node[55].core_layer 	interests[55] 	27123
scalar dtelecom_network.node[55].core_layer 	repo_load[55] 	14393
scalar dtelecom_network.node[55].core_layer 	data[55] 	10110
scalar dtelecom_network.node[55].content_store 	p_hit[55] 	0.096302031486193
scalar dtelecom_network.node[55].content_store 	hits[55] 	2612
scalar dtelecom_network.node[55].content_store 	misses[55] 	24511
scalar dtelecom_network.node[55].content_store 	decision_yes[55] 	24503
scalar dtelecom_network.node[55].content_store 	decision_no[55] 	0
scalar dtelecom_network.node[55].content_store 	decision_ratio[55] 	1
scalar dtelecom_network.node[56].core_layer 	interests[56] 	26946
scalar dtelecom_network.node[56].core_layer 	repo_load[56] 	14408
scalar dtelecom_network.node[56].core_layer 	data[56] 	10112
scalar dtelecom_network.node[56].content_store 	p_hit[56] 	0.089735025606769
scalar dtelecom_network.node[56].content_store 	hits[56] 	2418
scalar dtelecom_network.node[56].content_store 	misses[56] 	24528
scalar dtelecom_network.node[56].content_store 	decision_yes[56] 	24520
scalar dtelecom_network.node[56].content_store 	decision_no[56] 	0
scalar dtelecom_network.node[56].content_store 	decision_ratio[56] 	1
scalar dtelecom_network.node[57].core_layer 	interests[57] 	26257
scalar dtelecom_network.node[57].core_layer 	repo_load[57] 	14056
scalar dtelecom_network.node[57].core_layer 	data[57] 	9852
scalar dtelecom_network.node[57].content_store 	p_hit[57] 	0.089385687626157
scalar dtelecom_network.node[57].content_store 	hits[57] 	2347
scalar dtelecom_network.node[57].content_store 	misses[57] 	23910
scalar dtelecom_network.node[57].content_store 	decision_yes[57] 	23908
scalar dtelecom_network.node[57].content_store 	decision_no[57] 	0
scalar dtelecom_network.node[57].content_store 	decision_ratio[57] 	1
scalar dtelecom_network.node[58].core_layer 	interests[58] 	27552
scalar dtelecom_network.node[58].core_layer 	repo_load[58] 	14790
scalar dtelecom_network.node[58].core_layer 	data[58] 	10279
scalar dtelecom_network.node[58].content_store 	p_hit[58] 	0.089902729384437
scalar dtelecom_network.node[58].content_store 	hits[58] 	2477
scalar dtelecom_network.node[58].content_store 	misses[58] 	25075
scalar dtelecom_network.node[58].content_store 	decision_yes[58] 	25069
scalar dtelecom_network.node[58].content_store 	decision_no[58] 	0
scalar dtelecom_network.node[58].content_store 	decision_ratio[58] 	1
scalar dtelecom_network.node[59].core_layer 	interests[59] 	17368
scalar dtelecom_network.node[59].core_layer 	data[59] 	10103
scalar dtelecom_network.node[59].content_store 	p_hit[59] 	0.41754951635191
scalar dtelecom_network.node[59].content_store 	hits[59] 	7252
scalar dtelecom_network.node[59].content_store 	misses[59] 	10116
scalar dtelecom_network.node[59].content_store 	decision_yes[59] 	10102
scalar dtelecom_network.node[59].content_store 	decision_no[59] 	0
scalar dtelecom_network.node[59].content_store 	decision_ratio[59] 	1
scalar dtelecom_network.node[60].core_layer 	interests[60] 	0
scalar dtelecom_network.node[60].core_layer 	data[60] 	0
scalar dtelecom_network.node[60].content_store 	p_hit[60] 	-nan
scalar dtelecom_network.node[60].content_store 	hits[60] 	0
scalar dtelecom_network.node[60].content_store 	misses[60] 	0
scalar dtelecom_network.node[60].content_store 	decision_yes[60] 	0
scalar dtelecom_network.node[60].content_store 	decision_no[60] 	0
scalar dtelecom_network.node[60].content_store 	decision_ratio[60] 	0
scalar dtelecom_network.node[61].core_layer 	interests[61] 	0
scalar dtelecom_network.node[61].core_layer 	data[61] 	0
scalar dtelecom_network.node[61].content_store 	p_hit[61] 	-nan
scalar dtelecom_network.node[61].content_store 	hits[61] 	0
scalar dtelecom_network.node[61].content_store 	misses[61] 	0
scalar dtelecom_network.node[61].content_store 	decision_yes[61] 	0
scalar dtelecom_network.node[61].content_store 	decision_no[61] 	0
scalar dtelecom_network.node[61].content_store 	decision_ratio[61] 	0
scalar dtelecom_network.node[62].core_layer 	interests[62] 	13099
scalar dtelecom_network.node[62].core_layer 	data[62] 	10192
scalar dtelecom_network.node[62].content_store 	p_hit[62] 	0.22116192075731
scalar dtelecom_network.node[62].content_store 	hits[62] 	2897
scalar dtelecom_network.node[62].content_store 	misses[62] 	10202
scalar dtelecom_network.node[62].content_store 	decision_yes[62] 	10192
scalar dtelecom_network.node[62].content_store 	decision_no[62] 	0
scalar dtelecom_network.node[62].content_store 	decision_ratio[62] 	1
scalar dtelecom_network.node[63].core_layer 	interests[63] 	0
scalar dtelecom_network.node[63].core_layer 	data[63] 	0
scalar dtelecom_network.node[63].content_store 	p_hit[63] 	-nan
scalar dtelecom_network.node[63].content_store 	hits[63] 	0
scalar dtelecom_network.node[63].content_store 	misses[63] 	0
scalar dtelecom_network.node[63].content_store 	decision_yes[63] 	0
scalar dtelecom_network.node[63].content_store 	decision_no[63] 	0
scalar dtelecom_network.node[63].content_store 	decision_ratio[63] 	0
scalar dtelecom_network.node[64].core_layer 	interests[64] 	0
scalar dtelecom_network.node[64].core_layer 	data[64] 	0
scalar dtelecom_network.node[64].content_store 	p_hit[64] 	-nan
scalar dtelecom_network.node[64].content_store 	hits[64] 	0
scalar dtelecom_network.node[64].content_store 	misses[64] 	0
scalar dtelecom_network.node[64].content_store 	decision_yes[64] 	0
scalar dtelecom_network.node[64].content_store 	decision_no[64] 	0
scalar dtelecom_network.node[64].content_store 	decision_ratio[64] 	0
scalar dtelecom_network.node[65].core_layer 	interests[65] 	2194
scalar dtelecom_network.node[65].core_layer 	data[65] 	17
scalar dtelecom_network.node[65].content_store 	p_hit[65] 	0.9922515952598
scalar dtelecom_network.node[65].content_store 	hits[65] 	2177
scalar dtelecom_network.node[65].content_store 	misses[65] 	17
scalar dtelecom_network.node[65].content_store 	decision_yes[65] 	17
scalar dtelecom_network.node[65].content_store 	decision_no[65] 	0
scalar dtelecom_network.node[65].content_store 	decision_ratio[65] 	1
scalar dtelecom_network.node[66].core_layer 	interests[66] 	25697
scalar dtelecom_network.node[66].core_layer 	repo_load[66] 	13828
scalar dtelecom_network.node[66].core_layer 	data[66] 	10079
scalar dtelecom_network.node[66].content_store 	p_hit[66] 	0.068529400319103
scalar dtelecom_network.node[66].content_store 	hits[66] 	1761
scalar dtelecom_network.node[66].content_store 	misses[66] 	23936
scalar dtelecom_network.node[66].content_store 	decision_yes[66] 	23907
scalar dtelecom_network.node[66].content_store 	decision_no[66] 	0
scalar dtelecom_network.node[66].content_store 	decision_ratio[66] 	1
scalar dtelecom_network.node[67].core_layer 	interests[67] 	13463
scalar dtelecom_network.node[67].core_layer 	data[67] 	10023
scalar dtelecom_network.node[67].content_store 	p_hit[67] 	0.25469806135334
scalar dtelecom_network.node[67].content_store 	hits[67] 	3429
scalar dtelecom_network.node[67].content_store 	misses[67] 	10034
scalar dtelecom_network.node[67].content_store 	decision_yes[67] 	10023
scalar dtelecom_network.node[67].content_store 	decision_no[67] 	0
scalar dtelecom_network.node[67].content_store 	decision_ratio[67] 	1
scalar dtelecom_network.client[3] 	hdistance[3] 	1.4435571992939
scalar dtelecom_network.client[3] 	downloads[3] 	11897
scalar dtelecom_network.client[3] 	avg_time[3] 	0.012101955194
scalar dtelecom_network.client[4] 	hdistance[4] 	1.4677595628415
scalar dtelecom_network.client[4] 	downloads[4] 	11895
scalar dtelecom_network.client[4] 	avg_time[4] 	0.056023300676
scalar dtelecom_network.client[8] 	hdistance[8] 	2.0804342462374
scalar dtelecom_network.client[8] 	downloads[8] 	12159
scalar dtelecom_network.client[8] 	avg_time[8] 	0.01727236054
scalar dtelecom_network.client[9] 	hdistance[9] 	1.9134876822938
scalar dtelecom_network.client[9] 	downloads[9] 	12137
scalar dtelecom_network.client[9] 	avg_time[9] 	0.0173080012
scalar dtelecom_network.client[17] 	hdistance[17] 	1.9928201703122
scalar dtelecom_network.client[17] 	downloads[17] 	11978
scalar dtelecom_network.client[17] 	avg_time[17] 	0.015905960079
scalar dtelecom_network.client[22] 	hdistance[22] 	2.0771550640865
scalar dtelecom_network.client[22] 	downloads[22] 	11937
scalar dtelecom_network.client[22] 	avg_time[22] 	0.016847257646
scalar dtelecom_network.client[23] 	hdistance[23] 	1.8558498156219
scalar dtelecom_network.client[23] 	downloads[23] 	11932
scalar dtelecom_network.client[23] 	avg_time[23] 	0.014962618547
scalar dtelecom_network.client[28] 	hdistance[28] 	2.0234623764036
scalar dtelecom_network.client[28] 	downloads[28] 	11934
scalar dtelecom_network.client[28] 	avg_time[28] 	0.019737851639
scalar dtelecom_network.client[30] 	hdistance[30] 	2.131243314408
scalar dtelecom_network.client[30] 	downloads[30] 	12153
scalar dtelecom_network.client[30] 	avg_time[30] 	0.016422224954
scalar dtelecom_network.client[31] 	hdistance[31] 	2.0631092020486
scalar dtelecom_network.client[31] 	downloads[31] 	12106
scalar dtelecom_network.client[31] 	avg_time[31] 	0.019314462139
scalar dtelecom_network.client[32] 	hdistance[32] 	2.0860662560346
scalar dtelecom_network.client[32] 	downloads[32] 	12014
scalar dtelecom_network.client[32] 	avg_time[32] 	0.015573752643
scalar dtelecom_network.client[33] 	hdistance[33] 	1.9513027553484
scalar dtelecom_network.client[33] 	downloads[33] 	12013
scalar dtelecom_network.client[33] 	avg_time[33] 	0.015554421345
scalar dtelecom_network.client[36] 	hdistance[36] 	2.0656108597285
scalar dtelecom_network.client[36] 	downloads[36] 	11934
scalar dtelecom_network.client[36] 	avg_time[36] 	0.016812858706
scalar dtelecom_network.client[37] 	hdistance[37] 	2.0770654551573
scalar dtelecom_network.client[37] 	downloads[37] 	11886
scalar dtelecom_network.client[37] 	avg_time[37] 	0.018212912411
scalar dtelecom_network.client[40] 	hdistance[40] 	1.9006728343146
scalar dtelecom_network.client[40] 	downloads[40] 	11890
scalar dtelecom_network.client[40] 	avg_time[40] 	0.017585805019
scalar dtelecom_network.client[42] 	hdistance[42] 	2.0728024295596
scalar dtelecom_network.client[42] 	downloads[42] 	11854
scalar dtelecom_network.client[42] 	avg_time[42] 	0.019068027774
scalar dtelecom_network.client[45] 	hdistance[45] 	2.0387297320003
scalar dtelecom_network.client[45] 	downloads[45] 	11903
scalar dtelecom_network.client[45] 	avg_time[45] 	0.018128684707
scalar dtelecom_network.client[46] 	hdistance[46] 	2.0415467930276
scalar dtelecom_network.client[46] 	downloads[46] 	11818
scalar dtelecom_network.client[46] 	avg_time[46] 	0.019229767374
scalar dtelecom_network.client[48] 	hdistance[48] 	2.0978187919463
scalar dtelecom_network.client[48] 	downloads[48] 	11920
scalar dtelecom_network.client[48] 	avg_time[48] 	0.017277185306
scalar dtelecom_network.client[49] 	hdistance[49] 	2.0964411616586
scalar dtelecom_network.client[49] 	downloads[49] 	11914
scalar dtelecom_network.client[49] 	avg_time[49] 	0.016673390354
scalar dtelecom_network.client[50] 	hdistance[50] 	2.0644784097553
scalar dtelecom_network.client[50] 	downloads[50] 	11973
scalar dtelecom_network.client[50] 	avg_time[50] 	0.016579301959
scalar dtelecom_network.client[51] 	hdistance[51] 	2.0608581075517
scalar dtelecom_network.client[51] 	downloads[51] 	12143
scalar dtelecom_network.client[51] 	avg_time[51] 	0.016405046957
scalar dtelecom_network.client[53] 	hdistance[53] 	2.0927903319262
scalar dtelecom_network.client[53] 	downloads[53] 	12081
scalar dtelecom_network.client[53] 	avg_time[53] 	0.016787412235
scalar dtelecom_network.client[54] 	hdistance[54] 	2.0524655487299
scalar dtelecom_network.client[54] 	downloads[54] 	12046
scalar dtelecom_network.client[54] 	avg_time[54] 	0.017498608872
scalar dtelecom_network.client[55] 	hdistance[55] 	2.0022453222453
scalar dtelecom_network.client[55] 	downloads[55] 	12025
scalar dtelecom_network.client[55] 	avg_time[55] 	0.022266642222
scalar dtelecom_network.client[56] 	hdistance[56] 	2.0640929846409
scalar dtelecom_network.client[56] 	downloads[56] 	12045
scalar dtelecom_network.client[56] 	avg_time[56] 	0.016989644894
scalar dtelecom_network.client[57] 	hdistance[57] 	2.0566845817937
scalar dtelecom_network.client[57] 	downloads[57] 	11908
scalar dtelecom_network.client[57] 	avg_time[57] 	0.015657163531
scalar dtelecom_network.client[58] 	hdistance[58] 	2.074131973013
scalar dtelecom_network.client[58] 	downloads[58] 	12154
scalar dtelecom_network.client[58] 	avg_time[58] 	0.020556070234
scalar dtelecom_network.client[59] 	hdistance[59] 	1.9858671677151
scalar dtelecom_network.client[59] 	downloads[59] 	12241
scalar dtelecom_network.client[59] 	avg_time[59] 	0.064815976791
scalar dtelecom_network.client[62] 	hdistance[62] 	2.6030350775355
scalar dtelecom_network.client[62] 	downloads[62] 	12059
scalar dtelecom_network.client[62] 	avg_time[62] 	0.067144842163
scalar dtelecom_network.client[66] 	hdistance[66] 	2.2505662276655
scalar dtelecom_network.client[66] 	downloads[66] 	11921
scalar dtelecom_network.client[66] 	avg_time[66] 	0.102777966957
scalar dtelecom_network.client[67] 	hdistance[67] 	2.1991064654809
scalar dtelecom_network.client[67] 	downloads[67] 	11863
scalar dtelecom_network.client[67] 	avg_time[67] 	0.084224597474
