version 2
run General-63-20160825-02:27:17-24543
attr D lce
attr F nrr
attr R lru
attr a 0.9
attr configname General
attr datetime 20160825-02:27:17
attr experiment General
attr inifile hw5115/scenario_C/omnetp.ini
attr iterationvars "$net=dtelecom, $rep=8, $a=0.9, $F=nrr, $D=lce, $R=lru, $window=60, $variance=0.05, $mytime=600"
attr iterationvars2 "$net=dtelecom, $rep=8, $a=0.9, $F=nrr, $D=lce, $R=lru, $window=60, $variance=0.05, $mytime=600, $repetition=0"
attr measurement "$net=dtelecom, $rep=8, $a=0.9, $F=nrr, $D=lce, $R=lru, $window=60, $variance=0.05, $mytime=600"
attr mytime 600
attr net dtelecom
attr network networks.${net=dtelecom}_network
attr processid 24543
attr rep 8
attr repetition 0
attr replication #0
attr resultdir results
attr runnumber 63
attr seedset 8
attr variance 0.05
attr window 60

scalar . 	a 	0.9
scalar . 	mytime 	600
scalar . 	rep 	8
scalar . 	variance 	0.05
scalar . 	window 	60
scalar dtelecom_network.content_distribution 	repo-0 	4
scalar dtelecom_network.content_distribution 	repo-1 	62
scalar dtelecom_network.content_distribution 	repo-2 	15
scalar dtelecom_network.content_distribution 	repo-3 	61
scalar dtelecom_network.content_distribution 	repo-4 	23
scalar dtelecom_network.content_distribution 	repo-5 	44
scalar dtelecom_network.content_distribution 	repo-6 	50
scalar dtelecom_network.content_distribution 	repo-7 	8
scalar dtelecom_network.content_distribution 	repo-8 	28
scalar dtelecom_network.content_distribution 	repo-9 	31
scalar dtelecom_network.content_distribution 	repo-10 	1
scalar dtelecom_network.content_distribution 	repo-11 	39
scalar dtelecom_network.content_distribution 	repo-12 	3
scalar dtelecom_network.content_distribution 	repo-13 	55
scalar dtelecom_network.content_distribution 	repo-14 	45
scalar dtelecom_network.content_distribution 	repo-15 	22
scalar dtelecom_network.content_distribution 	client-0 	46
scalar dtelecom_network.content_distribution 	client-1 	30
scalar dtelecom_network.content_distribution 	client-2 	8
scalar dtelecom_network.content_distribution 	client-3 	49
scalar dtelecom_network.content_distribution 	client-4 	66
scalar dtelecom_network.content_distribution 	client-5 	58
scalar dtelecom_network.content_distribution 	client-6 	32
scalar dtelecom_network.content_distribution 	client-7 	40
scalar dtelecom_network.content_distribution 	client-8 	42
scalar dtelecom_network.content_distribution 	client-9 	45
scalar dtelecom_network.content_distribution 	client-10 	33
scalar dtelecom_network.content_distribution 	client-11 	28
scalar dtelecom_network.content_distribution 	client-12 	3
scalar dtelecom_network.content_distribution 	client-13 	57
scalar dtelecom_network.content_distribution 	client-14 	50
scalar dtelecom_network.content_distribution 	client-15 	17
scalar dtelecom_network.content_distribution 	client-16 	59
scalar dtelecom_network.content_distribution 	client-17 	48
scalar dtelecom_network.content_distribution 	client-18 	23
scalar dtelecom_network.content_distribution 	client-19 	22
scalar dtelecom_network.content_distribution 	client-20 	67
scalar dtelecom_network.content_distribution 	client-21 	62
scalar dtelecom_network.content_distribution 	client-22 	56
scalar dtelecom_network.content_distribution 	client-23 	55
scalar dtelecom_network.content_distribution 	client-24 	53
scalar dtelecom_network.content_distribution 	client-25 	36
scalar dtelecom_network.content_distribution 	client-26 	51
scalar dtelecom_network.content_distribution 	client-27 	37
scalar dtelecom_network.content_distribution 	client-28 	54
scalar dtelecom_network.content_distribution 	client-29 	4
scalar dtelecom_network.content_distribution 	client-30 	31
scalar dtelecom_network.content_distribution 	client-31 	9
scalar dtelecom_network.content_distribution 	repo-0_card 	6204
scalar dtelecom_network.content_distribution 	repo-0_price 	0
scalar dtelecom_network.content_distribution 	repo-1_card 	6316
scalar dtelecom_network.content_distribution 	repo-1_price 	0
scalar dtelecom_network.content_distribution 	repo-2_card 	6112
scalar dtelecom_network.content_distribution 	repo-2_price 	0
scalar dtelecom_network.content_distribution 	repo-3_card 	6350
scalar dtelecom_network.content_distribution 	repo-3_price 	0
scalar dtelecom_network.content_distribution 	repo-4_card 	6339
scalar dtelecom_network.content_distribution 	repo-4_price 	0
scalar dtelecom_network.content_distribution 	repo-5_card 	6223
scalar dtelecom_network.content_distribution 	repo-5_price 	0
scalar dtelecom_network.content_distribution 	repo-6_card 	6195
scalar dtelecom_network.content_distribution 	repo-6_price 	0
scalar dtelecom_network.content_distribution 	repo-7_card 	6310
scalar dtelecom_network.content_distribution 	repo-7_price 	0
scalar dtelecom_network.content_distribution 	repo-8_card 	6323
scalar dtelecom_network.content_distribution 	repo-8_price 	0
scalar dtelecom_network.content_distribution 	repo-9_card 	6231
scalar dtelecom_network.content_distribution 	repo-9_price 	0
scalar dtelecom_network.content_distribution 	repo-10_card 	6186
scalar dtelecom_network.content_distribution 	repo-10_price 	0
scalar dtelecom_network.content_distribution 	repo-11_card 	6137
scalar dtelecom_network.content_distribution 	repo-11_price 	0
scalar dtelecom_network.content_distribution 	repo-12_card 	6315
scalar dtelecom_network.content_distribution 	repo-12_price 	0
scalar dtelecom_network.content_distribution 	repo-13_card 	6325
scalar dtelecom_network.content_distribution 	repo-13_price 	0
scalar dtelecom_network.content_distribution 	repo-14_card 	6117
scalar dtelecom_network.content_distribution 	repo-14_price 	0
scalar dtelecom_network.content_distribution 	repo-15_card 	6317
scalar dtelecom_network.content_distribution 	repo-15_price 	0
scalar dtelecom_network.statistics 	stabilization_time 	1485.6
scalar dtelecom_network.statistics 	p_hit 	0.25671662411651
scalar dtelecom_network.statistics 	interests 	13629.735294118
scalar dtelecom_network.statistics 	data 	7962.9558823529
scalar dtelecom_network.statistics 	hdistance 	2.0024089534275
scalar dtelecom_network.statistics 	avg_time 	0.02693636633
scalar dtelecom_network.statistics 	downloads 	385167
scalar dtelecom_network.statistics 	total_cost 	0
scalar dtelecom_network.statistics 	total_replicas 	100000
scalar dtelecom_network.statistics 	inner_hit 	0.40364049879663
scalar dtelecom_network.node[0].core_layer 	interests[0] 	0
scalar dtelecom_network.node[0].core_layer 	data[0] 	0
scalar dtelecom_network.node[0].core_layer 	repo_int[0] 	229698
scalar dtelecom_network.node[0].content_store 	p_hit[0] 	-nan
scalar dtelecom_network.node[0].content_store 	hits[0] 	0
scalar dtelecom_network.node[0].content_store 	misses[0] 	0
scalar dtelecom_network.node[0].content_store 	decision_yes[0] 	0
scalar dtelecom_network.node[0].content_store 	decision_no[0] 	0
scalar dtelecom_network.node[0].content_store 	decision_ratio[0] 	0
scalar dtelecom_network.node[1].core_layer 	interests[1] 	177309
scalar dtelecom_network.node[1].core_layer 	repo_load[1] 	16374
scalar dtelecom_network.node[1].core_layer 	data[1] 	155968
scalar dtelecom_network.node[1].content_store 	p_hit[1] 	0.027731248836776
scalar dtelecom_network.node[1].content_store 	hits[1] 	4917
scalar dtelecom_network.node[1].content_store 	misses[1] 	172392
scalar dtelecom_network.node[1].content_store 	decision_yes[1] 	172316
scalar dtelecom_network.node[1].content_store 	decision_no[1] 	0
scalar dtelecom_network.node[1].content_store 	decision_ratio[1] 	1
scalar dtelecom_network.node[2].core_layer 	interests[2] 	6890
scalar dtelecom_network.node[2].core_layer 	data[2] 	2730
scalar dtelecom_network.node[2].content_store 	p_hit[2] 	0.60377358490566
scalar dtelecom_network.node[2].content_store 	hits[2] 	4160
scalar dtelecom_network.node[2].content_store 	misses[2] 	2730
scalar dtelecom_network.node[2].content_store 	decision_yes[2] 	2729
scalar dtelecom_network.node[2].content_store 	decision_no[2] 	0
scalar dtelecom_network.node[2].content_store 	decision_ratio[2] 	1
scalar dtelecom_network.node[3].core_layer 	interests[3] 	36028
scalar dtelecom_network.node[3].core_layer 	repo_load[3] 	14820
scalar dtelecom_network.node[3].core_layer 	data[3] 	9655
scalar dtelecom_network.node[3].content_store 	p_hit[3] 	0.32061174641945
scalar dtelecom_network.node[3].content_store 	hits[3] 	11551
scalar dtelecom_network.node[3].content_store 	misses[3] 	24477
scalar dtelecom_network.node[3].content_store 	decision_yes[3] 	24475
scalar dtelecom_network.node[3].content_store 	decision_no[3] 	0
scalar dtelecom_network.node[3].content_store 	decision_ratio[3] 	1
scalar dtelecom_network.node[4].core_layer 	interests[4] 	70144
scalar dtelecom_network.node[4].core_layer 	repo_load[4] 	15516
scalar dtelecom_network.node[4].core_layer 	data[4] 	45186
scalar dtelecom_network.node[4].content_store 	p_hit[4] 	0.1330691149635
scalar dtelecom_network.node[4].content_store 	hits[4] 	9334
scalar dtelecom_network.node[4].content_store 	misses[4] 	60810
scalar dtelecom_network.node[4].content_store 	decision_yes[4] 	60651
scalar dtelecom_network.node[4].content_store 	decision_no[4] 	0
scalar dtelecom_network.node[4].content_store 	decision_ratio[4] 	1
scalar dtelecom_network.node[5].core_layer 	interests[5] 	0
scalar dtelecom_network.node[5].core_layer 	data[5] 	0
scalar dtelecom_network.node[5].content_store 	p_hit[5] 	-nan
scalar dtelecom_network.node[5].content_store 	hits[5] 	0
scalar dtelecom_network.node[5].content_store 	misses[5] 	0
scalar dtelecom_network.node[5].content_store 	decision_yes[5] 	0
scalar dtelecom_network.node[5].content_store 	decision_no[5] 	0
scalar dtelecom_network.node[5].content_store 	decision_ratio[5] 	0
scalar dtelecom_network.node[6].core_layer 	interests[6] 	0
scalar dtelecom_network.node[6].core_layer 	data[6] 	0
scalar dtelecom_network.node[6].content_store 	p_hit[6] 	-nan
scalar dtelecom_network.node[6].content_store 	hits[6] 	0
scalar dtelecom_network.node[6].content_store 	misses[6] 	0
scalar dtelecom_network.node[6].content_store 	decision_yes[6] 	0
scalar dtelecom_network.node[6].content_store 	decision_no[6] 	0
scalar dtelecom_network.node[6].content_store 	decision_ratio[6] 	0
scalar dtelecom_network.node[7].core_layer 	interests[7] 	0
scalar dtelecom_network.node[7].core_layer 	data[7] 	0
scalar dtelecom_network.node[7].content_store 	p_hit[7] 	-nan
scalar dtelecom_network.node[7].content_store 	hits[7] 	0
scalar dtelecom_network.node[7].content_store 	misses[7] 	0
scalar dtelecom_network.node[7].content_store 	decision_yes[7] 	0
scalar dtelecom_network.node[7].content_store 	decision_no[7] 	0
scalar dtelecom_network.node[7].content_store 	decision_ratio[7] 	0
scalar dtelecom_network.node[8].core_layer 	interests[8] 	26133
scalar dtelecom_network.node[8].core_layer 	repo_load[8] 	13649
scalar dtelecom_network.node[8].core_layer 	data[8] 	10129
scalar dtelecom_network.node[8].content_store 	p_hit[8] 	0.089886350591207
scalar dtelecom_network.node[8].content_store 	hits[8] 	2349
scalar dtelecom_network.node[8].content_store 	misses[8] 	23784
scalar dtelecom_network.node[8].content_store 	decision_yes[8] 	23778
scalar dtelecom_network.node[8].content_store 	decision_no[8] 	0
scalar dtelecom_network.node[8].content_store 	decision_ratio[8] 	1
scalar dtelecom_network.node[9].core_layer 	interests[9] 	16267
scalar dtelecom_network.node[9].core_layer 	data[9] 	10650
scalar dtelecom_network.node[9].content_store 	p_hit[9] 	0.34505440462286
scalar dtelecom_network.node[9].content_store 	hits[9] 	5613
scalar dtelecom_network.node[9].content_store 	misses[9] 	10654
scalar dtelecom_network.node[9].content_store 	decision_yes[9] 	10650
scalar dtelecom_network.node[9].content_store 	decision_no[9] 	0
scalar dtelecom_network.node[9].content_store 	decision_ratio[9] 	1
scalar dtelecom_network.node[10].core_layer 	interests[10] 	0
scalar dtelecom_network.node[10].core_layer 	data[10] 	0
scalar dtelecom_network.node[10].content_store 	p_hit[10] 	-nan
scalar dtelecom_network.node[10].content_store 	hits[10] 	0
scalar dtelecom_network.node[10].content_store 	misses[10] 	0
scalar dtelecom_network.node[10].content_store 	decision_yes[10] 	0
scalar dtelecom_network.node[10].content_store 	decision_no[10] 	0
scalar dtelecom_network.node[10].content_store 	decision_ratio[10] 	0
scalar dtelecom_network.node[11].core_layer 	interests[11] 	0
scalar dtelecom_network.node[11].core_layer 	data[11] 	0
scalar dtelecom_network.node[11].content_store 	p_hit[11] 	-nan
scalar dtelecom_network.node[11].content_store 	hits[11] 	0
scalar dtelecom_network.node[11].content_store 	misses[11] 	0
scalar dtelecom_network.node[11].content_store 	decision_yes[11] 	0
scalar dtelecom_network.node[11].content_store 	decision_no[11] 	0
scalar dtelecom_network.node[11].content_store 	decision_ratio[11] 	0
scalar dtelecom_network.node[12].core_layer 	interests[12] 	0
scalar dtelecom_network.node[12].core_layer 	data[12] 	0
scalar dtelecom_network.node[12].content_store 	p_hit[12] 	-nan
scalar dtelecom_network.node[12].content_store 	hits[12] 	0
scalar dtelecom_network.node[12].content_store 	misses[12] 	0
scalar dtelecom_network.node[12].content_store 	decision_yes[12] 	0
scalar dtelecom_network.node[12].content_store 	decision_no[12] 	0
scalar dtelecom_network.node[12].content_store 	decision_ratio[12] 	0
scalar dtelecom_network.node[13].core_layer 	interests[13] 	0
scalar dtelecom_network.node[13].core_layer 	data[13] 	0
scalar dtelecom_network.node[13].content_store 	p_hit[13] 	-nan
scalar dtelecom_network.node[13].content_store 	hits[13] 	0
scalar dtelecom_network.node[13].content_store 	misses[13] 	0
scalar dtelecom_network.node[13].content_store 	decision_yes[13] 	0
scalar dtelecom_network.node[13].content_store 	decision_no[13] 	0
scalar dtelecom_network.node[13].content_store 	decision_ratio[13] 	0
scalar dtelecom_network.node[14].core_layer 	interests[14] 	0
scalar dtelecom_network.node[14].core_layer 	data[14] 	0
scalar dtelecom_network.node[14].content_store 	p_hit[14] 	-nan
scalar dtelecom_network.node[14].content_store 	hits[14] 	0
scalar dtelecom_network.node[14].content_store 	misses[14] 	0
scalar dtelecom_network.node[14].content_store 	decision_yes[14] 	0
scalar dtelecom_network.node[14].content_store 	decision_no[14] 	0
scalar dtelecom_network.node[14].content_store 	decision_ratio[14] 	0
scalar dtelecom_network.node[15].core_layer 	interests[15] 	14911
scalar dtelecom_network.node[15].core_layer 	repo_load[15] 	13981
scalar dtelecom_network.node[15].core_layer 	data[15] 	0
scalar dtelecom_network.node[15].content_store 	p_hit[15] 	0.062370062370062
scalar dtelecom_network.node[15].content_store 	hits[15] 	930
scalar dtelecom_network.node[15].content_store 	misses[15] 	13981
scalar dtelecom_network.node[15].content_store 	decision_yes[15] 	13981
scalar dtelecom_network.node[15].content_store 	decision_no[15] 	0
scalar dtelecom_network.node[15].content_store 	decision_ratio[15] 	1
scalar dtelecom_network.node[16].core_layer 	interests[16] 	0
scalar dtelecom_network.node[16].core_layer 	data[16] 	0
scalar dtelecom_network.node[16].content_store 	p_hit[16] 	-nan
scalar dtelecom_network.node[16].content_store 	hits[16] 	0
scalar dtelecom_network.node[16].content_store 	misses[16] 	0
scalar dtelecom_network.node[16].content_store 	decision_yes[16] 	0
scalar dtelecom_network.node[16].content_store 	decision_no[16] 	0
scalar dtelecom_network.node[16].content_store 	decision_ratio[16] 	0
scalar dtelecom_network.node[17].core_layer 	interests[17] 	14657
scalar dtelecom_network.node[17].core_layer 	data[17] 	10705
scalar dtelecom_network.node[17].content_store 	p_hit[17] 	0.26922289690933
scalar dtelecom_network.node[17].content_store 	hits[17] 	3946
scalar dtelecom_network.node[17].content_store 	misses[17] 	10711
scalar dtelecom_network.node[17].content_store 	decision_yes[17] 	10705
scalar dtelecom_network.node[17].content_store 	decision_no[17] 	0
scalar dtelecom_network.node[17].content_store 	decision_ratio[17] 	1
scalar dtelecom_network.node[18].core_layer 	interests[18] 	0
scalar dtelecom_network.node[18].core_layer 	data[18] 	0
scalar dtelecom_network.node[18].content_store 	p_hit[18] 	-nan
scalar dtelecom_network.node[18].content_store 	hits[18] 	0
scalar dtelecom_network.node[18].content_store 	misses[18] 	0
scalar dtelecom_network.node[18].content_store 	decision_yes[18] 	0
scalar dtelecom_network.node[18].content_store 	decision_no[18] 	0
scalar dtelecom_network.node[18].content_store 	decision_ratio[18] 	0
scalar dtelecom_network.node[19].core_layer 	interests[19] 	0
scalar dtelecom_network.node[19].core_layer 	data[19] 	0
scalar dtelecom_network.node[19].content_store 	p_hit[19] 	-nan
scalar dtelecom_network.node[19].content_store 	hits[19] 	0
scalar dtelecom_network.node[19].content_store 	misses[19] 	0
scalar dtelecom_network.node[19].content_store 	decision_yes[19] 	0
scalar dtelecom_network.node[19].content_store 	decision_no[19] 	0
scalar dtelecom_network.node[19].content_store 	decision_ratio[19] 	0
scalar dtelecom_network.node[20].core_layer 	interests[20] 	0
scalar dtelecom_network.node[20].core_layer 	data[20] 	0
scalar dtelecom_network.node[20].content_store 	p_hit[20] 	-nan
scalar dtelecom_network.node[20].content_store 	hits[20] 	0
scalar dtelecom_network.node[20].content_store 	misses[20] 	0
scalar dtelecom_network.node[20].content_store 	decision_yes[20] 	0
scalar dtelecom_network.node[20].content_store 	decision_no[20] 	0
scalar dtelecom_network.node[20].content_store 	decision_ratio[20] 	0
scalar dtelecom_network.node[21].core_layer 	interests[21] 	0
scalar dtelecom_network.node[21].core_layer 	data[21] 	0
scalar dtelecom_network.node[21].content_store 	p_hit[21] 	-nan
scalar dtelecom_network.node[21].content_store 	hits[21] 	0
scalar dtelecom_network.node[21].content_store 	misses[21] 	0
scalar dtelecom_network.node[21].content_store 	decision_yes[21] 	0
scalar dtelecom_network.node[21].content_store 	decision_no[21] 	0
scalar dtelecom_network.node[21].content_store 	decision_ratio[21] 	0
scalar dtelecom_network.node[22].core_layer 	interests[22] 	26804
scalar dtelecom_network.node[22].core_layer 	repo_load[22] 	14492
scalar dtelecom_network.node[22].core_layer 	data[22] 	9928
scalar dtelecom_network.node[22].content_store 	p_hit[22] 	0.088904641098344
scalar dtelecom_network.node[22].content_store 	hits[22] 	2383
scalar dtelecom_network.node[22].content_store 	misses[22] 	24421
scalar dtelecom_network.node[22].content_store 	decision_yes[22] 	24420
scalar dtelecom_network.node[22].content_store 	decision_no[22] 	0
scalar dtelecom_network.node[22].content_store 	decision_ratio[22] 	1
scalar dtelecom_network.node[23].core_layer 	interests[23] 	51735
scalar dtelecom_network.node[23].core_layer 	repo_load[23] 	14942
scalar dtelecom_network.node[23].core_layer 	data[23] 	32563
scalar dtelecom_network.node[23].content_store 	p_hit[23] 	0.081240939402725
scalar dtelecom_network.node[23].content_store 	hits[23] 	4203
scalar dtelecom_network.node[23].content_store 	misses[23] 	47532
scalar dtelecom_network.node[23].content_store 	decision_yes[23] 	47499
scalar dtelecom_network.node[23].content_store 	decision_no[23] 	0
scalar dtelecom_network.node[23].content_store 	decision_ratio[23] 	1
scalar dtelecom_network.node[24].core_layer 	interests[24] 	0
scalar dtelecom_network.node[24].core_layer 	data[24] 	0
scalar dtelecom_network.node[24].content_store 	p_hit[24] 	-nan
scalar dtelecom_network.node[24].content_store 	hits[24] 	0
scalar dtelecom_network.node[24].content_store 	misses[24] 	0
scalar dtelecom_network.node[24].content_store 	decision_yes[24] 	0
scalar dtelecom_network.node[24].content_store 	decision_no[24] 	0
scalar dtelecom_network.node[24].content_store 	decision_ratio[24] 	0
scalar dtelecom_network.node[25].core_layer 	interests[25] 	0
scalar dtelecom_network.node[25].core_layer 	data[25] 	0
scalar dtelecom_network.node[25].content_store 	p_hit[25] 	-nan
scalar dtelecom_network.node[25].content_store 	hits[25] 	0
scalar dtelecom_network.node[25].content_store 	misses[25] 	0
scalar dtelecom_network.node[25].content_store 	decision_yes[25] 	0
scalar dtelecom_network.node[25].content_store 	decision_no[25] 	0
scalar dtelecom_network.node[25].content_store 	decision_ratio[25] 	0
scalar dtelecom_network.node[26].core_layer 	interests[26] 	2984
scalar dtelecom_network.node[26].core_layer 	data[26] 	399
scalar dtelecom_network.node[26].content_store 	p_hit[26] 	0.86628686327078
scalar dtelecom_network.node[26].content_store 	hits[26] 	2585
scalar dtelecom_network.node[26].content_store 	misses[26] 	399
scalar dtelecom_network.node[26].content_store 	decision_yes[26] 	399
scalar dtelecom_network.node[26].content_store 	decision_no[26] 	0
scalar dtelecom_network.node[26].content_store 	decision_ratio[26] 	1
scalar dtelecom_network.node[27].core_layer 	interests[27] 	0
scalar dtelecom_network.node[27].core_layer 	data[27] 	0
scalar dtelecom_network.node[27].content_store 	p_hit[27] 	-nan
scalar dtelecom_network.node[27].content_store 	hits[27] 	0
scalar dtelecom_network.node[27].content_store 	misses[27] 	0
scalar dtelecom_network.node[27].content_store 	decision_yes[27] 	0
scalar dtelecom_network.node[27].content_store 	decision_no[27] 	0
scalar dtelecom_network.node[27].content_store 	decision_ratio[27] 	0
scalar dtelecom_network.node[28].core_layer 	interests[28] 	27775
scalar dtelecom_network.node[28].core_layer 	repo_load[28] 	14705
scalar dtelecom_network.node[28].core_layer 	data[28] 	10120
scalar dtelecom_network.node[28].content_store 	p_hit[28] 	0.10588658865887
scalar dtelecom_network.node[28].content_store 	hits[28] 	2941
scalar dtelecom_network.node[28].content_store 	misses[28] 	24834
scalar dtelecom_network.node[28].content_store 	decision_yes[28] 	24825
scalar dtelecom_network.node[28].content_store 	decision_no[28] 	0
scalar dtelecom_network.node[28].content_store 	decision_ratio[28] 	1
scalar dtelecom_network.node[29].core_layer 	interests[29] 	0
scalar dtelecom_network.node[29].core_layer 	data[29] 	0
scalar dtelecom_network.node[29].content_store 	p_hit[29] 	-nan
scalar dtelecom_network.node[29].content_store 	hits[29] 	0
scalar dtelecom_network.node[29].content_store 	misses[29] 	0
scalar dtelecom_network.node[29].content_store 	decision_yes[29] 	0
scalar dtelecom_network.node[29].content_store 	decision_no[29] 	0
scalar dtelecom_network.node[29].content_store 	decision_ratio[29] 	0
scalar dtelecom_network.node[30].core_layer 	interests[30] 	13869
scalar dtelecom_network.node[30].core_layer 	data[30] 	10231
scalar dtelecom_network.node[30].content_store 	p_hit[30] 	0.26187901074338
scalar dtelecom_network.node[30].content_store 	hits[30] 	3632
scalar dtelecom_network.node[30].content_store 	misses[30] 	10237
scalar dtelecom_network.node[30].content_store 	decision_yes[30] 	10231
scalar dtelecom_network.node[30].content_store 	decision_no[30] 	0
scalar dtelecom_network.node[30].content_store 	decision_ratio[30] 	1
scalar dtelecom_network.node[31].core_layer 	interests[31] 	26863
scalar dtelecom_network.node[31].core_layer 	repo_load[31] 	14202
scalar dtelecom_network.node[31].core_layer 	data[31] 	10088
scalar dtelecom_network.node[31].content_store 	p_hit[31] 	0.095410043554331
scalar dtelecom_network.node[31].content_store 	hits[31] 	2563
scalar dtelecom_network.node[31].content_store 	misses[31] 	24300
scalar dtelecom_network.node[31].content_store 	decision_yes[31] 	24290
scalar dtelecom_network.node[31].content_store 	decision_no[31] 	0
scalar dtelecom_network.node[31].content_store 	decision_ratio[31] 	1
scalar dtelecom_network.node[32].core_layer 	interests[32] 	13799
scalar dtelecom_network.node[32].core_layer 	data[32] 	10160
scalar dtelecom_network.node[32].content_store 	p_hit[32] 	0.26364229291978
scalar dtelecom_network.node[32].content_store 	hits[32] 	3638
scalar dtelecom_network.node[32].content_store 	misses[32] 	10161
scalar dtelecom_network.node[32].content_store 	decision_yes[32] 	10160
scalar dtelecom_network.node[32].content_store 	decision_no[32] 	0
scalar dtelecom_network.node[32].content_store 	decision_ratio[32] 	1
scalar dtelecom_network.node[33].core_layer 	interests[33] 	15288
scalar dtelecom_network.node[33].core_layer 	data[33] 	9930
scalar dtelecom_network.node[33].content_store 	p_hit[33] 	0.35053636839351
scalar dtelecom_network.node[33].content_store 	hits[33] 	5359
scalar dtelecom_network.node[33].content_store 	misses[33] 	9929
scalar dtelecom_network.node[33].content_store 	decision_yes[33] 	9930
scalar dtelecom_network.node[33].content_store 	decision_no[33] 	0
scalar dtelecom_network.node[33].content_store 	decision_ratio[33] 	1
scalar dtelecom_network.node[34].core_layer 	interests[34] 	0
scalar dtelecom_network.node[34].core_layer 	data[34] 	0
scalar dtelecom_network.node[34].content_store 	p_hit[34] 	-nan
scalar dtelecom_network.node[34].content_store 	hits[34] 	0
scalar dtelecom_network.node[34].content_store 	misses[34] 	0
scalar dtelecom_network.node[34].content_store 	decision_yes[34] 	0
scalar dtelecom_network.node[34].content_store 	decision_no[34] 	0
scalar dtelecom_network.node[34].content_store 	decision_ratio[34] 	0
scalar dtelecom_network.node[35].core_layer 	interests[35] 	0
scalar dtelecom_network.node[35].core_layer 	data[35] 	0
scalar dtelecom_network.node[35].content_store 	p_hit[35] 	-nan
scalar dtelecom_network.node[35].content_store 	hits[35] 	0
scalar dtelecom_network.node[35].content_store 	misses[35] 	0
scalar dtelecom_network.node[35].content_store 	decision_yes[35] 	0
scalar dtelecom_network.node[35].content_store 	decision_no[35] 	0
scalar dtelecom_network.node[35].content_store 	decision_ratio[35] 	0
scalar dtelecom_network.node[36].core_layer 	interests[36] 	14008
scalar dtelecom_network.node[36].core_layer 	data[36] 	10228
scalar dtelecom_network.node[36].content_store 	p_hit[36] 	0.26956025128498
scalar dtelecom_network.node[36].content_store 	hits[36] 	3776
scalar dtelecom_network.node[36].content_store 	misses[36] 	10232
scalar dtelecom_network.node[36].content_store 	decision_yes[36] 	10228
scalar dtelecom_network.node[36].content_store 	decision_no[36] 	0
scalar dtelecom_network.node[36].content_store 	decision_ratio[36] 	1
scalar dtelecom_network.node[37].core_layer 	interests[37] 	14397
scalar dtelecom_network.node[37].core_layer 	data[37] 	10077
scalar dtelecom_network.node[37].content_store 	p_hit[37] 	0.29978467736334
scalar dtelecom_network.node[37].content_store 	hits[37] 	4316
scalar dtelecom_network.node[37].content_store 	misses[37] 	10081
scalar dtelecom_network.node[37].content_store 	decision_yes[37] 	10077
scalar dtelecom_network.node[37].content_store 	decision_no[37] 	0
scalar dtelecom_network.node[37].content_store 	decision_ratio[37] 	1
scalar dtelecom_network.node[38].core_layer 	interests[38] 	0
scalar dtelecom_network.node[38].core_layer 	data[38] 	0
scalar dtelecom_network.node[38].content_store 	p_hit[38] 	-nan
scalar dtelecom_network.node[38].content_store 	hits[38] 	0
scalar dtelecom_network.node[38].content_store 	misses[38] 	0
scalar dtelecom_network.node[38].content_store 	decision_yes[38] 	0
scalar dtelecom_network.node[38].content_store 	decision_no[38] 	0
scalar dtelecom_network.node[38].content_store 	decision_ratio[38] 	0
scalar dtelecom_network.node[39].core_layer 	interests[39] 	14285
scalar dtelecom_network.node[39].core_layer 	repo_load[39] 	13464
scalar dtelecom_network.node[39].core_layer 	data[39] 	0
scalar dtelecom_network.node[39].content_store 	p_hit[39] 	0.057472873643682
scalar dtelecom_network.node[39].content_store 	hits[39] 	821
scalar dtelecom_network.node[39].content_store 	misses[39] 	13464
scalar dtelecom_network.node[39].content_store 	decision_yes[39] 	13464
scalar dtelecom_network.node[39].content_store 	decision_no[39] 	0
scalar dtelecom_network.node[39].content_store 	decision_ratio[39] 	1
scalar dtelecom_network.node[40].core_layer 	interests[40] 	16764
scalar dtelecom_network.node[40].core_layer 	data[40] 	10456
scalar dtelecom_network.node[40].content_store 	p_hit[40] 	0.37634216177523
scalar dtelecom_network.node[40].content_store 	hits[40] 	6309
scalar dtelecom_network.node[40].content_store 	misses[40] 	10455
scalar dtelecom_network.node[40].content_store 	decision_yes[40] 	10455
scalar dtelecom_network.node[40].content_store 	decision_no[40] 	0
scalar dtelecom_network.node[40].content_store 	decision_ratio[40] 	1
scalar dtelecom_network.node[41].core_layer 	interests[41] 	0
scalar dtelecom_network.node[41].core_layer 	data[41] 	0
scalar dtelecom_network.node[41].content_store 	p_hit[41] 	-nan
scalar dtelecom_network.node[41].content_store 	hits[41] 	0
scalar dtelecom_network.node[41].content_store 	misses[41] 	0
scalar dtelecom_network.node[41].content_store 	decision_yes[41] 	0
scalar dtelecom_network.node[41].content_store 	decision_no[41] 	0
scalar dtelecom_network.node[41].content_store 	decision_ratio[41] 	0
scalar dtelecom_network.node[42].core_layer 	interests[42] 	14385
scalar dtelecom_network.node[42].core_layer 	data[42] 	10214
scalar dtelecom_network.node[42].content_store 	p_hit[42] 	0.28981578032673
scalar dtelecom_network.node[42].content_store 	hits[42] 	4169
scalar dtelecom_network.node[42].content_store 	misses[42] 	10216
scalar dtelecom_network.node[42].content_store 	decision_yes[42] 	10214
scalar dtelecom_network.node[42].content_store 	decision_no[42] 	0
scalar dtelecom_network.node[42].content_store 	decision_ratio[42] 	1
scalar dtelecom_network.node[43].core_layer 	interests[43] 	0
scalar dtelecom_network.node[43].core_layer 	data[43] 	0
scalar dtelecom_network.node[43].content_store 	p_hit[43] 	-nan
scalar dtelecom_network.node[43].content_store 	hits[43] 	0
scalar dtelecom_network.node[43].content_store 	misses[43] 	0
scalar dtelecom_network.node[43].content_store 	decision_yes[43] 	0
scalar dtelecom_network.node[43].content_store 	decision_no[43] 	0
scalar dtelecom_network.node[43].content_store 	decision_ratio[43] 	0
scalar dtelecom_network.node[44].core_layer 	interests[44] 	11682
scalar dtelecom_network.node[44].core_layer 	repo_load[44] 	11305
scalar dtelecom_network.node[44].core_layer 	data[44] 	0
scalar dtelecom_network.node[44].content_store 	p_hit[44] 	0.032271871254922
scalar dtelecom_network.node[44].content_store 	hits[44] 	377
scalar dtelecom_network.node[44].content_store 	misses[44] 	11305
scalar dtelecom_network.node[44].content_store 	decision_yes[44] 	11305
scalar dtelecom_network.node[44].content_store 	decision_no[44] 	0
scalar dtelecom_network.node[44].content_store 	decision_ratio[44] 	1
scalar dtelecom_network.node[45].core_layer 	interests[45] 	27910
scalar dtelecom_network.node[45].core_layer 	repo_load[45] 	14978
scalar dtelecom_network.node[45].core_layer 	data[45] 	10130
scalar dtelecom_network.node[45].content_store 	p_hit[45] 	0.10007165890362
scalar dtelecom_network.node[45].content_store 	hits[45] 	2793
scalar dtelecom_network.node[45].content_store 	misses[45] 	25117
scalar dtelecom_network.node[45].content_store 	decision_yes[45] 	25108
scalar dtelecom_network.node[45].content_store 	decision_no[45] 	0
scalar dtelecom_network.node[45].content_store 	decision_ratio[45] 	1
scalar dtelecom_network.node[46].core_layer 	interests[46] 	14525
scalar dtelecom_network.node[46].core_layer 	data[46] 	10133
scalar dtelecom_network.node[46].content_store 	p_hit[46] 	0.3021686746988
scalar dtelecom_network.node[46].content_store 	hits[46] 	4389
scalar dtelecom_network.node[46].content_store 	misses[46] 	10136
scalar dtelecom_network.node[46].content_store 	decision_yes[46] 	10133
scalar dtelecom_network.node[46].content_store 	decision_no[46] 	0
scalar dtelecom_network.node[46].content_store 	decision_ratio[46] 	1
scalar dtelecom_network.node[47].core_layer 	interests[47] 	0
scalar dtelecom_network.node[47].core_layer 	data[47] 	0
scalar dtelecom_network.node[47].content_store 	p_hit[47] 	-nan
scalar dtelecom_network.node[47].content_store 	hits[47] 	0
scalar dtelecom_network.node[47].content_store 	misses[47] 	0
scalar dtelecom_network.node[47].content_store 	decision_yes[47] 	0
scalar dtelecom_network.node[47].content_store 	decision_no[47] 	0
scalar dtelecom_network.node[47].content_store 	decision_ratio[47] 	0
scalar dtelecom_network.node[48].core_layer 	interests[48] 	14387
scalar dtelecom_network.node[48].core_layer 	data[48] 	10266
scalar dtelecom_network.node[48].content_store 	p_hit[48] 	0.28636963925766
scalar dtelecom_network.node[48].content_store 	hits[48] 	4120
scalar dtelecom_network.node[48].content_store 	misses[48] 	10267
scalar dtelecom_network.node[48].content_store 	decision_yes[48] 	10266
scalar dtelecom_network.node[48].content_store 	decision_no[48] 	0
scalar dtelecom_network.node[48].content_store 	decision_ratio[48] 	1
scalar dtelecom_network.node[49].core_layer 	interests[49] 	14191
scalar dtelecom_network.node[49].core_layer 	data[49] 	10114
scalar dtelecom_network.node[49].content_store 	p_hit[49] 	0.28701289549715
scalar dtelecom_network.node[49].content_store 	hits[49] 	4073
scalar dtelecom_network.node[49].content_store 	misses[49] 	10118
scalar dtelecom_network.node[49].content_store 	decision_yes[49] 	10114
scalar dtelecom_network.node[49].content_store 	decision_no[49] 	0
scalar dtelecom_network.node[49].content_store 	decision_ratio[49] 	1
scalar dtelecom_network.node[50].core_layer 	interests[50] 	26190
scalar dtelecom_network.node[50].core_layer 	repo_load[50] 	13720
scalar dtelecom_network.node[50].core_layer 	data[50] 	10259
scalar dtelecom_network.node[50].content_store 	p_hit[50] 	0.08434516991218
scalar dtelecom_network.node[50].content_store 	hits[50] 	2209
scalar dtelecom_network.node[50].content_store 	misses[50] 	23981
scalar dtelecom_network.node[50].content_store 	decision_yes[50] 	23979
scalar dtelecom_network.node[50].content_store 	decision_no[50] 	0
scalar dtelecom_network.node[50].content_store 	decision_ratio[50] 	1
scalar dtelecom_network.node[51].core_layer 	interests[51] 	14775
scalar dtelecom_network.node[51].core_layer 	data[51] 	9983
scalar dtelecom_network.node[51].content_store 	p_hit[51] 	0.32433164128596
scalar dtelecom_network.node[51].content_store 	hits[51] 	4792
scalar dtelecom_network.node[51].content_store 	misses[51] 	9983
scalar dtelecom_network.node[51].content_store 	decision_yes[51] 	9983
scalar dtelecom_network.node[51].content_store 	decision_no[51] 	0
scalar dtelecom_network.node[51].content_store 	decision_ratio[51] 	1
scalar dtelecom_network.node[52].core_layer 	interests[52] 	0
scalar dtelecom_network.node[52].core_layer 	data[52] 	0
scalar dtelecom_network.node[52].content_store 	p_hit[52] 	-nan
scalar dtelecom_network.node[52].content_store 	hits[52] 	0
scalar dtelecom_network.node[52].content_store 	misses[52] 	0
scalar dtelecom_network.node[52].content_store 	decision_yes[52] 	0
scalar dtelecom_network.node[52].content_store 	decision_no[52] 	0
scalar dtelecom_network.node[52].content_store 	decision_ratio[52] 	0
scalar dtelecom_network.node[53].core_layer 	interests[53] 	14231
scalar dtelecom_network.node[53].core_layer 	data[53] 	10166
scalar dtelecom_network.node[53].content_store 	p_hit[53] 	0.28536294006043
scalar dtelecom_network.node[53].content_store 	hits[53] 	4061
scalar dtelecom_network.node[53].content_store 	misses[53] 	10170
scalar dtelecom_network.node[53].content_store 	decision_yes[53] 	10166
scalar dtelecom_network.node[53].content_store 	decision_no[53] 	0
scalar dtelecom_network.node[53].content_store 	decision_ratio[53] 	1
scalar dtelecom_network.node[54].core_layer 	interests[54] 	14723
scalar dtelecom_network.node[54].core_layer 	data[54] 	10181
scalar dtelecom_network.node[54].content_store 	p_hit[54] 	0.30829314677715
scalar dtelecom_network.node[54].content_store 	hits[54] 	4539
scalar dtelecom_network.node[54].content_store 	misses[54] 	10184
scalar dtelecom_network.node[54].content_store 	decision_yes[54] 	10181
scalar dtelecom_network.node[54].content_store 	decision_no[54] 	0
scalar dtelecom_network.node[54].content_store 	decision_ratio[54] 	1
scalar dtelecom_network.node[55].core_layer 	interests[55] 	27379
scalar dtelecom_network.node[55].core_layer 	repo_load[55] 	14506
scalar dtelecom_network.node[55].core_layer 	data[55] 	10361
scalar dtelecom_network.node[55].content_store 	p_hit[55] 	0.09134738303079
scalar dtelecom_network.node[55].content_store 	hits[55] 	2501
scalar dtelecom_network.node[55].content_store 	misses[55] 	24878
scalar dtelecom_network.node[55].content_store 	decision_yes[55] 	24867
scalar dtelecom_network.node[55].content_store 	decision_no[55] 	0
scalar dtelecom_network.node[55].content_store 	decision_ratio[55] 	1
scalar dtelecom_network.node[56].core_layer 	interests[56] 	14306
scalar dtelecom_network.node[56].core_layer 	data[56] 	10199
scalar dtelecom_network.node[56].content_store 	p_hit[56] 	0.28666293862715
scalar dtelecom_network.node[56].content_store 	hits[56] 	4101
scalar dtelecom_network.node[56].content_store 	misses[56] 	10205
scalar dtelecom_network.node[56].content_store 	decision_yes[56] 	10199
scalar dtelecom_network.node[56].content_store 	decision_no[56] 	0
scalar dtelecom_network.node[56].content_store 	decision_ratio[56] 	1
scalar dtelecom_network.node[57].core_layer 	interests[57] 	13924
scalar dtelecom_network.node[57].core_layer 	data[57] 	10309
scalar dtelecom_network.node[57].content_store 	p_hit[57] 	0.25948003447285
scalar dtelecom_network.node[57].content_store 	hits[57] 	3613
scalar dtelecom_network.node[57].content_store 	misses[57] 	10311
scalar dtelecom_network.node[57].content_store 	decision_yes[57] 	10309
scalar dtelecom_network.node[57].content_store 	decision_no[57] 	0
scalar dtelecom_network.node[57].content_store 	decision_ratio[57] 	1
scalar dtelecom_network.node[58].core_layer 	interests[58] 	14280
scalar dtelecom_network.node[58].core_layer 	data[58] 	10009
scalar dtelecom_network.node[58].content_store 	p_hit[58] 	0.29894957983193
scalar dtelecom_network.node[58].content_store 	hits[58] 	4269
scalar dtelecom_network.node[58].content_store 	misses[58] 	10011
scalar dtelecom_network.node[58].content_store 	decision_yes[58] 	10009
scalar dtelecom_network.node[58].content_store 	decision_no[58] 	0
scalar dtelecom_network.node[58].content_store 	decision_ratio[58] 	1
scalar dtelecom_network.node[59].core_layer 	interests[59] 	17353
scalar dtelecom_network.node[59].core_layer 	data[59] 	9657
scalar dtelecom_network.node[59].content_store 	p_hit[59] 	0.44320866708926
scalar dtelecom_network.node[59].content_store 	hits[59] 	7691
scalar dtelecom_network.node[59].content_store 	misses[59] 	9662
scalar dtelecom_network.node[59].content_store 	decision_yes[59] 	9657
scalar dtelecom_network.node[59].content_store 	decision_no[59] 	0
scalar dtelecom_network.node[59].content_store 	decision_ratio[59] 	1
scalar dtelecom_network.node[60].core_layer 	interests[60] 	0
scalar dtelecom_network.node[60].core_layer 	data[60] 	0
scalar dtelecom_network.node[60].content_store 	p_hit[60] 	-nan
scalar dtelecom_network.node[60].content_store 	hits[60] 	0
scalar dtelecom_network.node[60].content_store 	misses[60] 	0
scalar dtelecom_network.node[60].content_store 	decision_yes[60] 	0
scalar dtelecom_network.node[60].content_store 	decision_no[60] 	0
scalar dtelecom_network.node[60].content_store 	decision_ratio[60] 	0
scalar dtelecom_network.node[61].core_layer 	interests[61] 	15543
scalar dtelecom_network.node[61].core_layer 	repo_load[61] 	14648
scalar dtelecom_network.node[61].core_layer 	data[61] 	0
scalar dtelecom_network.node[61].content_store 	p_hit[61] 	0.057582191340153
scalar dtelecom_network.node[61].content_store 	hits[61] 	895
scalar dtelecom_network.node[61].content_store 	misses[61] 	14648
scalar dtelecom_network.node[61].content_store 	decision_yes[61] 	14648
scalar dtelecom_network.node[61].content_store 	decision_no[61] 	0
scalar dtelecom_network.node[61].content_store 	decision_ratio[61] 	1
scalar dtelecom_network.node[62].core_layer 	interests[62] 	26305
scalar dtelecom_network.node[62].core_layer 	repo_load[62] 	14396
scalar dtelecom_network.node[62].core_layer 	data[62] 	10059
scalar dtelecom_network.node[62].content_store 	p_hit[62] 	0.069606538680859
scalar dtelecom_network.node[62].content_store 	hits[62] 	1831
scalar dtelecom_network.node[62].content_store 	misses[62] 	24474
scalar dtelecom_network.node[62].content_store 	decision_yes[62] 	24455
scalar dtelecom_network.node[62].content_store 	decision_no[62] 	0
scalar dtelecom_network.node[62].content_store 	decision_ratio[62] 	1
scalar dtelecom_network.node[63].core_layer 	interests[63] 	0
scalar dtelecom_network.node[63].core_layer 	data[63] 	0
scalar dtelecom_network.node[63].content_store 	p_hit[63] 	-nan
scalar dtelecom_network.node[63].content_store 	hits[63] 	0
scalar dtelecom_network.node[63].content_store 	misses[63] 	0
scalar dtelecom_network.node[63].content_store 	decision_yes[63] 	0
scalar dtelecom_network.node[63].content_store 	decision_no[63] 	0
scalar dtelecom_network.node[63].content_store 	decision_ratio[63] 	0
scalar dtelecom_network.node[64].core_layer 	interests[64] 	0
scalar dtelecom_network.node[64].core_layer 	data[64] 	0
scalar dtelecom_network.node[64].content_store 	p_hit[64] 	-nan
scalar dtelecom_network.node[64].content_store 	hits[64] 	0
scalar dtelecom_network.node[64].content_store 	misses[64] 	0
scalar dtelecom_network.node[64].content_store 	decision_yes[64] 	0
scalar dtelecom_network.node[64].content_store 	decision_no[64] 	0
scalar dtelecom_network.node[64].content_store 	decision_ratio[64] 	0
scalar dtelecom_network.node[65].core_layer 	interests[65] 	2854
scalar dtelecom_network.node[65].core_layer 	data[65] 	14
scalar dtelecom_network.node[65].content_store 	p_hit[65] 	0.99509460406447
scalar dtelecom_network.node[65].content_store 	hits[65] 	2840
scalar dtelecom_network.node[65].content_store 	misses[65] 	14
scalar dtelecom_network.node[65].content_store 	decision_yes[65] 	14
scalar dtelecom_network.node[65].content_store 	decision_no[65] 	0
scalar dtelecom_network.node[65].content_store 	decision_ratio[65] 	1
scalar dtelecom_network.node[66].core_layer 	interests[66] 	13533
scalar dtelecom_network.node[66].core_layer 	data[66] 	10092
scalar dtelecom_network.node[66].content_store 	p_hit[66] 	0.2531589448016
scalar dtelecom_network.node[66].content_store 	hits[66] 	3426
scalar dtelecom_network.node[66].content_store 	misses[66] 	10107
scalar dtelecom_network.node[66].content_store 	decision_yes[66] 	10092
scalar dtelecom_network.node[66].content_store 	decision_no[66] 	0
scalar dtelecom_network.node[66].content_store 	decision_ratio[66] 	1
scalar dtelecom_network.node[67].core_layer 	interests[67] 	13436
scalar dtelecom_network.node[67].core_layer 	data[67] 	10132
scalar dtelecom_network.node[67].content_store 	p_hit[67] 	0.24486454301876
scalar dtelecom_network.node[67].content_store 	hits[67] 	3290
scalar dtelecom_network.node[67].content_store 	misses[67] 	10146
scalar dtelecom_network.node[67].content_store 	decision_yes[67] 	10132
scalar dtelecom_network.node[67].content_store 	decision_no[67] 	0
scalar dtelecom_network.node[67].content_store 	decision_ratio[67] 	1
scalar dtelecom_network.client[3] 	hdistance[3] 	1.5196200949763
scalar dtelecom_network.client[3] 	downloads[3] 	12003
scalar dtelecom_network.client[3] 	avg_time[3] 	0.014303682306
scalar dtelecom_network.client[4] 	hdistance[4] 	1.4864639037433
scalar dtelecom_network.client[4] 	downloads[4] 	11968
scalar dtelecom_network.client[4] 	avg_time[4] 	0.053328147077
scalar dtelecom_network.client[8] 	hdistance[8] 	2.0715964411617
scalar dtelecom_network.client[8] 	downloads[8] 	11914
scalar dtelecom_network.client[8] 	avg_time[8] 	0.020184965755
scalar dtelecom_network.client[9] 	hdistance[9] 	1.8524238169956
scalar dtelecom_network.client[9] 	downloads[9] 	12109
scalar dtelecom_network.client[9] 	avg_time[9] 	0.018112477289
scalar dtelecom_network.client[17] 	hdistance[17] 	2.0227385892116
scalar dtelecom_network.client[17] 	downloads[17] 	12050
scalar dtelecom_network.client[17] 	avg_time[17] 	0.017683859594
scalar dtelecom_network.client[22] 	hdistance[22] 	2.0754511120437
scalar dtelecom_network.client[22] 	downloads[22] 	11915
scalar dtelecom_network.client[22] 	avg_time[22] 	0.018569355755
scalar dtelecom_network.client[23] 	hdistance[23] 	1.8259039128281
scalar dtelecom_network.client[23] 	downloads[23] 	12114
scalar dtelecom_network.client[23] 	avg_time[23] 	0.012332676176
scalar dtelecom_network.client[28] 	hdistance[28] 	1.9572977481234
scalar dtelecom_network.client[28] 	downloads[28] 	11990
scalar dtelecom_network.client[28] 	avg_time[28] 	0.022422406023
scalar dtelecom_network.client[30] 	hdistance[30] 	2.1146039603961
scalar dtelecom_network.client[30] 	downloads[30] 	12120
scalar dtelecom_network.client[30] 	avg_time[30] 	0.01873613807
scalar dtelecom_network.client[31] 	hdistance[31] 	2.0437086092715
scalar dtelecom_network.client[31] 	downloads[31] 	12080
scalar dtelecom_network.client[31] 	avg_time[31] 	0.022002539658
scalar dtelecom_network.client[32] 	hdistance[32] 	2.0958093809881
scalar dtelecom_network.client[32] 	downloads[32] 	12003
scalar dtelecom_network.client[32] 	avg_time[32] 	0.017280530235
scalar dtelecom_network.client[33] 	hdistance[33] 	1.9162483266399
scalar dtelecom_network.client[33] 	downloads[33] 	11952
scalar dtelecom_network.client[33] 	avg_time[33] 	0.017308954929
scalar dtelecom_network.client[36] 	hdistance[36] 	2.0931754182541
scalar dtelecom_network.client[36] 	downloads[36] 	12074
scalar dtelecom_network.client[36] 	avg_time[36] 	0.018006836493
scalar dtelecom_network.client[37] 	hdistance[37] 	1.9714877745545
scalar dtelecom_network.client[37] 	downloads[37] 	12065
scalar dtelecom_network.client[37] 	avg_time[37] 	0.019252968694
scalar dtelecom_network.client[40] 	hdistance[40] 	1.8713751557956
scalar dtelecom_network.client[40] 	downloads[40] 	12035
scalar dtelecom_network.client[40] 	avg_time[40] 	0.018955674428
scalar dtelecom_network.client[42] 	hdistance[42] 	2.0515000408731
scalar dtelecom_network.client[42] 	downloads[42] 	12233
scalar dtelecom_network.client[42] 	avg_time[42] 	0.020082846652
scalar dtelecom_network.client[45] 	hdistance[45] 	1.9212683169137
scalar dtelecom_network.client[45] 	downloads[45] 	12079
scalar dtelecom_network.client[45] 	avg_time[45] 	0.015439733036
scalar dtelecom_network.client[46] 	hdistance[46] 	1.9911401838205
scalar dtelecom_network.client[46] 	downloads[46] 	12077
scalar dtelecom_network.client[46] 	avg_time[46] 	0.019968401249
scalar dtelecom_network.client[48] 	hdistance[48] 	2.0814524043179
scalar dtelecom_network.client[48] 	downloads[48] 	12228
scalar dtelecom_network.client[48] 	avg_time[48] 	0.018426931734
scalar dtelecom_network.client[49] 	hdistance[49] 	2.0269616026711
scalar dtelecom_network.client[49] 	downloads[49] 	11980
scalar dtelecom_network.client[49] 	avg_time[49] 	0.017869577246
scalar dtelecom_network.client[50] 	hdistance[50] 	2.0821895154622
scalar dtelecom_network.client[50] 	downloads[50] 	12094
scalar dtelecom_network.client[50] 	avg_time[50] 	0.018329853776
scalar dtelecom_network.client[51] 	hdistance[51] 	1.947104117844
scalar dtelecom_network.client[51] 	downloads[51] 	11948
scalar dtelecom_network.client[51] 	avg_time[51] 	0.017959372791
scalar dtelecom_network.client[53] 	hdistance[53] 	2.0164844267727
scalar dtelecom_network.client[53] 	downloads[53] 	12072
scalar dtelecom_network.client[53] 	avg_time[53] 	0.017510762827
scalar dtelecom_network.client[54] 	hdistance[54] 	1.9724649629019
scalar dtelecom_network.client[54] 	downloads[54] 	12130
scalar dtelecom_network.client[54] 	avg_time[54] 	0.019228184624
scalar dtelecom_network.client[55] 	hdistance[55] 	2.0402690068072
scalar dtelecom_network.client[55] 	downloads[55] 	12193
scalar dtelecom_network.client[55] 	avg_time[55] 	0.024057355693
scalar dtelecom_network.client[56] 	hdistance[56] 	2.023837017486
scalar dtelecom_network.client[56] 	downloads[56] 	12124
scalar dtelecom_network.client[56] 	avg_time[56] 	0.018032036363
scalar dtelecom_network.client[57] 	hdistance[57] 	2.1088469184891
scalar dtelecom_network.client[57] 	downloads[57] 	12072
scalar dtelecom_network.client[57] 	avg_time[57] 	0.017553645877
scalar dtelecom_network.client[58] 	hdistance[58] 	2.0351319549504
scalar dtelecom_network.client[58] 	downloads[58] 	11898
scalar dtelecom_network.client[58] 	avg_time[58] 	0.021469505297
scalar dtelecom_network.client[59] 	hdistance[59] 	1.909075516424
scalar dtelecom_network.client[59] 	downloads[59] 	11812
scalar dtelecom_network.client[59] 	avg_time[59] 	0.060459904382
scalar dtelecom_network.client[62] 	hdistance[62] 	2.4546065904506
scalar dtelecom_network.client[62] 	downloads[62] 	11896
scalar dtelecom_network.client[62] 	avg_time[62] 	0.06151557634
scalar dtelecom_network.client[66] 	hdistance[66] 	2.2470588235294
scalar dtelecom_network.client[66] 	downloads[66] 	11985
scalar dtelecom_network.client[66] 	avg_time[66] 	0.101122794624
scalar dtelecom_network.client[67] 	hdistance[67] 	2.2497908649824
scalar dtelecom_network.client[67] 	downloads[67] 	11954
scalar dtelecom_network.client[67] 	avg_time[67] 	0.084456027567
