version 2
run General-8-20160826-14:55:11-11509
attr D never
attr F nrr
attr R lru
attr a 0.9
attr configname General
attr datetime 20160826-14:55:11
attr experiment General
attr inifile hw5115/scenario_C/omnetp.ini
attr iterationvars "$net=dtelecom, $rep=9, $a=0.9, $F=nrr, $D=never, $R=lru, $window=60, $variance=0.05, $mytime=600"
attr iterationvars2 "$net=dtelecom, $rep=9, $a=0.9, $F=nrr, $D=never, $R=lru, $window=60, $variance=0.05, $mytime=600, $repetition=0"
attr measurement "$net=dtelecom, $rep=9, $a=0.9, $F=nrr, $D=never, $R=lru, $window=60, $variance=0.05, $mytime=600"
attr mytime 600
attr net dtelecom
attr network networks.${net=dtelecom,level3}_network
attr processid 11509
attr rep 9
attr repetition 0
attr replication #0
attr resultdir results
attr runnumber 8
attr seedset 9
attr variance 0.05
attr window 60

scalar . 	a 	0.9
scalar . 	mytime 	600
scalar . 	rep 	9
scalar . 	variance 	0.05
scalar . 	window 	60
scalar dtelecom_network.content_distribution 	repo-0 	1
scalar dtelecom_network.content_distribution 	repo-1 	5
scalar dtelecom_network.content_distribution 	repo-2 	22
scalar dtelecom_network.content_distribution 	repo-3 	32
scalar dtelecom_network.content_distribution 	repo-4 	3
scalar dtelecom_network.content_distribution 	repo-5 	12
scalar dtelecom_network.content_distribution 	repo-6 	64
scalar dtelecom_network.content_distribution 	repo-7 	51
scalar dtelecom_network.content_distribution 	repo-8 	23
scalar dtelecom_network.content_distribution 	repo-9 	8
scalar dtelecom_network.content_distribution 	repo-10 	24
scalar dtelecom_network.content_distribution 	repo-11 	43
scalar dtelecom_network.content_distribution 	repo-12 	7
scalar dtelecom_network.content_distribution 	repo-13 	45
scalar dtelecom_network.content_distribution 	repo-14 	60
scalar dtelecom_network.content_distribution 	repo-15 	34
scalar dtelecom_network.content_distribution 	client-0 	46
scalar dtelecom_network.content_distribution 	client-1 	30
scalar dtelecom_network.content_distribution 	client-2 	8
scalar dtelecom_network.content_distribution 	client-3 	49
scalar dtelecom_network.content_distribution 	client-4 	66
scalar dtelecom_network.content_distribution 	client-5 	58
scalar dtelecom_network.content_distribution 	client-6 	32
scalar dtelecom_network.content_distribution 	client-7 	40
scalar dtelecom_network.content_distribution 	client-8 	42
scalar dtelecom_network.content_distribution 	client-9 	45
scalar dtelecom_network.content_distribution 	client-10 	33
scalar dtelecom_network.content_distribution 	client-11 	28
scalar dtelecom_network.content_distribution 	client-12 	3
scalar dtelecom_network.content_distribution 	client-13 	57
scalar dtelecom_network.content_distribution 	client-14 	50
scalar dtelecom_network.content_distribution 	client-15 	17
scalar dtelecom_network.content_distribution 	client-16 	59
scalar dtelecom_network.content_distribution 	client-17 	48
scalar dtelecom_network.content_distribution 	client-18 	23
scalar dtelecom_network.content_distribution 	client-19 	22
scalar dtelecom_network.content_distribution 	client-20 	67
scalar dtelecom_network.content_distribution 	client-21 	62
scalar dtelecom_network.content_distribution 	client-22 	56
scalar dtelecom_network.content_distribution 	client-23 	55
scalar dtelecom_network.content_distribution 	client-24 	53
scalar dtelecom_network.content_distribution 	client-25 	36
scalar dtelecom_network.content_distribution 	client-26 	51
scalar dtelecom_network.content_distribution 	client-27 	37
scalar dtelecom_network.content_distribution 	client-28 	54
scalar dtelecom_network.content_distribution 	client-29 	4
scalar dtelecom_network.content_distribution 	client-30 	31
scalar dtelecom_network.content_distribution 	client-31 	9
scalar dtelecom_network.content_distribution 	repo-0_card 	6357
scalar dtelecom_network.content_distribution 	repo-0_price 	0
scalar dtelecom_network.content_distribution 	repo-1_card 	6265
scalar dtelecom_network.content_distribution 	repo-1_price 	0
scalar dtelecom_network.content_distribution 	repo-2_card 	6375
scalar dtelecom_network.content_distribution 	repo-2_price 	0
scalar dtelecom_network.content_distribution 	repo-3_card 	6158
scalar dtelecom_network.content_distribution 	repo-3_price 	0
scalar dtelecom_network.content_distribution 	repo-4_card 	6159
scalar dtelecom_network.content_distribution 	repo-4_price 	0
scalar dtelecom_network.content_distribution 	repo-5_card 	6389
scalar dtelecom_network.content_distribution 	repo-5_price 	0
scalar dtelecom_network.content_distribution 	repo-6_card 	6324
scalar dtelecom_network.content_distribution 	repo-6_price 	0
scalar dtelecom_network.content_distribution 	repo-7_card 	6320
scalar dtelecom_network.content_distribution 	repo-7_price 	0
scalar dtelecom_network.content_distribution 	repo-8_card 	6094
scalar dtelecom_network.content_distribution 	repo-8_price 	0
scalar dtelecom_network.content_distribution 	repo-9_card 	6152
scalar dtelecom_network.content_distribution 	repo-9_price 	0
scalar dtelecom_network.content_distribution 	repo-10_card 	6306
scalar dtelecom_network.content_distribution 	repo-10_price 	0
scalar dtelecom_network.content_distribution 	repo-11_card 	6181
scalar dtelecom_network.content_distribution 	repo-11_price 	0
scalar dtelecom_network.content_distribution 	repo-12_card 	6224
scalar dtelecom_network.content_distribution 	repo-12_price 	0
scalar dtelecom_network.content_distribution 	repo-13_card 	6286
scalar dtelecom_network.content_distribution 	repo-13_price 	0
scalar dtelecom_network.content_distribution 	repo-14_card 	6172
scalar dtelecom_network.content_distribution 	repo-14_price 	0
scalar dtelecom_network.content_distribution 	repo-15_card 	6238
scalar dtelecom_network.content_distribution 	repo-15_price 	0
scalar dtelecom_network.statistics 	stabilization_time 	8.6955553668059e-322
scalar dtelecom_network.statistics 	p_hit 	0
scalar dtelecom_network.statistics 	interests 	15303.073529412
scalar dtelecom_network.statistics 	data 	9649.1911764706
scalar dtelecom_network.statistics 	hdistance 	2.7150865902711
scalar dtelecom_network.statistics 	avg_time 	0.02906623093
scalar dtelecom_network.statistics 	downloads 	383824
scalar dtelecom_network.statistics 	total_cost 	0
scalar dtelecom_network.statistics 	total_replicas 	100000
scalar dtelecom_network.statistics 	inner_hit 	0.0054608362165993
scalar dtelecom_network.node[0].core_layer 	interests[0] 	0
scalar dtelecom_network.node[0].core_layer 	data[0] 	0
scalar dtelecom_network.node[0].core_layer 	repo_int[0] 	381728
scalar dtelecom_network.node[0].content_store 	p_hit[0] 	-nan
scalar dtelecom_network.node[0].content_store 	hits[0] 	0
scalar dtelecom_network.node[0].content_store 	misses[0] 	0
scalar dtelecom_network.node[0].content_store 	decision_yes[0] 	0
scalar dtelecom_network.node[0].content_store 	decision_no[0] 	0
scalar dtelecom_network.node[0].content_store 	decision_ratio[0] 	0
scalar dtelecom_network.node[1].core_layer 	interests[1] 	236780
scalar dtelecom_network.node[1].core_layer 	repo_load[1] 	35368
scalar dtelecom_network.node[1].core_layer 	data[1] 	200653
scalar dtelecom_network.node[1].content_store 	p_hit[1] 	0
scalar dtelecom_network.node[1].content_store 	hits[1] 	0
scalar dtelecom_network.node[1].content_store 	misses[1] 	236780
scalar dtelecom_network.node[1].content_store 	decision_yes[1] 	0
scalar dtelecom_network.node[1].content_store 	decision_no[1] 	236021
scalar dtelecom_network.node[1].content_store 	decision_ratio[1] 	0
scalar dtelecom_network.node[2].core_layer 	interests[2] 	6119
scalar dtelecom_network.node[2].core_layer 	data[2] 	6119
scalar dtelecom_network.node[2].content_store 	p_hit[2] 	0
scalar dtelecom_network.node[2].content_store 	hits[2] 	0
scalar dtelecom_network.node[2].content_store 	misses[2] 	6119
scalar dtelecom_network.node[2].content_store 	decision_yes[2] 	0
scalar dtelecom_network.node[2].content_store 	decision_no[2] 	6119
scalar dtelecom_network.node[2].content_store 	decision_ratio[2] 	0
scalar dtelecom_network.node[3].core_layer 	interests[3] 	50969
scalar dtelecom_network.node[3].core_layer 	repo_load[3] 	26007
scalar dtelecom_network.node[3].core_layer 	data[3] 	24953
scalar dtelecom_network.node[3].content_store 	p_hit[3] 	0
scalar dtelecom_network.node[3].content_store 	hits[3] 	0
scalar dtelecom_network.node[3].content_store 	misses[3] 	50969
scalar dtelecom_network.node[3].content_store 	decision_yes[3] 	0
scalar dtelecom_network.node[3].content_store 	decision_no[3] 	50960
scalar dtelecom_network.node[3].content_store 	decision_ratio[3] 	0
scalar dtelecom_network.node[4].core_layer 	interests[4] 	54976
scalar dtelecom_network.node[4].core_layer 	data[4] 	53593
scalar dtelecom_network.node[4].content_store 	p_hit[4] 	0
scalar dtelecom_network.node[4].content_store 	hits[4] 	0
scalar dtelecom_network.node[4].content_store 	misses[4] 	54976
scalar dtelecom_network.node[4].content_store 	decision_yes[4] 	0
scalar dtelecom_network.node[4].content_store 	decision_no[4] 	53593
scalar dtelecom_network.node[4].content_store 	decision_ratio[4] 	0
scalar dtelecom_network.node[5].core_layer 	interests[5] 	21889
scalar dtelecom_network.node[5].core_layer 	repo_load[5] 	21889
scalar dtelecom_network.node[5].core_layer 	data[5] 	0
scalar dtelecom_network.node[5].content_store 	p_hit[5] 	0
scalar dtelecom_network.node[5].content_store 	hits[5] 	0
scalar dtelecom_network.node[5].content_store 	misses[5] 	21889
scalar dtelecom_network.node[5].content_store 	decision_yes[5] 	0
scalar dtelecom_network.node[5].content_store 	decision_no[5] 	21889
scalar dtelecom_network.node[5].content_store 	decision_ratio[5] 	0
scalar dtelecom_network.node[6].core_layer 	interests[6] 	0
scalar dtelecom_network.node[6].core_layer 	data[6] 	0
scalar dtelecom_network.node[6].content_store 	p_hit[6] 	-nan
scalar dtelecom_network.node[6].content_store 	hits[6] 	0
scalar dtelecom_network.node[6].content_store 	misses[6] 	0
scalar dtelecom_network.node[6].content_store 	decision_yes[6] 	0
scalar dtelecom_network.node[6].content_store 	decision_no[6] 	0
scalar dtelecom_network.node[6].content_store 	decision_ratio[6] 	0
scalar dtelecom_network.node[7].core_layer 	interests[7] 	34954
scalar dtelecom_network.node[7].core_layer 	repo_load[7] 	34954
scalar dtelecom_network.node[7].core_layer 	data[7] 	0
scalar dtelecom_network.node[7].content_store 	p_hit[7] 	0
scalar dtelecom_network.node[7].content_store 	hits[7] 	0
scalar dtelecom_network.node[7].content_store 	misses[7] 	34954
scalar dtelecom_network.node[7].content_store 	decision_yes[7] 	0
scalar dtelecom_network.node[7].content_store 	decision_no[7] 	34954
scalar dtelecom_network.node[7].content_store 	decision_ratio[7] 	0
scalar dtelecom_network.node[8].core_layer 	interests[8] 	32275
scalar dtelecom_network.node[8].core_layer 	repo_load[8] 	20955
scalar dtelecom_network.node[8].core_layer 	data[8] 	11311
scalar dtelecom_network.node[8].content_store 	p_hit[8] 	0
scalar dtelecom_network.node[8].content_store 	hits[8] 	0
scalar dtelecom_network.node[8].content_store 	misses[8] 	32275
scalar dtelecom_network.node[8].content_store 	decision_yes[8] 	0
scalar dtelecom_network.node[8].content_store 	decision_no[8] 	32266
scalar dtelecom_network.node[8].content_store 	decision_ratio[8] 	0
scalar dtelecom_network.node[9].core_layer 	interests[9] 	11968
scalar dtelecom_network.node[9].core_layer 	data[9] 	11954
scalar dtelecom_network.node[9].content_store 	p_hit[9] 	0
scalar dtelecom_network.node[9].content_store 	hits[9] 	0
scalar dtelecom_network.node[9].content_store 	misses[9] 	11968
scalar dtelecom_network.node[9].content_store 	decision_yes[9] 	0
scalar dtelecom_network.node[9].content_store 	decision_no[9] 	11954
scalar dtelecom_network.node[9].content_store 	decision_ratio[9] 	0
scalar dtelecom_network.node[10].core_layer 	interests[10] 	0
scalar dtelecom_network.node[10].core_layer 	data[10] 	0
scalar dtelecom_network.node[10].content_store 	p_hit[10] 	-nan
scalar dtelecom_network.node[10].content_store 	hits[10] 	0
scalar dtelecom_network.node[10].content_store 	misses[10] 	0
scalar dtelecom_network.node[10].content_store 	decision_yes[10] 	0
scalar dtelecom_network.node[10].content_store 	decision_no[10] 	0
scalar dtelecom_network.node[10].content_store 	decision_ratio[10] 	0
scalar dtelecom_network.node[11].core_layer 	interests[11] 	0
scalar dtelecom_network.node[11].core_layer 	data[11] 	0
scalar dtelecom_network.node[11].content_store 	p_hit[11] 	-nan
scalar dtelecom_network.node[11].content_store 	hits[11] 	0
scalar dtelecom_network.node[11].content_store 	misses[11] 	0
scalar dtelecom_network.node[11].content_store 	decision_yes[11] 	0
scalar dtelecom_network.node[11].content_store 	decision_no[11] 	0
scalar dtelecom_network.node[11].content_store 	decision_ratio[11] 	0
scalar dtelecom_network.node[12].core_layer 	interests[12] 	25109
scalar dtelecom_network.node[12].core_layer 	repo_load[12] 	25109
scalar dtelecom_network.node[12].core_layer 	data[12] 	0
scalar dtelecom_network.node[12].content_store 	p_hit[12] 	0
scalar dtelecom_network.node[12].content_store 	hits[12] 	0
scalar dtelecom_network.node[12].content_store 	misses[12] 	25109
scalar dtelecom_network.node[12].content_store 	decision_yes[12] 	0
scalar dtelecom_network.node[12].content_store 	decision_no[12] 	25109
scalar dtelecom_network.node[12].content_store 	decision_ratio[12] 	0
scalar dtelecom_network.node[13].core_layer 	interests[13] 	0
scalar dtelecom_network.node[13].core_layer 	data[13] 	0
scalar dtelecom_network.node[13].content_store 	p_hit[13] 	-nan
scalar dtelecom_network.node[13].content_store 	hits[13] 	0
scalar dtelecom_network.node[13].content_store 	misses[13] 	0
scalar dtelecom_network.node[13].content_store 	decision_yes[13] 	0
scalar dtelecom_network.node[13].content_store 	decision_no[13] 	0
scalar dtelecom_network.node[13].content_store 	decision_ratio[13] 	0
scalar dtelecom_network.node[14].core_layer 	interests[14] 	0
scalar dtelecom_network.node[14].core_layer 	data[14] 	0
scalar dtelecom_network.node[14].content_store 	p_hit[14] 	-nan
scalar dtelecom_network.node[14].content_store 	hits[14] 	0
scalar dtelecom_network.node[14].content_store 	misses[14] 	0
scalar dtelecom_network.node[14].content_store 	decision_yes[14] 	0
scalar dtelecom_network.node[14].content_store 	decision_no[14] 	0
scalar dtelecom_network.node[14].content_store 	decision_ratio[14] 	0
scalar dtelecom_network.node[15].core_layer 	interests[15] 	0
scalar dtelecom_network.node[15].core_layer 	data[15] 	0
scalar dtelecom_network.node[15].content_store 	p_hit[15] 	-nan
scalar dtelecom_network.node[15].content_store 	hits[15] 	0
scalar dtelecom_network.node[15].content_store 	misses[15] 	0
scalar dtelecom_network.node[15].content_store 	decision_yes[15] 	0
scalar dtelecom_network.node[15].content_store 	decision_no[15] 	0
scalar dtelecom_network.node[15].content_store 	decision_ratio[15] 	0
scalar dtelecom_network.node[16].core_layer 	interests[16] 	0
scalar dtelecom_network.node[16].core_layer 	data[16] 	0
scalar dtelecom_network.node[16].content_store 	p_hit[16] 	-nan
scalar dtelecom_network.node[16].content_store 	hits[16] 	0
scalar dtelecom_network.node[16].content_store 	misses[16] 	0
scalar dtelecom_network.node[16].content_store 	decision_yes[16] 	0
scalar dtelecom_network.node[16].content_store 	decision_no[16] 	0
scalar dtelecom_network.node[16].content_store 	decision_ratio[16] 	0
scalar dtelecom_network.node[17].core_layer 	interests[17] 	12622
scalar dtelecom_network.node[17].core_layer 	data[17] 	12614
scalar dtelecom_network.node[17].content_store 	p_hit[17] 	0
scalar dtelecom_network.node[17].content_store 	hits[17] 	0
scalar dtelecom_network.node[17].content_store 	misses[17] 	12622
scalar dtelecom_network.node[17].content_store 	decision_yes[17] 	0
scalar dtelecom_network.node[17].content_store 	decision_no[17] 	12614
scalar dtelecom_network.node[17].content_store 	decision_ratio[17] 	0
scalar dtelecom_network.node[18].core_layer 	interests[18] 	0
scalar dtelecom_network.node[18].core_layer 	data[18] 	0
scalar dtelecom_network.node[18].content_store 	p_hit[18] 	-nan
scalar dtelecom_network.node[18].content_store 	hits[18] 	0
scalar dtelecom_network.node[18].content_store 	misses[18] 	0
scalar dtelecom_network.node[18].content_store 	decision_yes[18] 	0
scalar dtelecom_network.node[18].content_store 	decision_no[18] 	0
scalar dtelecom_network.node[18].content_store 	decision_ratio[18] 	0
scalar dtelecom_network.node[19].core_layer 	interests[19] 	0
scalar dtelecom_network.node[19].core_layer 	data[19] 	0
scalar dtelecom_network.node[19].content_store 	p_hit[19] 	-nan
scalar dtelecom_network.node[19].content_store 	hits[19] 	0
scalar dtelecom_network.node[19].content_store 	misses[19] 	0
scalar dtelecom_network.node[19].content_store 	decision_yes[19] 	0
scalar dtelecom_network.node[19].content_store 	decision_no[19] 	0
scalar dtelecom_network.node[19].content_store 	decision_ratio[19] 	0
scalar dtelecom_network.node[20].core_layer 	interests[20] 	0
scalar dtelecom_network.node[20].core_layer 	data[20] 	0
scalar dtelecom_network.node[20].content_store 	p_hit[20] 	-nan
scalar dtelecom_network.node[20].content_store 	hits[20] 	0
scalar dtelecom_network.node[20].content_store 	misses[20] 	0
scalar dtelecom_network.node[20].content_store 	decision_yes[20] 	0
scalar dtelecom_network.node[20].content_store 	decision_no[20] 	0
scalar dtelecom_network.node[20].content_store 	decision_ratio[20] 	0
scalar dtelecom_network.node[21].core_layer 	interests[21] 	0
scalar dtelecom_network.node[21].core_layer 	data[21] 	0
scalar dtelecom_network.node[21].content_store 	p_hit[21] 	-nan
scalar dtelecom_network.node[21].content_store 	hits[21] 	0
scalar dtelecom_network.node[21].content_store 	misses[21] 	0
scalar dtelecom_network.node[21].content_store 	decision_yes[21] 	0
scalar dtelecom_network.node[21].content_store 	decision_no[21] 	0
scalar dtelecom_network.node[21].content_store 	decision_ratio[21] 	0
scalar dtelecom_network.node[22].core_layer 	interests[22] 	31373
scalar dtelecom_network.node[22].core_layer 	repo_load[22] 	19793
scalar dtelecom_network.node[22].core_layer 	data[22] 	11570
scalar dtelecom_network.node[22].content_store 	p_hit[22] 	0
scalar dtelecom_network.node[22].content_store 	hits[22] 	0
scalar dtelecom_network.node[22].content_store 	misses[22] 	31373
scalar dtelecom_network.node[22].content_store 	decision_yes[22] 	0
scalar dtelecom_network.node[22].content_store 	decision_no[22] 	31363
scalar dtelecom_network.node[22].content_store 	decision_ratio[22] 	0
scalar dtelecom_network.node[23].core_layer 	interests[23] 	44232
scalar dtelecom_network.node[23].core_layer 	repo_load[23] 	19443
scalar dtelecom_network.node[23].core_layer 	data[23] 	24763
scalar dtelecom_network.node[23].content_store 	p_hit[23] 	0
scalar dtelecom_network.node[23].content_store 	hits[23] 	0
scalar dtelecom_network.node[23].content_store 	misses[23] 	44232
scalar dtelecom_network.node[23].content_store 	decision_yes[23] 	0
scalar dtelecom_network.node[23].content_store 	decision_no[23] 	44206
scalar dtelecom_network.node[23].content_store 	decision_ratio[23] 	0
scalar dtelecom_network.node[24].core_layer 	interests[24] 	24021
scalar dtelecom_network.node[24].core_layer 	repo_load[24] 	24021
scalar dtelecom_network.node[24].core_layer 	data[24] 	0
scalar dtelecom_network.node[24].content_store 	p_hit[24] 	0
scalar dtelecom_network.node[24].content_store 	hits[24] 	0
scalar dtelecom_network.node[24].content_store 	misses[24] 	24021
scalar dtelecom_network.node[24].content_store 	decision_yes[24] 	0
scalar dtelecom_network.node[24].content_store 	decision_no[24] 	24021
scalar dtelecom_network.node[24].content_store 	decision_ratio[24] 	0
scalar dtelecom_network.node[25].core_layer 	interests[25] 	0
scalar dtelecom_network.node[25].core_layer 	data[25] 	0
scalar dtelecom_network.node[25].content_store 	p_hit[25] 	-nan
scalar dtelecom_network.node[25].content_store 	hits[25] 	0
scalar dtelecom_network.node[25].content_store 	misses[25] 	0
scalar dtelecom_network.node[25].content_store 	decision_yes[25] 	0
scalar dtelecom_network.node[25].content_store 	decision_no[25] 	0
scalar dtelecom_network.node[25].content_store 	decision_ratio[25] 	0
scalar dtelecom_network.node[26].core_layer 	interests[26] 	626
scalar dtelecom_network.node[26].core_layer 	data[26] 	626
scalar dtelecom_network.node[26].content_store 	p_hit[26] 	0
scalar dtelecom_network.node[26].content_store 	hits[26] 	0
scalar dtelecom_network.node[26].content_store 	misses[26] 	626
scalar dtelecom_network.node[26].content_store 	decision_yes[26] 	0
scalar dtelecom_network.node[26].content_store 	decision_no[26] 	626
scalar dtelecom_network.node[26].content_store 	decision_ratio[26] 	0
scalar dtelecom_network.node[27].core_layer 	interests[27] 	0
scalar dtelecom_network.node[27].core_layer 	data[27] 	0
scalar dtelecom_network.node[27].content_store 	p_hit[27] 	-nan
scalar dtelecom_network.node[27].content_store 	hits[27] 	0
scalar dtelecom_network.node[27].content_store 	misses[27] 	0
scalar dtelecom_network.node[27].content_store 	decision_yes[27] 	0
scalar dtelecom_network.node[27].content_store 	decision_no[27] 	0
scalar dtelecom_network.node[27].content_store 	decision_ratio[27] 	0
scalar dtelecom_network.node[28].core_layer 	interests[28] 	11915
scalar dtelecom_network.node[28].core_layer 	data[28] 	11905
scalar dtelecom_network.node[28].content_store 	p_hit[28] 	0
scalar dtelecom_network.node[28].content_store 	hits[28] 	0
scalar dtelecom_network.node[28].content_store 	misses[28] 	11915
scalar dtelecom_network.node[28].content_store 	decision_yes[28] 	0
scalar dtelecom_network.node[28].content_store 	decision_no[28] 	11905
scalar dtelecom_network.node[28].content_store 	decision_ratio[28] 	0
scalar dtelecom_network.node[29].core_layer 	interests[29] 	0
scalar dtelecom_network.node[29].core_layer 	data[29] 	0
scalar dtelecom_network.node[29].content_store 	p_hit[29] 	-nan
scalar dtelecom_network.node[29].content_store 	hits[29] 	0
scalar dtelecom_network.node[29].content_store 	misses[29] 	0
scalar dtelecom_network.node[29].content_store 	decision_yes[29] 	0
scalar dtelecom_network.node[29].content_store 	decision_no[29] 	0
scalar dtelecom_network.node[29].content_store 	decision_ratio[29] 	0
scalar dtelecom_network.node[30].core_layer 	interests[30] 	12193
scalar dtelecom_network.node[30].core_layer 	data[30] 	12186
scalar dtelecom_network.node[30].content_store 	p_hit[30] 	0
scalar dtelecom_network.node[30].content_store 	hits[30] 	0
scalar dtelecom_network.node[30].content_store 	misses[30] 	12193
scalar dtelecom_network.node[30].content_store 	decision_yes[30] 	0
scalar dtelecom_network.node[30].content_store 	decision_no[30] 	12186
scalar dtelecom_network.node[30].content_store 	decision_ratio[30] 	0
scalar dtelecom_network.node[31].core_layer 	interests[31] 	11842
scalar dtelecom_network.node[31].core_layer 	data[31] 	11830
scalar dtelecom_network.node[31].content_store 	p_hit[31] 	0
scalar dtelecom_network.node[31].content_store 	hits[31] 	0
scalar dtelecom_network.node[31].content_store 	misses[31] 	11842
scalar dtelecom_network.node[31].content_store 	decision_yes[31] 	0
scalar dtelecom_network.node[31].content_store 	decision_no[31] 	11830
scalar dtelecom_network.node[31].content_store 	decision_ratio[31] 	0
scalar dtelecom_network.node[32].core_layer 	interests[32] 	46093
scalar dtelecom_network.node[32].core_layer 	repo_load[32] 	35316
scalar dtelecom_network.node[32].core_layer 	data[32] 	10770
scalar dtelecom_network.node[32].content_store 	p_hit[32] 	0
scalar dtelecom_network.node[32].content_store 	hits[32] 	0
scalar dtelecom_network.node[32].content_store 	misses[32] 	46093
scalar dtelecom_network.node[32].content_store 	decision_yes[32] 	0
scalar dtelecom_network.node[32].content_store 	decision_no[32] 	46086
scalar dtelecom_network.node[32].content_store 	decision_ratio[32] 	0
scalar dtelecom_network.node[33].core_layer 	interests[33] 	12020
scalar dtelecom_network.node[33].core_layer 	data[33] 	12012
scalar dtelecom_network.node[33].content_store 	p_hit[33] 	0
scalar dtelecom_network.node[33].content_store 	hits[33] 	0
scalar dtelecom_network.node[33].content_store 	misses[33] 	12020
scalar dtelecom_network.node[33].content_store 	decision_yes[33] 	0
scalar dtelecom_network.node[33].content_store 	decision_no[33] 	12012
scalar dtelecom_network.node[33].content_store 	decision_ratio[33] 	0
scalar dtelecom_network.node[34].core_layer 	interests[34] 	19810
scalar dtelecom_network.node[34].core_layer 	repo_load[34] 	19810
scalar dtelecom_network.node[34].core_layer 	data[34] 	0
scalar dtelecom_network.node[34].content_store 	p_hit[34] 	0
scalar dtelecom_network.node[34].content_store 	hits[34] 	0
scalar dtelecom_network.node[34].content_store 	misses[34] 	19810
scalar dtelecom_network.node[34].content_store 	decision_yes[34] 	0
scalar dtelecom_network.node[34].content_store 	decision_no[34] 	19810
scalar dtelecom_network.node[34].content_store 	decision_ratio[34] 	0
scalar dtelecom_network.node[35].core_layer 	interests[35] 	0
scalar dtelecom_network.node[35].core_layer 	data[35] 	0
scalar dtelecom_network.node[35].content_store 	p_hit[35] 	-nan
scalar dtelecom_network.node[35].content_store 	hits[35] 	0
scalar dtelecom_network.node[35].content_store 	misses[35] 	0
scalar dtelecom_network.node[35].content_store 	decision_yes[35] 	0
scalar dtelecom_network.node[35].content_store 	decision_no[35] 	0
scalar dtelecom_network.node[35].content_store 	decision_ratio[35] 	0
scalar dtelecom_network.node[36].core_layer 	interests[36] 	11989
scalar dtelecom_network.node[36].core_layer 	data[36] 	11983
scalar dtelecom_network.node[36].content_store 	p_hit[36] 	0
scalar dtelecom_network.node[36].content_store 	hits[36] 	0
scalar dtelecom_network.node[36].content_store 	misses[36] 	11989
scalar dtelecom_network.node[36].content_store 	decision_yes[36] 	0
scalar dtelecom_network.node[36].content_store 	decision_no[36] 	11983
scalar dtelecom_network.node[36].content_store 	decision_ratio[36] 	0
scalar dtelecom_network.node[37].core_layer 	interests[37] 	12115
scalar dtelecom_network.node[37].core_layer 	data[37] 	12099
scalar dtelecom_network.node[37].content_store 	p_hit[37] 	0
scalar dtelecom_network.node[37].content_store 	hits[37] 	0
scalar dtelecom_network.node[37].content_store 	misses[37] 	12115
scalar dtelecom_network.node[37].content_store 	decision_yes[37] 	0
scalar dtelecom_network.node[37].content_store 	decision_no[37] 	12099
scalar dtelecom_network.node[37].content_store 	decision_ratio[37] 	0
scalar dtelecom_network.node[38].core_layer 	interests[38] 	0
scalar dtelecom_network.node[38].core_layer 	data[38] 	0
scalar dtelecom_network.node[38].content_store 	p_hit[38] 	-nan
scalar dtelecom_network.node[38].content_store 	hits[38] 	0
scalar dtelecom_network.node[38].content_store 	misses[38] 	0
scalar dtelecom_network.node[38].content_store 	decision_yes[38] 	0
scalar dtelecom_network.node[38].content_store 	decision_no[38] 	0
scalar dtelecom_network.node[38].content_store 	decision_ratio[38] 	0
scalar dtelecom_network.node[39].core_layer 	interests[39] 	0
scalar dtelecom_network.node[39].core_layer 	data[39] 	0
scalar dtelecom_network.node[39].content_store 	p_hit[39] 	-nan
scalar dtelecom_network.node[39].content_store 	hits[39] 	0
scalar dtelecom_network.node[39].content_store 	misses[39] 	0
scalar dtelecom_network.node[39].content_store 	decision_yes[39] 	0
scalar dtelecom_network.node[39].content_store 	decision_no[39] 	0
scalar dtelecom_network.node[39].content_store 	decision_ratio[39] 	0
scalar dtelecom_network.node[40].core_layer 	interests[40] 	12725
scalar dtelecom_network.node[40].core_layer 	data[40] 	12717
scalar dtelecom_network.node[40].content_store 	p_hit[40] 	0
scalar dtelecom_network.node[40].content_store 	hits[40] 	0
scalar dtelecom_network.node[40].content_store 	misses[40] 	12725
scalar dtelecom_network.node[40].content_store 	decision_yes[40] 	0
scalar dtelecom_network.node[40].content_store 	decision_no[40] 	12717
scalar dtelecom_network.node[40].content_store 	decision_ratio[40] 	0
scalar dtelecom_network.node[41].core_layer 	interests[41] 	0
scalar dtelecom_network.node[41].core_layer 	data[41] 	0
scalar dtelecom_network.node[41].content_store 	p_hit[41] 	-nan
scalar dtelecom_network.node[41].content_store 	hits[41] 	0
scalar dtelecom_network.node[41].content_store 	misses[41] 	0
scalar dtelecom_network.node[41].content_store 	decision_yes[41] 	0
scalar dtelecom_network.node[41].content_store 	decision_no[41] 	0
scalar dtelecom_network.node[41].content_store 	decision_ratio[41] 	0
scalar dtelecom_network.node[42].core_layer 	interests[42] 	11874
scalar dtelecom_network.node[42].core_layer 	data[42] 	11861
scalar dtelecom_network.node[42].content_store 	p_hit[42] 	0
scalar dtelecom_network.node[42].content_store 	hits[42] 	0
scalar dtelecom_network.node[42].content_store 	misses[42] 	11874
scalar dtelecom_network.node[42].content_store 	decision_yes[42] 	0
scalar dtelecom_network.node[42].content_store 	decision_no[42] 	11861
scalar dtelecom_network.node[42].content_store 	decision_ratio[42] 	0
scalar dtelecom_network.node[43].core_layer 	interests[43] 	20695
scalar dtelecom_network.node[43].core_layer 	repo_load[43] 	20695
scalar dtelecom_network.node[43].core_layer 	data[43] 	0
scalar dtelecom_network.node[43].content_store 	p_hit[43] 	0
scalar dtelecom_network.node[43].content_store 	hits[43] 	0
scalar dtelecom_network.node[43].content_store 	misses[43] 	20695
scalar dtelecom_network.node[43].content_store 	decision_yes[43] 	0
scalar dtelecom_network.node[43].content_store 	decision_no[43] 	20695
scalar dtelecom_network.node[43].content_store 	decision_ratio[43] 	0
scalar dtelecom_network.node[44].core_layer 	interests[44] 	0
scalar dtelecom_network.node[44].core_layer 	data[44] 	0
scalar dtelecom_network.node[44].content_store 	p_hit[44] 	-nan
scalar dtelecom_network.node[44].content_store 	hits[44] 	0
scalar dtelecom_network.node[44].content_store 	misses[44] 	0
scalar dtelecom_network.node[44].content_store 	decision_yes[44] 	0
scalar dtelecom_network.node[44].content_store 	decision_no[44] 	0
scalar dtelecom_network.node[44].content_store 	decision_ratio[44] 	0
scalar dtelecom_network.node[45].core_layer 	interests[45] 	30730
scalar dtelecom_network.node[45].core_layer 	repo_load[45] 	19475
scalar dtelecom_network.node[45].core_layer 	data[45] 	11249
scalar dtelecom_network.node[45].content_store 	p_hit[45] 	0
scalar dtelecom_network.node[45].content_store 	hits[45] 	0
scalar dtelecom_network.node[45].content_store 	misses[45] 	30730
scalar dtelecom_network.node[45].content_store 	decision_yes[45] 	0
scalar dtelecom_network.node[45].content_store 	decision_no[45] 	30724
scalar dtelecom_network.node[45].content_store 	decision_ratio[45] 	0
scalar dtelecom_network.node[46].core_layer 	interests[46] 	12030
scalar dtelecom_network.node[46].core_layer 	data[46] 	12018
scalar dtelecom_network.node[46].content_store 	p_hit[46] 	0
scalar dtelecom_network.node[46].content_store 	hits[46] 	0
scalar dtelecom_network.node[46].content_store 	misses[46] 	12030
scalar dtelecom_network.node[46].content_store 	decision_yes[46] 	0
scalar dtelecom_network.node[46].content_store 	decision_no[46] 	12018
scalar dtelecom_network.node[46].content_store 	decision_ratio[46] 	0
scalar dtelecom_network.node[47].core_layer 	interests[47] 	0
scalar dtelecom_network.node[47].core_layer 	data[47] 	0
scalar dtelecom_network.node[47].content_store 	p_hit[47] 	-nan
scalar dtelecom_network.node[47].content_store 	hits[47] 	0
scalar dtelecom_network.node[47].content_store 	misses[47] 	0
scalar dtelecom_network.node[47].content_store 	decision_yes[47] 	0
scalar dtelecom_network.node[47].content_store 	decision_no[47] 	0
scalar dtelecom_network.node[47].content_store 	decision_ratio[47] 	0
scalar dtelecom_network.node[48].core_layer 	interests[48] 	12174
scalar dtelecom_network.node[48].core_layer 	data[48] 	12163
scalar dtelecom_network.node[48].content_store 	p_hit[48] 	0
scalar dtelecom_network.node[48].content_store 	hits[48] 	0
scalar dtelecom_network.node[48].content_store 	misses[48] 	12174
scalar dtelecom_network.node[48].content_store 	decision_yes[48] 	0
scalar dtelecom_network.node[48].content_store 	decision_no[48] 	12163
scalar dtelecom_network.node[48].content_store 	decision_ratio[48] 	0
scalar dtelecom_network.node[49].core_layer 	interests[49] 	12001
scalar dtelecom_network.node[49].core_layer 	data[49] 	11992
scalar dtelecom_network.node[49].content_store 	p_hit[49] 	0
scalar dtelecom_network.node[49].content_store 	hits[49] 	0
scalar dtelecom_network.node[49].content_store 	misses[49] 	12001
scalar dtelecom_network.node[49].content_store 	decision_yes[49] 	0
scalar dtelecom_network.node[49].content_store 	decision_no[49] 	11992
scalar dtelecom_network.node[49].content_store 	decision_ratio[49] 	0
scalar dtelecom_network.node[50].core_layer 	interests[50] 	12062
scalar dtelecom_network.node[50].core_layer 	data[50] 	12056
scalar dtelecom_network.node[50].content_store 	p_hit[50] 	0
scalar dtelecom_network.node[50].content_store 	hits[50] 	0
scalar dtelecom_network.node[50].content_store 	misses[50] 	12062
scalar dtelecom_network.node[50].content_store 	decision_yes[50] 	0
scalar dtelecom_network.node[50].content_store 	decision_no[50] 	12056
scalar dtelecom_network.node[50].content_store 	decision_ratio[50] 	0
scalar dtelecom_network.node[51].core_layer 	interests[51] 	32293
scalar dtelecom_network.node[51].core_layer 	repo_load[51] 	20825
scalar dtelecom_network.node[51].core_layer 	data[51] 	11456
scalar dtelecom_network.node[51].content_store 	p_hit[51] 	0
scalar dtelecom_network.node[51].content_store 	hits[51] 	0
scalar dtelecom_network.node[51].content_store 	misses[51] 	32293
scalar dtelecom_network.node[51].content_store 	decision_yes[51] 	0
scalar dtelecom_network.node[51].content_store 	decision_no[51] 	32281
scalar dtelecom_network.node[51].content_store 	decision_ratio[51] 	0
scalar dtelecom_network.node[52].core_layer 	interests[52] 	0
scalar dtelecom_network.node[52].core_layer 	data[52] 	0
scalar dtelecom_network.node[52].content_store 	p_hit[52] 	-nan
scalar dtelecom_network.node[52].content_store 	hits[52] 	0
scalar dtelecom_network.node[52].content_store 	misses[52] 	0
scalar dtelecom_network.node[52].content_store 	decision_yes[52] 	0
scalar dtelecom_network.node[52].content_store 	decision_no[52] 	0
scalar dtelecom_network.node[52].content_store 	decision_ratio[52] 	0
scalar dtelecom_network.node[53].core_layer 	interests[53] 	12011
scalar dtelecom_network.node[53].core_layer 	data[53] 	11998
scalar dtelecom_network.node[53].content_store 	p_hit[53] 	0
scalar dtelecom_network.node[53].content_store 	hits[53] 	0
scalar dtelecom_network.node[53].content_store 	misses[53] 	12011
scalar dtelecom_network.node[53].content_store 	decision_yes[53] 	0
scalar dtelecom_network.node[53].content_store 	decision_no[53] 	11998
scalar dtelecom_network.node[53].content_store 	decision_ratio[53] 	0
scalar dtelecom_network.node[54].core_layer 	interests[54] 	12150
scalar dtelecom_network.node[54].core_layer 	data[54] 	12138
scalar dtelecom_network.node[54].content_store 	p_hit[54] 	0
scalar dtelecom_network.node[54].content_store 	hits[54] 	0
scalar dtelecom_network.node[54].content_store 	misses[54] 	12150
scalar dtelecom_network.node[54].content_store 	decision_yes[54] 	0
scalar dtelecom_network.node[54].content_store 	decision_no[54] 	12138
scalar dtelecom_network.node[54].content_store 	decision_ratio[54] 	0
scalar dtelecom_network.node[55].core_layer 	interests[55] 	12129
scalar dtelecom_network.node[55].core_layer 	data[55] 	12118
scalar dtelecom_network.node[55].content_store 	p_hit[55] 	0
scalar dtelecom_network.node[55].content_store 	hits[55] 	0
scalar dtelecom_network.node[55].content_store 	misses[55] 	12129
scalar dtelecom_network.node[55].content_store 	decision_yes[55] 	0
scalar dtelecom_network.node[55].content_store 	decision_no[55] 	12118
scalar dtelecom_network.node[55].content_store 	decision_ratio[55] 	0
scalar dtelecom_network.node[56].core_layer 	interests[56] 	11933
scalar dtelecom_network.node[56].core_layer 	data[56] 	11922
scalar dtelecom_network.node[56].content_store 	p_hit[56] 	0
scalar dtelecom_network.node[56].content_store 	hits[56] 	0
scalar dtelecom_network.node[56].content_store 	misses[56] 	11933
scalar dtelecom_network.node[56].content_store 	decision_yes[56] 	0
scalar dtelecom_network.node[56].content_store 	decision_no[56] 	11922
scalar dtelecom_network.node[56].content_store 	decision_ratio[56] 	0
scalar dtelecom_network.node[57].core_layer 	interests[57] 	12024
scalar dtelecom_network.node[57].core_layer 	data[57] 	12019
scalar dtelecom_network.node[57].content_store 	p_hit[57] 	0
scalar dtelecom_network.node[57].content_store 	hits[57] 	0
scalar dtelecom_network.node[57].content_store 	misses[57] 	12024
scalar dtelecom_network.node[57].content_store 	decision_yes[57] 	0
scalar dtelecom_network.node[57].content_store 	decision_no[57] 	12019
scalar dtelecom_network.node[57].content_store 	decision_ratio[57] 	0
scalar dtelecom_network.node[58].core_layer 	interests[58] 	12007
scalar dtelecom_network.node[58].core_layer 	data[58] 	11996
scalar dtelecom_network.node[58].content_store 	p_hit[58] 	0
scalar dtelecom_network.node[58].content_store 	hits[58] 	0
scalar dtelecom_network.node[58].content_store 	misses[58] 	12007
scalar dtelecom_network.node[58].content_store 	decision_yes[58] 	0
scalar dtelecom_network.node[58].content_store 	decision_no[58] 	11996
scalar dtelecom_network.node[58].content_store 	decision_ratio[58] 	0
scalar dtelecom_network.node[59].core_layer 	interests[59] 	12020
scalar dtelecom_network.node[59].core_layer 	data[59] 	11958
scalar dtelecom_network.node[59].content_store 	p_hit[59] 	0
scalar dtelecom_network.node[59].content_store 	hits[59] 	0
scalar dtelecom_network.node[59].content_store 	misses[59] 	12020
scalar dtelecom_network.node[59].content_store 	decision_yes[59] 	0
scalar dtelecom_network.node[59].content_store 	decision_no[59] 	11958
scalar dtelecom_network.node[59].content_store 	decision_ratio[59] 	0
scalar dtelecom_network.node[60].core_layer 	interests[60] 	16959
scalar dtelecom_network.node[60].core_layer 	repo_load[60] 	16959
scalar dtelecom_network.node[60].core_layer 	data[60] 	0
scalar dtelecom_network.node[60].content_store 	p_hit[60] 	0
scalar dtelecom_network.node[60].content_store 	hits[60] 	0
scalar dtelecom_network.node[60].content_store 	misses[60] 	16959
scalar dtelecom_network.node[60].content_store 	decision_yes[60] 	0
scalar dtelecom_network.node[60].content_store 	decision_no[60] 	16959
scalar dtelecom_network.node[60].content_store 	decision_ratio[60] 	0
scalar dtelecom_network.node[61].core_layer 	interests[61] 	0
scalar dtelecom_network.node[61].core_layer 	data[61] 	0
scalar dtelecom_network.node[61].content_store 	p_hit[61] 	-nan
scalar dtelecom_network.node[61].content_store 	hits[61] 	0
scalar dtelecom_network.node[61].content_store 	misses[61] 	0
scalar dtelecom_network.node[61].content_store 	decision_yes[61] 	0
scalar dtelecom_network.node[61].content_store 	decision_no[61] 	0
scalar dtelecom_network.node[61].content_store 	decision_ratio[61] 	0
scalar dtelecom_network.node[62].core_layer 	interests[62] 	11962
scalar dtelecom_network.node[62].core_layer 	data[62] 	11911
scalar dtelecom_network.node[62].content_store 	p_hit[62] 	0
scalar dtelecom_network.node[62].content_store 	hits[62] 	0
scalar dtelecom_network.node[62].content_store 	misses[62] 	11962
scalar dtelecom_network.node[62].content_store 	decision_yes[62] 	0
scalar dtelecom_network.node[62].content_store 	decision_no[62] 	11911
scalar dtelecom_network.node[62].content_store 	decision_ratio[62] 	0
scalar dtelecom_network.node[63].core_layer 	interests[63] 	0
scalar dtelecom_network.node[63].core_layer 	data[63] 	0
scalar dtelecom_network.node[63].content_store 	p_hit[63] 	-nan
scalar dtelecom_network.node[63].content_store 	hits[63] 	0
scalar dtelecom_network.node[63].content_store 	misses[63] 	0
scalar dtelecom_network.node[63].content_store 	decision_yes[63] 	0
scalar dtelecom_network.node[63].content_store 	decision_no[63] 	0
scalar dtelecom_network.node[63].content_store 	decision_ratio[63] 	0
scalar dtelecom_network.node[64].core_layer 	interests[64] 	21109
scalar dtelecom_network.node[64].core_layer 	repo_load[64] 	21109
scalar dtelecom_network.node[64].core_layer 	data[64] 	0
scalar dtelecom_network.node[64].content_store 	p_hit[64] 	0
scalar dtelecom_network.node[64].content_store 	hits[64] 	0
scalar dtelecom_network.node[64].content_store 	misses[64] 	21109
scalar dtelecom_network.node[64].content_store 	decision_yes[64] 	0
scalar dtelecom_network.node[64].content_store 	decision_no[64] 	21109
scalar dtelecom_network.node[64].content_store 	decision_ratio[64] 	0
scalar dtelecom_network.node[65].core_layer 	interests[65] 	0
scalar dtelecom_network.node[65].core_layer 	data[65] 	0
scalar dtelecom_network.node[65].content_store 	p_hit[65] 	-nan
scalar dtelecom_network.node[65].content_store 	hits[65] 	0
scalar dtelecom_network.node[65].content_store 	misses[65] 	0
scalar dtelecom_network.node[65].content_store 	decision_yes[65] 	0
scalar dtelecom_network.node[65].content_store 	decision_no[65] 	0
scalar dtelecom_network.node[65].content_store 	decision_ratio[65] 	0
scalar dtelecom_network.node[66].core_layer 	interests[66] 	11952
scalar dtelecom_network.node[66].core_layer 	data[66] 	11825
scalar dtelecom_network.node[66].content_store 	p_hit[66] 	0
scalar dtelecom_network.node[66].content_store 	hits[66] 	0
scalar dtelecom_network.node[66].content_store 	misses[66] 	11952
scalar dtelecom_network.node[66].content_store 	decision_yes[66] 	0
scalar dtelecom_network.node[66].content_store 	decision_no[66] 	11825
scalar dtelecom_network.node[66].content_store 	decision_ratio[66] 	0
scalar dtelecom_network.node[67].core_layer 	interests[67] 	11879
scalar dtelecom_network.node[67].core_layer 	data[67] 	11807
scalar dtelecom_network.node[67].content_store 	p_hit[67] 	0
scalar dtelecom_network.node[67].content_store 	hits[67] 	0
scalar dtelecom_network.node[67].content_store 	misses[67] 	11879
scalar dtelecom_network.node[67].content_store 	decision_yes[67] 	0
scalar dtelecom_network.node[67].content_store 	decision_no[67] 	11807
scalar dtelecom_network.node[67].content_store 	decision_ratio[67] 	0
scalar dtelecom_network.client[3] 	hdistance[3] 	2.0455766325332
scalar dtelecom_network.client[3] 	downloads[3] 	11914
scalar dtelecom_network.client[3] 	avg_time[3] 	0.015440250309
scalar dtelecom_network.client[4] 	hdistance[4] 	2
scalar dtelecom_network.client[4] 	downloads[4] 	11880
scalar dtelecom_network.client[4] 	avg_time[4] 	0.059407732044
scalar dtelecom_network.client[8] 	hdistance[8] 	2.6689223057644
scalar dtelecom_network.client[8] 	downloads[8] 	11970
scalar dtelecom_network.client[8] 	avg_time[8] 	0.018543773826
scalar dtelecom_network.client[9] 	hdistance[9] 	2.7240254308181
scalar dtelecom_network.client[9] 	downloads[9] 	11954
scalar dtelecom_network.client[9] 	avg_time[9] 	0.019355998592
scalar dtelecom_network.client[17] 	hdistance[17] 	2.7310813048518
scalar dtelecom_network.client[17] 	downloads[17] 	12078
scalar dtelecom_network.client[17] 	avg_time[17] 	0.016017114423
scalar dtelecom_network.client[22] 	hdistance[22] 	2.6740698246189
scalar dtelecom_network.client[22] 	downloads[22] 	12202
scalar dtelecom_network.client[22] 	avg_time[22] 	0.018211180077
scalar dtelecom_network.client[23] 	hdistance[23] 	2.4592082330484
scalar dtelecom_network.client[23] 	downloads[23] 	12049
scalar dtelecom_network.client[23] 	avg_time[23] 	0.016362451898
scalar dtelecom_network.client[28] 	hdistance[28] 	2.7304493910122
scalar dtelecom_network.client[28] 	downloads[28] 	11905
scalar dtelecom_network.client[28] 	avg_time[28] 	0.018502466077
scalar dtelecom_network.client[30] 	hdistance[30] 	2.7895125553914
scalar dtelecom_network.client[30] 	downloads[30] 	12186
scalar dtelecom_network.client[30] 	avg_time[30] 	0.01778071032
scalar dtelecom_network.client[31] 	hdistance[31] 	2.7837700760778
scalar dtelecom_network.client[31] 	downloads[31] 	11830
scalar dtelecom_network.client[31] 	avg_time[31] 	0.019430357207
scalar dtelecom_network.client[32] 	hdistance[32] 	2.585880579516
scalar dtelecom_network.client[32] 	downloads[32] 	11941
scalar dtelecom_network.client[32] 	avg_time[32] 	0.015264560217
scalar dtelecom_network.client[33] 	hdistance[33] 	2.6799866799867
scalar dtelecom_network.client[33] 	downloads[33] 	12012
scalar dtelecom_network.client[33] 	avg_time[33] 	0.018430437369
scalar dtelecom_network.client[36] 	hdistance[36] 	2.7775181507135
scalar dtelecom_network.client[36] 	downloads[36] 	11983
scalar dtelecom_network.client[36] 	avg_time[36] 	0.018217708824
scalar dtelecom_network.client[37] 	hdistance[37] 	2.7283246549302
scalar dtelecom_network.client[37] 	downloads[37] 	12099
scalar dtelecom_network.client[37] 	avg_time[37] 	0.017297966149
scalar dtelecom_network.client[40] 	hdistance[40] 	2.6759573236291
scalar dtelecom_network.client[40] 	downloads[40] 	12091
scalar dtelecom_network.client[40] 	avg_time[40] 	0.019299604065
scalar dtelecom_network.client[42] 	hdistance[42] 	2.7845881460248
scalar dtelecom_network.client[42] 	downloads[42] 	11861
scalar dtelecom_network.client[42] 	avg_time[42] 	0.019025888656
scalar dtelecom_network.client[45] 	hdistance[45] 	2.587803023904
scalar dtelecom_network.client[45] 	downloads[45] 	11839
scalar dtelecom_network.client[45] 	avg_time[45] 	0.017713878748
scalar dtelecom_network.client[46] 	hdistance[46] 	2.7402229988351
scalar dtelecom_network.client[46] 	downloads[46] 	12018
scalar dtelecom_network.client[46] 	avg_time[46] 	0.02117523875
scalar dtelecom_network.client[48] 	hdistance[48] 	2.7322206692428
scalar dtelecom_network.client[48] 	downloads[48] 	12163
scalar dtelecom_network.client[48] 	avg_time[48] 	0.018757433504
scalar dtelecom_network.client[49] 	hdistance[49] 	2.7251501000667
scalar dtelecom_network.client[49] 	downloads[49] 	11992
scalar dtelecom_network.client[49] 	avg_time[49] 	0.017661130804
scalar dtelecom_network.client[50] 	hdistance[50] 	2.7877405441274
scalar dtelecom_network.client[50] 	downloads[50] 	12056
scalar dtelecom_network.client[50] 	avg_time[50] 	0.016903838794
scalar dtelecom_network.client[51] 	hdistance[51] 	2.6190436865142
scalar dtelecom_network.client[51] 	downloads[51] 	12109
scalar dtelecom_network.client[51] 	avg_time[51] 	0.017878225214
scalar dtelecom_network.client[53] 	hdistance[53] 	2.7343723953992
scalar dtelecom_network.client[53] 	downloads[53] 	11998
scalar dtelecom_network.client[53] 	avg_time[53] 	0.016591453676
scalar dtelecom_network.client[54] 	hdistance[54] 	2.638985005767
scalar dtelecom_network.client[54] 	downloads[54] 	12138
scalar dtelecom_network.client[54] 	avg_time[54] 	0.01912092117
scalar dtelecom_network.client[55] 	hdistance[55] 	2.7851955768279
scalar dtelecom_network.client[55] 	downloads[55] 	12118
scalar dtelecom_network.client[55] 	avg_time[55] 	0.02283044231
scalar dtelecom_network.client[56] 	hdistance[56] 	2.7309176312699
scalar dtelecom_network.client[56] 	downloads[56] 	11922
scalar dtelecom_network.client[56] 	avg_time[56] 	0.017185690428
scalar dtelecom_network.client[57] 	hdistance[57] 	2.784341459356
scalar dtelecom_network.client[57] 	downloads[57] 	12019
scalar dtelecom_network.client[57] 	avg_time[57] 	0.016265546149
scalar dtelecom_network.client[58] 	hdistance[58] 	2.7250750250083
scalar dtelecom_network.client[58] 	downloads[58] 	11996
scalar dtelecom_network.client[58] 	avg_time[58] 	0.019294745655
scalar dtelecom_network.client[59] 	hdistance[59] 	3.0342866700117
scalar dtelecom_network.client[59] 	downloads[59] 	11958
scalar dtelecom_network.client[59] 	avg_time[59] 	0.080438138448
scalar dtelecom_network.client[62] 	hdistance[62] 	3.4733439677609
scalar dtelecom_network.client[62] 	downloads[62] 	11911
scalar dtelecom_network.client[62] 	avg_time[62] 	0.081391374023
scalar dtelecom_network.client[66] 	hdistance[66] 	2.945200845666
scalar dtelecom_network.client[66] 	downloads[66] 	11825
scalar dtelecom_network.client[66] 	avg_time[66] 	0.119795010165
scalar dtelecom_network.client[67] 	hdistance[67] 	3
scalar dtelecom_network.client[67] 	downloads[67] 	11807
scalar dtelecom_network.client[67] 	avg_time[67] 	0.100528121898
