version 2
run General-591-20160901-14:37:29-8710
attr a 0.9
attr cd ffc
attr configname General
attr cr lru
attr datetime 20160901-14:37:29
attr experiment General
attr fsize 1
attr inifile hw5115/scenario_Y/omnetp.ini
attr iterationvars "$name=tree_4_3, $un=09, $rep=18, $cd=ffc, $cr=lru, $fsize=1, $a=0.9, $sl=nrr, $ttl=1000, $variance=0.05"
attr iterationvars2 "$name=tree_4_3, $un=09, $rep=18, $cd=ffc, $cr=lru, $fsize=1, $a=0.9, $sl=nrr, $ttl=1000, $variance=0.05, $repetition=0"
attr measurement "$name=tree_4_3, $un=09, $rep=18, $cd=ffc, $cr=lru, $fsize=1, $a=0.9, $sl=nrr, $ttl=1000, $variance=0.05"
attr name tree_4_3
attr network networks.${name}_u${un}_r${rep}_network
attr processid 8710
attr rep 18
attr repetition 0
attr replication #0
attr resultdir results
attr runnumber 591
attr seedset 18
attr sl nrr
attr ttl 1000
attr un 09
attr variance 0.05

scalar . 	a 	0.9
scalar . 	fsize 	1
scalar . 	rep 	18
scalar . 	ttl 	1000
scalar . 	un 	09
scalar . 	variance 	0.05
scalar tree_4_3_u09_r18_network.content_distribution 	repo-0 	0
scalar tree_4_3_u09_r18_network.content_distribution 	client-0 	13
scalar tree_4_3_u09_r18_network.content_distribution 	client-1 	14
scalar tree_4_3_u09_r18_network.content_distribution 	client-2 	15
scalar tree_4_3_u09_r18_network.content_distribution 	client-3 	16
scalar tree_4_3_u09_r18_network.content_distribution 	client-4 	17
scalar tree_4_3_u09_r18_network.content_distribution 	client-5 	18
scalar tree_4_3_u09_r18_network.content_distribution 	client-6 	19
scalar tree_4_3_u09_r18_network.content_distribution 	client-7 	20
scalar tree_4_3_u09_r18_network.content_distribution 	client-8 	21
scalar tree_4_3_u09_r18_network.content_distribution 	client-9 	22
scalar tree_4_3_u09_r18_network.content_distribution 	client-10 	23
scalar tree_4_3_u09_r18_network.content_distribution 	client-11 	24
scalar tree_4_3_u09_r18_network.content_distribution 	client-12 	25
scalar tree_4_3_u09_r18_network.content_distribution 	client-13 	26
scalar tree_4_3_u09_r18_network.content_distribution 	client-14 	27
scalar tree_4_3_u09_r18_network.content_distribution 	client-15 	28
scalar tree_4_3_u09_r18_network.content_distribution 	client-16 	29
scalar tree_4_3_u09_r18_network.content_distribution 	client-17 	30
scalar tree_4_3_u09_r18_network.content_distribution 	client-18 	31
scalar tree_4_3_u09_r18_network.content_distribution 	client-19 	32
scalar tree_4_3_u09_r18_network.content_distribution 	client-20 	33
scalar tree_4_3_u09_r18_network.content_distribution 	client-21 	34
scalar tree_4_3_u09_r18_network.content_distribution 	client-22 	35
scalar tree_4_3_u09_r18_network.content_distribution 	client-23 	36
scalar tree_4_3_u09_r18_network.content_distribution 	client-24 	37
scalar tree_4_3_u09_r18_network.content_distribution 	client-25 	38
scalar tree_4_3_u09_r18_network.content_distribution 	client-26 	39
scalar tree_4_3_u09_r18_network.content_distribution 	repo-0_card 	100000
scalar tree_4_3_u09_r18_network.content_distribution 	repo-0_price 	0
scalar tree_4_3_u09_r18_network.statistics 	stabilization_time 	1162.8
scalar tree_4_3_u09_r18_network.statistics 	p_hit 	0.24199876906735
scalar tree_4_3_u09_r18_network.statistics 	interests 	24678.1
scalar tree_4_3_u09_r18_network.statistics 	data 	16578.55
scalar tree_4_3_u09_r18_network.statistics 	hdistance 	2.6061813787359
scalar tree_4_3_u09_r18_network.statistics 	avg_time 	0.004093643723
scalar tree_4_3_u09_r18_network.statistics 	downloads 	323986
scalar tree_4_3_u09_r18_network.statistics 	total_cost 	0
scalar tree_4_3_u09_r18_network.statistics 	total_replicas 	100000
scalar tree_4_3_u09_r18_network.statistics 	inner_hit 	0.44068262208861
scalar tree_4_3_u09_r18_network.node[0].core_layer 	interests[0] 	183438
scalar tree_4_3_u09_r18_network.node[0].core_layer 	repo_load[0] 	181211
scalar tree_4_3_u09_r18_network.node[0].core_layer 	data[0] 	0
scalar tree_4_3_u09_r18_network.node[0].core_layer 	repo_int[0] 	181211
scalar tree_4_3_u09_r18_network.node[0].content_store 	p_hit[0] 	0.012140341695832
scalar tree_4_3_u09_r18_network.node[0].content_store 	hits[0] 	2227
scalar tree_4_3_u09_r18_network.node[0].content_store 	misses[0] 	181211
scalar tree_4_3_u09_r18_network.node[0].content_store 	decision_yes[0] 	775
scalar tree_4_3_u09_r18_network.node[0].content_store 	decision_no[0] 	180436
scalar tree_4_3_u09_r18_network.node[0].content_store 	decision_ratio[0] 	0.0042767823145394
scalar tree_4_3_u09_r18_network.node[1].core_layer 	interests[1] 	138201
scalar tree_4_3_u09_r18_network.node[1].core_layer 	data[1] 	135630
scalar tree_4_3_u09_r18_network.node[1].content_store 	p_hit[1] 	0.018581631102525
scalar tree_4_3_u09_r18_network.node[1].content_store 	hits[1] 	2568
scalar tree_4_3_u09_r18_network.node[1].content_store 	misses[1] 	135633
scalar tree_4_3_u09_r18_network.node[1].content_store 	decision_yes[1] 	659
scalar tree_4_3_u09_r18_network.node[1].content_store 	decision_no[1] 	134971
scalar tree_4_3_u09_r18_network.node[1].content_store 	decision_ratio[1] 	0.0048588070485881
scalar tree_4_3_u09_r18_network.node[2].core_layer 	interests[2] 	49450
scalar tree_4_3_u09_r18_network.node[2].core_layer 	data[2] 	46315
scalar tree_4_3_u09_r18_network.node[2].content_store 	p_hit[2] 	0.063397371081901
scalar tree_4_3_u09_r18_network.node[2].content_store 	hits[2] 	3135
scalar tree_4_3_u09_r18_network.node[2].content_store 	misses[2] 	46315
scalar tree_4_3_u09_r18_network.node[2].content_store 	decision_yes[2] 	358
scalar tree_4_3_u09_r18_network.node[2].content_store 	decision_no[2] 	45957
scalar tree_4_3_u09_r18_network.node[2].content_store 	decision_ratio[2] 	0.007729677210407
scalar tree_4_3_u09_r18_network.node[3].core_layer 	interests[3] 	19158
scalar tree_4_3_u09_r18_network.node[3].core_layer 	data[3] 	16566
scalar tree_4_3_u09_r18_network.node[3].content_store 	p_hit[3] 	0.13529595991231
scalar tree_4_3_u09_r18_network.node[3].content_store 	hits[3] 	2592
scalar tree_4_3_u09_r18_network.node[3].content_store 	misses[3] 	16566
scalar tree_4_3_u09_r18_network.node[3].content_store 	decision_yes[3] 	186
scalar tree_4_3_u09_r18_network.node[3].content_store 	decision_no[3] 	16380
scalar tree_4_3_u09_r18_network.node[3].content_store 	decision_ratio[3] 	0.011227816008693
scalar tree_4_3_u09_r18_network.node[4].core_layer 	interests[4] 	42242
scalar tree_4_3_u09_r18_network.node[4].core_layer 	data[4] 	39625
scalar tree_4_3_u09_r18_network.node[4].content_store 	p_hit[4] 	0.061952559064438
scalar tree_4_3_u09_r18_network.node[4].content_store 	hits[4] 	2617
scalar tree_4_3_u09_r18_network.node[4].content_store 	misses[4] 	39625
scalar tree_4_3_u09_r18_network.node[4].content_store 	decision_yes[4] 	327
scalar tree_4_3_u09_r18_network.node[4].content_store 	decision_no[4] 	39298
scalar tree_4_3_u09_r18_network.node[4].content_store 	decision_ratio[4] 	0.0082523659305994
scalar tree_4_3_u09_r18_network.node[5].core_layer 	interests[5] 	29063
scalar tree_4_3_u09_r18_network.node[5].core_layer 	data[5] 	25657
scalar tree_4_3_u09_r18_network.node[5].content_store 	p_hit[5] 	0.11719368268933
scalar tree_4_3_u09_r18_network.node[5].content_store 	hits[5] 	3406
scalar tree_4_3_u09_r18_network.node[5].content_store 	misses[5] 	25657
scalar tree_4_3_u09_r18_network.node[5].content_store 	decision_yes[5] 	304
scalar tree_4_3_u09_r18_network.node[5].content_store 	decision_no[5] 	25353
scalar tree_4_3_u09_r18_network.node[5].content_store 	decision_ratio[5] 	0.011848618310792
scalar tree_4_3_u09_r18_network.node[6].core_layer 	interests[6] 	13807
scalar tree_4_3_u09_r18_network.node[6].core_layer 	data[6] 	10627
scalar tree_4_3_u09_r18_network.node[6].content_store 	p_hit[6] 	0.23031795466068
scalar tree_4_3_u09_r18_network.node[6].content_store 	hits[6] 	3180
scalar tree_4_3_u09_r18_network.node[6].content_store 	misses[6] 	10627
scalar tree_4_3_u09_r18_network.node[6].content_store 	decision_yes[6] 	322
scalar tree_4_3_u09_r18_network.node[6].content_store 	decision_no[6] 	10305
scalar tree_4_3_u09_r18_network.node[6].content_store 	decision_ratio[6] 	0.030300178789875
scalar tree_4_3_u09_r18_network.node[7].core_layer 	interests[7] 	44164
scalar tree_4_3_u09_r18_network.node[7].core_layer 	data[7] 	40792
scalar tree_4_3_u09_r18_network.node[7].content_store 	p_hit[7] 	0.076351779730097
scalar tree_4_3_u09_r18_network.node[7].content_store 	hits[7] 	3372
scalar tree_4_3_u09_r18_network.node[7].content_store 	misses[7] 	40792
scalar tree_4_3_u09_r18_network.node[7].content_store 	decision_yes[7] 	359
scalar tree_4_3_u09_r18_network.node[7].content_store 	decision_no[7] 	40433
scalar tree_4_3_u09_r18_network.node[7].content_store 	decision_ratio[7] 	0.0088007452441655
scalar tree_4_3_u09_r18_network.node[8].core_layer 	interests[8] 	27459
scalar tree_4_3_u09_r18_network.node[8].core_layer 	data[8] 	24948
scalar tree_4_3_u09_r18_network.node[8].content_store 	p_hit[8] 	0.091445427728614
scalar tree_4_3_u09_r18_network.node[8].content_store 	hits[8] 	2511
scalar tree_4_3_u09_r18_network.node[8].content_store 	misses[8] 	24948
scalar tree_4_3_u09_r18_network.node[8].content_store 	decision_yes[8] 	264
scalar tree_4_3_u09_r18_network.node[8].content_store 	decision_no[8] 	24684
scalar tree_4_3_u09_r18_network.node[8].content_store 	decision_ratio[8] 	0.010582010582011
scalar tree_4_3_u09_r18_network.node[9].core_layer 	interests[9] 	12204
scalar tree_4_3_u09_r18_network.node[9].core_layer 	data[9] 	9257
scalar tree_4_3_u09_r18_network.node[9].content_store 	p_hit[9] 	0.24147820386758
scalar tree_4_3_u09_r18_network.node[9].content_store 	hits[9] 	2947
scalar tree_4_3_u09_r18_network.node[9].content_store 	misses[9] 	9257
scalar tree_4_3_u09_r18_network.node[9].content_store 	decision_yes[9] 	201
scalar tree_4_3_u09_r18_network.node[9].content_store 	decision_no[9] 	9056
scalar tree_4_3_u09_r18_network.node[9].content_store 	decision_ratio[9] 	0.021713298044723
scalar tree_4_3_u09_r18_network.node[10].core_layer 	interests[10] 	43623
scalar tree_4_3_u09_r18_network.node[10].core_layer 	data[10] 	40516
scalar tree_4_3_u09_r18_network.node[10].content_store 	p_hit[10] 	0.071246819338422
scalar tree_4_3_u09_r18_network.node[10].content_store 	hits[10] 	3108
scalar tree_4_3_u09_r18_network.node[10].content_store 	misses[10] 	40515
scalar tree_4_3_u09_r18_network.node[10].content_store 	decision_yes[10] 	361
scalar tree_4_3_u09_r18_network.node[10].content_store 	decision_no[10] 	40155
scalar tree_4_3_u09_r18_network.node[10].content_store 	decision_ratio[10] 	0.0089100602231217
scalar tree_4_3_u09_r18_network.node[11].core_layer 	interests[11] 	20608
scalar tree_4_3_u09_r18_network.node[11].core_layer 	data[11] 	17621
scalar tree_4_3_u09_r18_network.node[11].content_store 	p_hit[11] 	0.14494371118012
scalar tree_4_3_u09_r18_network.node[11].content_store 	hits[11] 	2987
scalar tree_4_3_u09_r18_network.node[11].content_store 	misses[11] 	17621
scalar tree_4_3_u09_r18_network.node[11].content_store 	decision_yes[11] 	220
scalar tree_4_3_u09_r18_network.node[11].content_store 	decision_no[11] 	17401
scalar tree_4_3_u09_r18_network.node[11].content_store 	decision_ratio[11] 	0.0124851030021
scalar tree_4_3_u09_r18_network.node[12].core_layer 	interests[12] 	20000
scalar tree_4_3_u09_r18_network.node[12].core_layer 	data[12] 	17489
scalar tree_4_3_u09_r18_network.node[12].content_store 	p_hit[12] 	0.12555
scalar tree_4_3_u09_r18_network.node[12].content_store 	hits[12] 	2511
scalar tree_4_3_u09_r18_network.node[12].content_store 	misses[12] 	17489
scalar tree_4_3_u09_r18_network.node[12].content_store 	decision_yes[12] 	255
scalar tree_4_3_u09_r18_network.node[12].content_store 	decision_no[12] 	17234
scalar tree_4_3_u09_r18_network.node[12].content_store 	decision_ratio[12] 	0.014580593515924
scalar tree_4_3_u09_r18_network.node[13].core_layer 	interests[13] 	12617
scalar tree_4_3_u09_r18_network.node[13].core_layer 	data[13] 	8943
scalar tree_4_3_u09_r18_network.node[13].content_store 	p_hit[13] 	0.29119442022668
scalar tree_4_3_u09_r18_network.node[13].content_store 	hits[13] 	3674
scalar tree_4_3_u09_r18_network.node[13].content_store 	misses[13] 	8943
scalar tree_4_3_u09_r18_network.node[13].content_store 	decision_yes[13] 	112
scalar tree_4_3_u09_r18_network.node[13].content_store 	decision_no[13] 	8831
scalar tree_4_3_u09_r18_network.node[13].content_store 	decision_ratio[13] 	0.012523761601252
scalar tree_4_3_u09_r18_network.node[14].core_layer 	interests[14] 	13028
scalar tree_4_3_u09_r18_network.node[14].core_layer 	data[14] 	8860
scalar tree_4_3_u09_r18_network.node[14].content_store 	p_hit[14] 	0.31992631255757
scalar tree_4_3_u09_r18_network.node[14].content_store 	hits[14] 	4168
scalar tree_4_3_u09_r18_network.node[14].content_store 	misses[14] 	8860
scalar tree_4_3_u09_r18_network.node[14].content_store 	decision_yes[14] 	115
scalar tree_4_3_u09_r18_network.node[14].content_store 	decision_no[14] 	8745
scalar tree_4_3_u09_r18_network.node[14].content_store 	decision_ratio[14] 	0.012979683972912
scalar tree_4_3_u09_r18_network.node[15].core_layer 	interests[15] 	13051
scalar tree_4_3_u09_r18_network.node[15].core_layer 	data[15] 	8895
scalar tree_4_3_u09_r18_network.node[15].content_store 	p_hit[15] 	0.31844303118535
scalar tree_4_3_u09_r18_network.node[15].content_store 	hits[15] 	4156
scalar tree_4_3_u09_r18_network.node[15].content_store 	misses[15] 	8895
scalar tree_4_3_u09_r18_network.node[15].content_store 	decision_yes[15] 	130
scalar tree_4_3_u09_r18_network.node[15].content_store 	decision_no[15] 	8765
scalar tree_4_3_u09_r18_network.node[15].content_store 	decision_ratio[15] 	0.014614952220349
scalar tree_4_3_u09_r18_network.node[16].core_layer 	interests[16] 	12884
scalar tree_4_3_u09_r18_network.node[16].core_layer 	data[16] 	8835
scalar tree_4_3_u09_r18_network.node[16].content_store 	p_hit[16] 	0.3142657559764
scalar tree_4_3_u09_r18_network.node[16].content_store 	hits[16] 	4049
scalar tree_4_3_u09_r18_network.node[16].content_store 	misses[16] 	8835
scalar tree_4_3_u09_r18_network.node[16].content_store 	decision_yes[16] 	113
scalar tree_4_3_u09_r18_network.node[16].content_store 	decision_no[16] 	8722
scalar tree_4_3_u09_r18_network.node[16].content_store 	decision_ratio[16] 	0.012790039615167
scalar tree_4_3_u09_r18_network.node[17].core_layer 	interests[17] 	12499
scalar tree_4_3_u09_r18_network.node[17].core_layer 	data[17] 	8799
scalar tree_4_3_u09_r18_network.node[17].content_store 	p_hit[17] 	0.29602368189455
scalar tree_4_3_u09_r18_network.node[17].content_store 	hits[17] 	3700
scalar tree_4_3_u09_r18_network.node[17].content_store 	misses[17] 	8799
scalar tree_4_3_u09_r18_network.node[17].content_store 	decision_yes[17] 	94
scalar tree_4_3_u09_r18_network.node[17].content_store 	decision_no[17] 	8705
scalar tree_4_3_u09_r18_network.node[17].content_store 	decision_ratio[17] 	0.010683032162746
scalar tree_4_3_u09_r18_network.node[18].core_layer 	interests[18] 	12905
scalar tree_4_3_u09_r18_network.node[18].core_layer 	data[18] 	8752
scalar tree_4_3_u09_r18_network.node[18].content_store 	p_hit[18] 	0.32189074002325
scalar tree_4_3_u09_r18_network.node[18].content_store 	hits[18] 	4154
scalar tree_4_3_u09_r18_network.node[18].content_store 	misses[18] 	8751
scalar tree_4_3_u09_r18_network.node[18].content_store 	decision_yes[18] 	123
scalar tree_4_3_u09_r18_network.node[18].content_store 	decision_no[18] 	8629
scalar tree_4_3_u09_r18_network.node[18].content_store 	decision_ratio[18] 	0.014053930530165
scalar tree_4_3_u09_r18_network.node[19].core_layer 	interests[19] 	12974
scalar tree_4_3_u09_r18_network.node[19].core_layer 	data[19] 	8886
scalar tree_4_3_u09_r18_network.node[19].content_store 	p_hit[19] 	0.31509172190535
scalar tree_4_3_u09_r18_network.node[19].content_store 	hits[19] 	4088
scalar tree_4_3_u09_r18_network.node[19].content_store 	misses[19] 	8886
scalar tree_4_3_u09_r18_network.node[19].content_store 	decision_yes[19] 	129
scalar tree_4_3_u09_r18_network.node[19].content_store 	decision_no[19] 	8757
scalar tree_4_3_u09_r18_network.node[19].content_store 	decision_ratio[19] 	0.014517218095881
scalar tree_4_3_u09_r18_network.node[20].core_layer 	interests[20] 	12738
scalar tree_4_3_u09_r18_network.node[20].core_layer 	data[20] 	8760
scalar tree_4_3_u09_r18_network.node[20].content_store 	p_hit[20] 	0.31229392369289
scalar tree_4_3_u09_r18_network.node[20].content_store 	hits[20] 	3978
scalar tree_4_3_u09_r18_network.node[20].content_store 	misses[20] 	8760
scalar tree_4_3_u09_r18_network.node[20].content_store 	decision_yes[20] 	121
scalar tree_4_3_u09_r18_network.node[20].content_store 	decision_no[20] 	8639
scalar tree_4_3_u09_r18_network.node[20].content_store 	decision_ratio[20] 	0.013812785388128
scalar tree_4_3_u09_r18_network.node[21].core_layer 	interests[21] 	12299
scalar tree_4_3_u09_r18_network.node[21].core_layer 	data[21] 	8762
scalar tree_4_3_u09_r18_network.node[21].content_store 	p_hit[21] 	0.28758435645174
scalar tree_4_3_u09_r18_network.node[21].content_store 	hits[21] 	3537
scalar tree_4_3_u09_r18_network.node[21].content_store 	misses[21] 	8762
scalar tree_4_3_u09_r18_network.node[21].content_store 	decision_yes[21] 	107
scalar tree_4_3_u09_r18_network.node[21].content_store 	decision_no[21] 	8655
scalar tree_4_3_u09_r18_network.node[21].content_store 	decision_ratio[21] 	0.012211823784524
scalar tree_4_3_u09_r18_network.node[22].core_layer 	interests[22] 	12476
scalar tree_4_3_u09_r18_network.node[22].core_layer 	data[22] 	8653
scalar tree_4_3_u09_r18_network.node[22].content_store 	p_hit[22] 	0.30642834241744
scalar tree_4_3_u09_r18_network.node[22].content_store 	hits[22] 	3823
scalar tree_4_3_u09_r18_network.node[22].content_store 	misses[22] 	8653
scalar tree_4_3_u09_r18_network.node[22].content_store 	decision_yes[22] 	90
scalar tree_4_3_u09_r18_network.node[22].content_store 	decision_no[22] 	8563
scalar tree_4_3_u09_r18_network.node[22].content_store 	decision_ratio[22] 	0.010401016988328
scalar tree_4_3_u09_r18_network.node[23].core_layer 	interests[23] 	12898
scalar tree_4_3_u09_r18_network.node[23].core_layer 	data[23] 	8897
scalar tree_4_3_u09_r18_network.node[23].content_store 	p_hit[23] 	0.31020313226857
scalar tree_4_3_u09_r18_network.node[23].content_store 	hits[23] 	4001
scalar tree_4_3_u09_r18_network.node[23].content_store 	misses[23] 	8897
scalar tree_4_3_u09_r18_network.node[23].content_store 	decision_yes[23] 	114
scalar tree_4_3_u09_r18_network.node[23].content_store 	decision_no[23] 	8783
scalar tree_4_3_u09_r18_network.node[23].content_store 	decision_ratio[23] 	0.012813307856581
scalar tree_4_3_u09_r18_network.node[24].core_layer 	interests[24] 	12913
scalar tree_4_3_u09_r18_network.node[24].core_layer 	data[24] 	8883
scalar tree_4_3_u09_r18_network.node[24].content_store 	p_hit[24] 	0.31208859289089
scalar tree_4_3_u09_r18_network.node[24].content_store 	hits[24] 	4030
scalar tree_4_3_u09_r18_network.node[24].content_store 	misses[24] 	8883
scalar tree_4_3_u09_r18_network.node[24].content_store 	decision_yes[24] 	118
scalar tree_4_3_u09_r18_network.node[24].content_store 	decision_no[24] 	8765
scalar tree_4_3_u09_r18_network.node[24].content_store 	decision_ratio[24] 	0.013283800517843
scalar tree_4_3_u09_r18_network.node[25].core_layer 	interests[25] 	12820
scalar tree_4_3_u09_r18_network.node[25].core_layer 	data[25] 	8927
scalar tree_4_3_u09_r18_network.node[25].content_store 	p_hit[25] 	0.30366614664587
scalar tree_4_3_u09_r18_network.node[25].content_store 	hits[25] 	3893
scalar tree_4_3_u09_r18_network.node[25].content_store 	misses[25] 	8927
scalar tree_4_3_u09_r18_network.node[25].content_store 	decision_yes[25] 	113
scalar tree_4_3_u09_r18_network.node[25].content_store 	decision_no[25] 	8814
scalar tree_4_3_u09_r18_network.node[25].content_store 	decision_ratio[25] 	0.012658227848101
scalar tree_4_3_u09_r18_network.node[26].core_layer 	interests[26] 	12672
scalar tree_4_3_u09_r18_network.node[26].core_layer 	data[26] 	8905
scalar tree_4_3_u09_r18_network.node[26].content_store 	p_hit[26] 	0.29726957070707
scalar tree_4_3_u09_r18_network.node[26].content_store 	hits[26] 	3767
scalar tree_4_3_u09_r18_network.node[26].content_store 	misses[26] 	8905
scalar tree_4_3_u09_r18_network.node[26].content_store 	decision_yes[26] 	129
scalar tree_4_3_u09_r18_network.node[26].content_store 	decision_no[26] 	8776
scalar tree_4_3_u09_r18_network.node[26].content_store 	decision_ratio[26] 	0.014486243683324
scalar tree_4_3_u09_r18_network.node[27].core_layer 	interests[27] 	12753
scalar tree_4_3_u09_r18_network.node[27].core_layer 	data[27] 	8752
scalar tree_4_3_u09_r18_network.node[27].content_store 	p_hit[27] 	0.31373010272093
scalar tree_4_3_u09_r18_network.node[27].content_store 	hits[27] 	4001
scalar tree_4_3_u09_r18_network.node[27].content_store 	misses[27] 	8752
scalar tree_4_3_u09_r18_network.node[27].content_store 	decision_yes[27] 	116
scalar tree_4_3_u09_r18_network.node[27].content_store 	decision_no[27] 	8636
scalar tree_4_3_u09_r18_network.node[27].content_store 	decision_ratio[27] 	0.013254113345521
scalar tree_4_3_u09_r18_network.node[28].core_layer 	interests[28] 	12964
scalar tree_4_3_u09_r18_network.node[28].core_layer 	data[28] 	8878
scalar tree_4_3_u09_r18_network.node[28].content_store 	p_hit[28] 	0.31525763653193
scalar tree_4_3_u09_r18_network.node[28].content_store 	hits[28] 	4087
scalar tree_4_3_u09_r18_network.node[28].content_store 	misses[28] 	8877
scalar tree_4_3_u09_r18_network.node[28].content_store 	decision_yes[28] 	148
scalar tree_4_3_u09_r18_network.node[28].content_store 	decision_no[28] 	8730
scalar tree_4_3_u09_r18_network.node[28].content_store 	decision_ratio[28] 	0.016670421266051
scalar tree_4_3_u09_r18_network.node[29].core_layer 	interests[29] 	12599
scalar tree_4_3_u09_r18_network.node[29].core_layer 	data[29] 	8690
scalar tree_4_3_u09_r18_network.node[29].content_store 	p_hit[29] 	0.31026271926343
scalar tree_4_3_u09_r18_network.node[29].content_store 	hits[29] 	3909
scalar tree_4_3_u09_r18_network.node[29].content_store 	misses[29] 	8690
scalar tree_4_3_u09_r18_network.node[29].content_store 	decision_yes[29] 	113
scalar tree_4_3_u09_r18_network.node[29].content_store 	decision_no[29] 	8577
scalar tree_4_3_u09_r18_network.node[29].content_store 	decision_ratio[29] 	0.013003452243959
scalar tree_4_3_u09_r18_network.node[30].core_layer 	interests[30] 	12381
scalar tree_4_3_u09_r18_network.node[30].core_layer 	data[30] 	8765
scalar tree_4_3_u09_r18_network.node[30].content_store 	p_hit[30] 	0.29206041515225
scalar tree_4_3_u09_r18_network.node[30].content_store 	hits[30] 	3616
scalar tree_4_3_u09_r18_network.node[30].content_store 	misses[30] 	8765
scalar tree_4_3_u09_r18_network.node[30].content_store 	decision_yes[30] 	104
scalar tree_4_3_u09_r18_network.node[30].content_store 	decision_no[30] 	8661
scalar tree_4_3_u09_r18_network.node[30].content_store 	decision_ratio[30] 	0.01186537364518
scalar tree_4_3_u09_r18_network.node[31].core_layer 	interests[31] 	12478
scalar tree_4_3_u09_r18_network.node[31].core_layer 	data[31] 	8686
scalar tree_4_3_u09_r18_network.node[31].content_store 	p_hit[31] 	0.3038948549447
scalar tree_4_3_u09_r18_network.node[31].content_store 	hits[31] 	3792
scalar tree_4_3_u09_r18_network.node[31].content_store 	misses[31] 	8686
scalar tree_4_3_u09_r18_network.node[31].content_store 	decision_yes[31] 	99
scalar tree_4_3_u09_r18_network.node[31].content_store 	decision_no[31] 	8587
scalar tree_4_3_u09_r18_network.node[31].content_store 	decision_ratio[31] 	0.011397651393046
scalar tree_4_3_u09_r18_network.node[32].core_layer 	interests[32] 	12942
scalar tree_4_3_u09_r18_network.node[32].core_layer 	data[32] 	8817
scalar tree_4_3_u09_r18_network.node[32].content_store 	p_hit[32] 	0.31872971719981
scalar tree_4_3_u09_r18_network.node[32].content_store 	hits[32] 	4125
scalar tree_4_3_u09_r18_network.node[32].content_store 	misses[32] 	8817
scalar tree_4_3_u09_r18_network.node[32].content_store 	decision_yes[32] 	123
scalar tree_4_3_u09_r18_network.node[32].content_store 	decision_no[32] 	8694
scalar tree_4_3_u09_r18_network.node[32].content_store 	decision_ratio[32] 	0.013950323239197
scalar tree_4_3_u09_r18_network.node[33].core_layer 	interests[33] 	12936
scalar tree_4_3_u09_r18_network.node[33].core_layer 	data[33] 	8831
scalar tree_4_3_u09_r18_network.node[33].content_store 	p_hit[33] 	0.3174087816945
scalar tree_4_3_u09_r18_network.node[33].content_store 	hits[33] 	4106
scalar tree_4_3_u09_r18_network.node[33].content_store 	misses[33] 	8830
scalar tree_4_3_u09_r18_network.node[33].content_store 	decision_yes[33] 	104
scalar tree_4_3_u09_r18_network.node[33].content_store 	decision_no[33] 	8727
scalar tree_4_3_u09_r18_network.node[33].content_store 	decision_ratio[33] 	0.011776695730948
scalar tree_4_3_u09_r18_network.node[34].core_layer 	interests[34] 	12902
scalar tree_4_3_u09_r18_network.node[34].core_layer 	data[34] 	8826
scalar tree_4_3_u09_r18_network.node[34].content_store 	p_hit[34] 	0.31592001240118
scalar tree_4_3_u09_r18_network.node[34].content_store 	hits[34] 	4076
scalar tree_4_3_u09_r18_network.node[34].content_store 	misses[34] 	8826
scalar tree_4_3_u09_r18_network.node[34].content_store 	decision_yes[34] 	116
scalar tree_4_3_u09_r18_network.node[34].content_store 	decision_no[34] 	8710
scalar tree_4_3_u09_r18_network.node[34].content_store 	decision_ratio[34] 	0.01314298663041
scalar tree_4_3_u09_r18_network.node[35].core_layer 	interests[35] 	12310
scalar tree_4_3_u09_r18_network.node[35].core_layer 	data[35] 	8770
scalar tree_4_3_u09_r18_network.node[35].content_store 	p_hit[35] 	0.28748984565394
scalar tree_4_3_u09_r18_network.node[35].content_store 	hits[35] 	3539
scalar tree_4_3_u09_r18_network.node[35].content_store 	misses[35] 	8771
scalar tree_4_3_u09_r18_network.node[35].content_store 	decision_yes[35] 	115
scalar tree_4_3_u09_r18_network.node[35].content_store 	decision_no[35] 	8655
scalar tree_4_3_u09_r18_network.node[35].content_store 	decision_ratio[35] 	0.013112884834664
scalar tree_4_3_u09_r18_network.node[36].core_layer 	interests[36] 	13194
scalar tree_4_3_u09_r18_network.node[36].core_layer 	data[36] 	8980
scalar tree_4_3_u09_r18_network.node[36].content_store 	p_hit[36] 	0.31938760042444
scalar tree_4_3_u09_r18_network.node[36].content_store 	hits[36] 	4214
scalar tree_4_3_u09_r18_network.node[36].content_store 	misses[36] 	8980
scalar tree_4_3_u09_r18_network.node[36].content_store 	decision_yes[36] 	113
scalar tree_4_3_u09_r18_network.node[36].content_store 	decision_no[36] 	8867
scalar tree_4_3_u09_r18_network.node[36].content_store 	decision_ratio[36] 	0.012583518930958
scalar tree_4_3_u09_r18_network.node[37].core_layer 	interests[37] 	12965
scalar tree_4_3_u09_r18_network.node[37].core_layer 	data[37] 	8857
scalar tree_4_3_u09_r18_network.node[37].content_store 	p_hit[37] 	0.31685306594678
scalar tree_4_3_u09_r18_network.node[37].content_store 	hits[37] 	4108
scalar tree_4_3_u09_r18_network.node[37].content_store 	misses[37] 	8857
scalar tree_4_3_u09_r18_network.node[37].content_store 	decision_yes[37] 	104
scalar tree_4_3_u09_r18_network.node[37].content_store 	decision_no[37] 	8753
scalar tree_4_3_u09_r18_network.node[37].content_store 	decision_ratio[37] 	0.011742124872982
scalar tree_4_3_u09_r18_network.node[38].core_layer 	interests[38] 	12203
scalar tree_4_3_u09_r18_network.node[38].core_layer 	data[38] 	8703
scalar tree_4_3_u09_r18_network.node[38].content_store 	p_hit[38] 	0.28673277063017
scalar tree_4_3_u09_r18_network.node[38].content_store 	hits[38] 	3499
scalar tree_4_3_u09_r18_network.node[38].content_store 	misses[38] 	8704
scalar tree_4_3_u09_r18_network.node[38].content_store 	decision_yes[38] 	112
scalar tree_4_3_u09_r18_network.node[38].content_store 	decision_no[38] 	8591
scalar tree_4_3_u09_r18_network.node[38].content_store 	decision_ratio[38] 	0.012869125588877
scalar tree_4_3_u09_r18_network.node[39].core_layer 	interests[39] 	12306
scalar tree_4_3_u09_r18_network.node[39].core_layer 	data[39] 	8787
scalar tree_4_3_u09_r18_network.node[39].content_store 	p_hit[39] 	0.28595806923452
scalar tree_4_3_u09_r18_network.node[39].content_store 	hits[39] 	3519
scalar tree_4_3_u09_r18_network.node[39].content_store 	misses[39] 	8787
scalar tree_4_3_u09_r18_network.node[39].content_store 	decision_yes[39] 	96
scalar tree_4_3_u09_r18_network.node[39].content_store 	decision_no[39] 	8691
scalar tree_4_3_u09_r18_network.node[39].content_store 	decision_ratio[39] 	0.01092523045408
scalar tree_4_3_u09_r18_network.client[13] 	hdistance[13] 	2.6797164757274
scalar tree_4_3_u09_r18_network.client[13] 	downloads[13] 	12133
scalar tree_4_3_u09_r18_network.client[13] 	avg_time[13] 	0.004207200467
scalar tree_4_3_u09_r18_network.client[14] 	hdistance[14] 	2.5872107489425
scalar tree_4_3_u09_r18_network.client[14] 	downloads[14] 	12057
scalar tree_4_3_u09_r18_network.client[14] 	avg_time[14] 	0.004069666022
scalar tree_4_3_u09_r18_network.client[15] 	hdistance[15] 	2.573048588693
scalar tree_4_3_u09_r18_network.client[15] 	downloads[15] 	12081
scalar tree_4_3_u09_r18_network.client[15] 	avg_time[15] 	0.004039476088
scalar tree_4_3_u09_r18_network.client[16] 	hdistance[16] 	2.6151900868246
scalar tree_4_3_u09_r18_network.client[16] 	downloads[16] 	11863
scalar tree_4_3_u09_r18_network.client[16] 	avg_time[16] 	0.004111435962
scalar tree_4_3_u09_r18_network.client[17] 	hdistance[17] 	2.6344632297826
scalar tree_4_3_u09_r18_network.client[17] 	downloads[17] 	12007
scalar tree_4_3_u09_r18_network.client[17] 	avg_time[17] 	0.004159570573
scalar tree_4_3_u09_r18_network.client[18] 	hdistance[18] 	2.5465465465465
scalar tree_4_3_u09_r18_network.client[18] 	downloads[18] 	11988
scalar tree_4_3_u09_r18_network.client[18] 	avg_time[18] 	0.004005168893
scalar tree_4_3_u09_r18_network.client[19] 	hdistance[19] 	2.5914095079233
scalar tree_4_3_u09_r18_network.client[19] 	downloads[19] 	11990
scalar tree_4_3_u09_r18_network.client[19] 	avg_time[19] 	0.004070388991
scalar tree_4_3_u09_r18_network.client[20] 	hdistance[20] 	2.5609222484012
scalar tree_4_3_u09_r18_network.client[20] 	downloads[20] 	11884
scalar tree_4_3_u09_r18_network.client[20] 	avg_time[20] 	0.004026755699
scalar tree_4_3_u09_r18_network.client[21] 	hdistance[21] 	2.6440890823845
scalar tree_4_3_u09_r18_network.client[21] 	downloads[21] 	11944
scalar tree_4_3_u09_r18_network.client[21] 	avg_time[21] 	0.004166775342
scalar tree_4_3_u09_r18_network.client[22] 	hdistance[22] 	2.6020920502092
scalar tree_4_3_u09_r18_network.client[22] 	downloads[22] 	11950
scalar tree_4_3_u09_r18_network.client[22] 	avg_time[22] 	0.004112026251
scalar tree_4_3_u09_r18_network.client[23] 	hdistance[23] 	2.5886165351059
scalar tree_4_3_u09_r18_network.client[23] 	downloads[23] 	12035
scalar tree_4_3_u09_r18_network.client[23] 	avg_time[23] 	0.004071621425
scalar tree_4_3_u09_r18_network.client[24] 	hdistance[24] 	2.5839513373886
scalar tree_4_3_u09_r18_network.client[24] 	downloads[24] 	12001
scalar tree_4_3_u09_r18_network.client[24] 	avg_time[24] 	0.004059158702
scalar tree_4_3_u09_r18_network.client[25] 	hdistance[25] 	2.6138812327737
scalar tree_4_3_u09_r18_network.client[25] 	downloads[25] 	11973
scalar tree_4_3_u09_r18_network.client[25] 	avg_time[25] 	0.00411057918
scalar tree_4_3_u09_r18_network.client[26] 	hdistance[26] 	2.6499304930902
scalar tree_4_3_u09_r18_network.client[26] 	downloads[26] 	12229
scalar tree_4_3_u09_r18_network.client[26] 	avg_time[26] 	0.004151440212
scalar tree_4_3_u09_r18_network.client[27] 	hdistance[27] 	2.5810968494749
scalar tree_4_3_u09_r18_network.client[27] 	downloads[27] 	11998
scalar tree_4_3_u09_r18_network.client[27] 	avg_time[27] 	0.0040275016
scalar tree_4_3_u09_r18_network.client[28] 	hdistance[28] 	2.5592197702289
scalar tree_4_3_u09_r18_network.client[28] 	downloads[28] 	12099
scalar tree_4_3_u09_r18_network.client[28] 	avg_time[28] 	0.004025453651
scalar tree_4_3_u09_r18_network.client[29] 	hdistance[29] 	2.6216055668703
scalar tree_4_3_u09_r18_network.client[29] 	downloads[29] 	11784
scalar tree_4_3_u09_r18_network.client[29] 	avg_time[29] 	0.004087743144
scalar tree_4_3_u09_r18_network.client[30] 	hdistance[30] 	2.6182991396426
scalar tree_4_3_u09_r18_network.client[30] 	downloads[30] 	12088
scalar tree_4_3_u09_r18_network.client[30] 	avg_time[30] 	0.004106218012
scalar tree_4_3_u09_r18_network.client[31] 	hdistance[31] 	2.6051157736354
scalar tree_4_3_u09_r18_network.client[31] 	downloads[31] 	11963
scalar tree_4_3_u09_r18_network.client[31] 	avg_time[31] 	0.004109556075
scalar tree_4_3_u09_r18_network.client[32] 	hdistance[32] 	2.5875052410902
scalar tree_4_3_u09_r18_network.client[32] 	downloads[32] 	11925
scalar tree_4_3_u09_r18_network.client[32] 	avg_time[32] 	0.004075133348
scalar tree_4_3_u09_r18_network.client[33] 	hdistance[33] 	2.6044776119403
scalar tree_4_3_u09_r18_network.client[33] 	downloads[33] 	11926
scalar tree_4_3_u09_r18_network.client[33] 	avg_time[33] 	0.004086027552
scalar tree_4_3_u09_r18_network.client[34] 	hdistance[34] 	2.5663834749292
scalar tree_4_3_u09_r18_network.client[34] 	downloads[34] 	12006
scalar tree_4_3_u09_r18_network.client[34] 	avg_time[34] 	0.004040310177
scalar tree_4_3_u09_r18_network.client[35] 	hdistance[35] 	2.6494931724889
scalar tree_4_3_u09_r18_network.client[35] 	downloads[35] 	11937
scalar tree_4_3_u09_r18_network.client[35] 	avg_time[35] 	0.004182375564
scalar tree_4_3_u09_r18_network.client[36] 	hdistance[36] 	2.5797776687919
scalar tree_4_3_u09_r18_network.client[36] 	downloads[36] 	12234
scalar tree_4_3_u09_r18_network.client[36] 	avg_time[36] 	0.004051492763
scalar tree_4_3_u09_r18_network.client[37] 	hdistance[37] 	2.5855098985194
scalar tree_4_3_u09_r18_network.client[37] 	downloads[37] 	12022
scalar tree_4_3_u09_r18_network.client[37] 	avg_time[37] 	0.004059887237
scalar tree_4_3_u09_r18_network.client[38] 	hdistance[38] 	2.6649540975322
scalar tree_4_3_u09_r18_network.client[38] 	downloads[38] 	11873
scalar tree_4_3_u09_r18_network.client[38] 	avg_time[38] 	0.004151699381
scalar tree_4_3_u09_r18_network.client[39] 	hdistance[39] 	2.6723907969323
scalar tree_4_3_u09_r18_network.client[39] 	downloads[39] 	11996
scalar tree_4_3_u09_r18_network.client[39] 	avg_time[39] 	0.004163718234
