version 2
run General-576-20160901-14:06:30-8710
attr a 0.9
attr cd ffc
attr configname General
attr cr lru
attr datetime 20160901-14:06:30
attr experiment General
attr fsize 1
attr inifile hw5115/scenario_Y/omnetp.ini
attr iterationvars "$name=tree_4_3, $un=09, $rep=13, $cd=ffc, $cr=lru, $fsize=1, $a=0.9, $sl=nrr, $ttl=1000, $variance=0.05"
attr iterationvars2 "$name=tree_4_3, $un=09, $rep=13, $cd=ffc, $cr=lru, $fsize=1, $a=0.9, $sl=nrr, $ttl=1000, $variance=0.05, $repetition=0"
attr measurement "$name=tree_4_3, $un=09, $rep=13, $cd=ffc, $cr=lru, $fsize=1, $a=0.9, $sl=nrr, $ttl=1000, $variance=0.05"
attr name tree_4_3
attr network networks.${name}_u${un}_r${rep}_network
attr processid 8710
attr rep 13
attr repetition 0
attr replication #0
attr resultdir results
attr runnumber 576
attr seedset 13
attr sl nrr
attr ttl 1000
attr un 09
attr variance 0.05

scalar . 	a 	0.9
scalar . 	fsize 	1
scalar . 	rep 	13
scalar . 	ttl 	1000
scalar . 	un 	09
scalar . 	variance 	0.05
scalar tree_4_3_u09_r13_network.content_distribution 	repo-0 	0
scalar tree_4_3_u09_r13_network.content_distribution 	client-0 	13
scalar tree_4_3_u09_r13_network.content_distribution 	client-1 	14
scalar tree_4_3_u09_r13_network.content_distribution 	client-2 	15
scalar tree_4_3_u09_r13_network.content_distribution 	client-3 	16
scalar tree_4_3_u09_r13_network.content_distribution 	client-4 	17
scalar tree_4_3_u09_r13_network.content_distribution 	client-5 	18
scalar tree_4_3_u09_r13_network.content_distribution 	client-6 	19
scalar tree_4_3_u09_r13_network.content_distribution 	client-7 	20
scalar tree_4_3_u09_r13_network.content_distribution 	client-8 	21
scalar tree_4_3_u09_r13_network.content_distribution 	client-9 	22
scalar tree_4_3_u09_r13_network.content_distribution 	client-10 	23
scalar tree_4_3_u09_r13_network.content_distribution 	client-11 	24
scalar tree_4_3_u09_r13_network.content_distribution 	client-12 	25
scalar tree_4_3_u09_r13_network.content_distribution 	client-13 	26
scalar tree_4_3_u09_r13_network.content_distribution 	client-14 	27
scalar tree_4_3_u09_r13_network.content_distribution 	client-15 	28
scalar tree_4_3_u09_r13_network.content_distribution 	client-16 	29
scalar tree_4_3_u09_r13_network.content_distribution 	client-17 	30
scalar tree_4_3_u09_r13_network.content_distribution 	client-18 	31
scalar tree_4_3_u09_r13_network.content_distribution 	client-19 	32
scalar tree_4_3_u09_r13_network.content_distribution 	client-20 	33
scalar tree_4_3_u09_r13_network.content_distribution 	client-21 	34
scalar tree_4_3_u09_r13_network.content_distribution 	client-22 	35
scalar tree_4_3_u09_r13_network.content_distribution 	client-23 	36
scalar tree_4_3_u09_r13_network.content_distribution 	client-24 	37
scalar tree_4_3_u09_r13_network.content_distribution 	client-25 	38
scalar tree_4_3_u09_r13_network.content_distribution 	client-26 	39
scalar tree_4_3_u09_r13_network.content_distribution 	repo-0_card 	100000
scalar tree_4_3_u09_r13_network.content_distribution 	repo-0_price 	0
scalar tree_4_3_u09_r13_network.statistics 	stabilization_time 	1087.8
scalar tree_4_3_u09_r13_network.statistics 	p_hit 	0.24408825411615
scalar tree_4_3_u09_r13_network.statistics 	interests 	24613.375
scalar tree_4_3_u09_r13_network.statistics 	data 	16529.275
scalar tree_4_3_u09_r13_network.statistics 	hdistance 	2.6077805705274
scalar tree_4_3_u09_r13_network.statistics 	avg_time 	0.004089310036
scalar tree_4_3_u09_r13_network.statistics 	downloads 	323364
scalar tree_4_3_u09_r13_network.statistics 	total_cost 	0
scalar tree_4_3_u09_r13_network.statistics 	total_replicas 	100000
scalar tree_4_3_u09_r13_network.statistics 	inner_hit 	0.4368699051224
scalar tree_4_3_u09_r13_network.node[0].core_layer 	interests[0] 	184392
scalar tree_4_3_u09_r13_network.node[0].core_layer 	repo_load[0] 	182096
scalar tree_4_3_u09_r13_network.node[0].core_layer 	data[0] 	0
scalar tree_4_3_u09_r13_network.node[0].core_layer 	repo_int[0] 	182096
scalar tree_4_3_u09_r13_network.node[0].content_store 	p_hit[0] 	0.012451733263916
scalar tree_4_3_u09_r13_network.node[0].content_store 	hits[0] 	2296
scalar tree_4_3_u09_r13_network.node[0].content_store 	misses[0] 	182096
scalar tree_4_3_u09_r13_network.node[0].content_store 	decision_yes[0] 	784
scalar tree_4_3_u09_r13_network.node[0].content_store 	decision_no[0] 	181312
scalar tree_4_3_u09_r13_network.node[0].content_store 	decision_ratio[0] 	0.0043054213162288
scalar tree_4_3_u09_r13_network.node[1].core_layer 	interests[1] 	100875
scalar tree_4_3_u09_r13_network.node[1].core_layer 	data[1] 	99068
scalar tree_4_3_u09_r13_network.node[1].content_store 	p_hit[1] 	0.017923172242875
scalar tree_4_3_u09_r13_network.node[1].content_store 	hits[1] 	1808
scalar tree_4_3_u09_r13_network.node[1].content_store 	misses[1] 	99067
scalar tree_4_3_u09_r13_network.node[1].content_store 	decision_yes[1] 	459
scalar tree_4_3_u09_r13_network.node[1].content_store 	decision_no[1] 	98609
scalar tree_4_3_u09_r13_network.node[1].content_store 	decision_ratio[1] 	0.0046331812492429
scalar tree_4_3_u09_r13_network.node[2].core_layer 	interests[2] 	92225
scalar tree_4_3_u09_r13_network.node[2].core_layer 	data[2] 	89281
scalar tree_4_3_u09_r13_network.node[2].content_store 	p_hit[2] 	0.031900243968555
scalar tree_4_3_u09_r13_network.node[2].content_store 	hits[2] 	2942
scalar tree_4_3_u09_r13_network.node[2].content_store 	misses[2] 	89283
scalar tree_4_3_u09_r13_network.node[2].content_store 	decision_yes[2] 	515
scalar tree_4_3_u09_r13_network.node[2].content_store 	decision_no[2] 	88766
scalar tree_4_3_u09_r13_network.node[2].content_store 	decision_ratio[2] 	0.0057683045664811
scalar tree_4_3_u09_r13_network.node[3].core_layer 	interests[3] 	12281
scalar tree_4_3_u09_r13_network.node[3].core_layer 	data[3] 	9634
scalar tree_4_3_u09_r13_network.node[3].content_store 	p_hit[3] 	0.215536194121
scalar tree_4_3_u09_r13_network.node[3].content_store 	hits[3] 	2647
scalar tree_4_3_u09_r13_network.node[3].content_store 	misses[3] 	9634
scalar tree_4_3_u09_r13_network.node[3].content_store 	decision_yes[3] 	216
scalar tree_4_3_u09_r13_network.node[3].content_store 	decision_no[3] 	9418
scalar tree_4_3_u09_r13_network.node[3].content_store 	decision_ratio[3] 	0.022420593730538
scalar tree_4_3_u09_r13_network.node[4].core_layer 	interests[4] 	41451
scalar tree_4_3_u09_r13_network.node[4].core_layer 	data[4] 	39141
scalar tree_4_3_u09_r13_network.node[4].content_store 	p_hit[4] 	0.055728450459579
scalar tree_4_3_u09_r13_network.node[4].content_store 	hits[4] 	2310
scalar tree_4_3_u09_r13_network.node[4].content_store 	misses[4] 	39141
scalar tree_4_3_u09_r13_network.node[4].content_store 	decision_yes[4] 	283
scalar tree_4_3_u09_r13_network.node[4].content_store 	decision_no[4] 	38858
scalar tree_4_3_u09_r13_network.node[4].content_store 	decision_ratio[4] 	0.0072302700493089
scalar tree_4_3_u09_r13_network.node[5].core_layer 	interests[5] 	29872
scalar tree_4_3_u09_r13_network.node[5].core_layer 	data[5] 	26201
scalar tree_4_3_u09_r13_network.node[5].content_store 	p_hit[5] 	0.12289100160686
scalar tree_4_3_u09_r13_network.node[5].content_store 	hits[5] 	3671
scalar tree_4_3_u09_r13_network.node[5].content_store 	misses[5] 	26201
scalar tree_4_3_u09_r13_network.node[5].content_store 	decision_yes[5] 	355
scalar tree_4_3_u09_r13_network.node[5].content_store 	decision_no[5] 	25846
scalar tree_4_3_u09_r13_network.node[5].content_store 	decision_ratio[5] 	0.013549101179344
scalar tree_4_3_u09_r13_network.node[6].core_layer 	interests[6] 	11990
scalar tree_4_3_u09_r13_network.node[6].core_layer 	data[6] 	9260
scalar tree_4_3_u09_r13_network.node[6].content_store 	p_hit[6] 	0.22768974145121
scalar tree_4_3_u09_r13_network.node[6].content_store 	hits[6] 	2730
scalar tree_4_3_u09_r13_network.node[6].content_store 	misses[6] 	9260
scalar tree_4_3_u09_r13_network.node[6].content_store 	decision_yes[6] 	172
scalar tree_4_3_u09_r13_network.node[6].content_store 	decision_no[6] 	9088
scalar tree_4_3_u09_r13_network.node[6].content_store 	decision_ratio[6] 	0.018574514038877
scalar tree_4_3_u09_r13_network.node[7].core_layer 	interests[7] 	42479
scalar tree_4_3_u09_r13_network.node[7].core_layer 	data[7] 	39914
scalar tree_4_3_u09_r13_network.node[7].content_store 	p_hit[7] 	0.060382777372349
scalar tree_4_3_u09_r13_network.node[7].content_store 	hits[7] 	2565
scalar tree_4_3_u09_r13_network.node[7].content_store 	misses[7] 	39914
scalar tree_4_3_u09_r13_network.node[7].content_store 	decision_yes[7] 	338
scalar tree_4_3_u09_r13_network.node[7].content_store 	decision_no[7] 	39576
scalar tree_4_3_u09_r13_network.node[7].content_store 	decision_ratio[7] 	0.0084682066442852
scalar tree_4_3_u09_r13_network.node[8].core_layer 	interests[8] 	27101
scalar tree_4_3_u09_r13_network.node[8].core_layer 	data[8] 	24464
scalar tree_4_3_u09_r13_network.node[8].content_store 	p_hit[8] 	0.097265783550422
scalar tree_4_3_u09_r13_network.node[8].content_store 	hits[8] 	2636
scalar tree_4_3_u09_r13_network.node[8].content_store 	misses[8] 	24465
scalar tree_4_3_u09_r13_network.node[8].content_store 	decision_yes[8] 	241
scalar tree_4_3_u09_r13_network.node[8].content_store 	decision_no[8] 	24223
scalar tree_4_3_u09_r13_network.node[8].content_store 	decision_ratio[8] 	0.009851209941138
scalar tree_4_3_u09_r13_network.node[9].core_layer 	interests[9] 	14256
scalar tree_4_3_u09_r13_network.node[9].core_layer 	data[9] 	10911
scalar tree_4_3_u09_r13_network.node[9].content_store 	p_hit[9] 	0.23456790123457
scalar tree_4_3_u09_r13_network.node[9].content_store 	hits[9] 	3344
scalar tree_4_3_u09_r13_network.node[9].content_store 	misses[9] 	10912
scalar tree_4_3_u09_r13_network.node[9].content_store 	decision_yes[9] 	355
scalar tree_4_3_u09_r13_network.node[9].content_store 	decision_no[9] 	10556
scalar tree_4_3_u09_r13_network.node[9].content_store 	decision_ratio[9] 	0.032535972871414
scalar tree_4_3_u09_r13_network.node[10].core_layer 	interests[10] 	43193
scalar tree_4_3_u09_r13_network.node[10].core_layer 	data[10] 	40190
scalar tree_4_3_u09_r13_network.node[10].content_store 	p_hit[10] 	0.06952515453893
scalar tree_4_3_u09_r13_network.node[10].content_store 	hits[10] 	3003
scalar tree_4_3_u09_r13_network.node[10].content_store 	misses[10] 	40190
scalar tree_4_3_u09_r13_network.node[10].content_store 	decision_yes[10] 	348
scalar tree_4_3_u09_r13_network.node[10].content_store 	decision_no[10] 	39842
scalar tree_4_3_u09_r13_network.node[10].content_store 	decision_ratio[10] 	0.0086588703657626
scalar tree_4_3_u09_r13_network.node[11].core_layer 	interests[11] 	29199
scalar tree_4_3_u09_r13_network.node[11].core_layer 	data[11] 	25910
scalar tree_4_3_u09_r13_network.node[11].content_store 	p_hit[11] 	0.11264084386452
scalar tree_4_3_u09_r13_network.node[11].content_store 	hits[11] 	3289
scalar tree_4_3_u09_r13_network.node[11].content_store 	misses[11] 	25910
scalar tree_4_3_u09_r13_network.node[11].content_store 	decision_yes[11] 	308
scalar tree_4_3_u09_r13_network.node[11].content_store 	decision_no[11] 	25602
scalar tree_4_3_u09_r13_network.node[11].content_store 	decision_ratio[11] 	0.011887302199923
scalar tree_4_3_u09_r13_network.node[12].core_layer 	interests[12] 	12004
scalar tree_4_3_u09_r13_network.node[12].core_layer 	data[12] 	9242
scalar tree_4_3_u09_r13_network.node[12].content_store 	p_hit[12] 	0.23008997001
scalar tree_4_3_u09_r13_network.node[12].content_store 	hits[12] 	2762
scalar tree_4_3_u09_r13_network.node[12].content_store 	misses[12] 	9242
scalar tree_4_3_u09_r13_network.node[12].content_store 	decision_yes[12] 	179
scalar tree_4_3_u09_r13_network.node[12].content_store 	decision_no[12] 	9063
scalar tree_4_3_u09_r13_network.node[12].content_store 	decision_ratio[12] 	0.019368102142393
scalar tree_4_3_u09_r13_network.node[13].core_layer 	interests[13] 	12381
scalar tree_4_3_u09_r13_network.node[13].core_layer 	data[13] 	8849
scalar tree_4_3_u09_r13_network.node[13].content_store 	p_hit[13] 	0.28527582586221
scalar tree_4_3_u09_r13_network.node[13].content_store 	hits[13] 	3532
scalar tree_4_3_u09_r13_network.node[13].content_store 	misses[13] 	8849
scalar tree_4_3_u09_r13_network.node[13].content_store 	decision_yes[13] 	119
scalar tree_4_3_u09_r13_network.node[13].content_store 	decision_no[13] 	8730
scalar tree_4_3_u09_r13_network.node[13].content_store 	decision_ratio[13] 	0.013447847214375
scalar tree_4_3_u09_r13_network.node[14].core_layer 	interests[14] 	13204
scalar tree_4_3_u09_r13_network.node[14].core_layer 	data[14] 	9082
scalar tree_4_3_u09_r13_network.node[14].content_store 	p_hit[14] 	0.31217812784005
scalar tree_4_3_u09_r13_network.node[14].content_store 	hits[14] 	4122
scalar tree_4_3_u09_r13_network.node[14].content_store 	misses[14] 	9082
scalar tree_4_3_u09_r13_network.node[14].content_store 	decision_yes[14] 	119
scalar tree_4_3_u09_r13_network.node[14].content_store 	decision_no[14] 	8963
scalar tree_4_3_u09_r13_network.node[14].content_store 	decision_ratio[14] 	0.013102840783968
scalar tree_4_3_u09_r13_network.node[15].core_layer 	interests[15] 	12730
scalar tree_4_3_u09_r13_network.node[15].core_layer 	data[15] 	8746
scalar tree_4_3_u09_r13_network.node[15].content_store 	p_hit[15] 	0.31296150824823
scalar tree_4_3_u09_r13_network.node[15].content_store 	hits[15] 	3984
scalar tree_4_3_u09_r13_network.node[15].content_store 	misses[15] 	8746
scalar tree_4_3_u09_r13_network.node[15].content_store 	decision_yes[15] 	126
scalar tree_4_3_u09_r13_network.node[15].content_store 	decision_no[15] 	8620
scalar tree_4_3_u09_r13_network.node[15].content_store 	decision_ratio[15] 	0.014406585867825
scalar tree_4_3_u09_r13_network.node[16].core_layer 	interests[16] 	12777
scalar tree_4_3_u09_r13_network.node[16].core_layer 	data[16] 	8672
scalar tree_4_3_u09_r13_network.node[16].content_store 	p_hit[16] 	0.32128042576505
scalar tree_4_3_u09_r13_network.node[16].content_store 	hits[16] 	4105
scalar tree_4_3_u09_r13_network.node[16].content_store 	misses[16] 	8672
scalar tree_4_3_u09_r13_network.node[16].content_store 	decision_yes[16] 	112
scalar tree_4_3_u09_r13_network.node[16].content_store 	decision_no[16] 	8560
scalar tree_4_3_u09_r13_network.node[16].content_store 	decision_ratio[16] 	0.012915129151292
scalar tree_4_3_u09_r13_network.node[17].core_layer 	interests[17] 	12373
scalar tree_4_3_u09_r13_network.node[17].core_layer 	data[17] 	8637
scalar tree_4_3_u09_r13_network.node[17].content_store 	p_hit[17] 	0.30202861068456
scalar tree_4_3_u09_r13_network.node[17].content_store 	hits[17] 	3737
scalar tree_4_3_u09_r13_network.node[17].content_store 	misses[17] 	8636
scalar tree_4_3_u09_r13_network.node[17].content_store 	decision_yes[17] 	109
scalar tree_4_3_u09_r13_network.node[17].content_store 	decision_no[17] 	8528
scalar tree_4_3_u09_r13_network.node[17].content_store 	decision_ratio[17] 	0.012620122727799
scalar tree_4_3_u09_r13_network.node[18].core_layer 	interests[18] 	12778
scalar tree_4_3_u09_r13_network.node[18].core_layer 	data[18] 	8766
scalar tree_4_3_u09_r13_network.node[18].content_store 	p_hit[18] 	0.31397714822351
scalar tree_4_3_u09_r13_network.node[18].content_store 	hits[18] 	4012
scalar tree_4_3_u09_r13_network.node[18].content_store 	misses[18] 	8766
scalar tree_4_3_u09_r13_network.node[18].content_store 	decision_yes[18] 	131
scalar tree_4_3_u09_r13_network.node[18].content_store 	decision_no[18] 	8635
scalar tree_4_3_u09_r13_network.node[18].content_store 	decision_ratio[18] 	0.014944102213096
scalar tree_4_3_u09_r13_network.node[19].core_layer 	interests[19] 	12764
scalar tree_4_3_u09_r13_network.node[19].core_layer 	data[19] 	8771
scalar tree_4_3_u09_r13_network.node[19].content_store 	p_hit[19] 	0.31283296772172
scalar tree_4_3_u09_r13_network.node[19].content_store 	hits[19] 	3993
scalar tree_4_3_u09_r13_network.node[19].content_store 	misses[19] 	8771
scalar tree_4_3_u09_r13_network.node[19].content_store 	decision_yes[19] 	114
scalar tree_4_3_u09_r13_network.node[19].content_store 	decision_no[19] 	8657
scalar tree_4_3_u09_r13_network.node[19].content_store 	decision_ratio[19] 	0.012997377722039
scalar tree_4_3_u09_r13_network.node[20].core_layer 	interests[20] 	12841
scalar tree_4_3_u09_r13_network.node[20].core_layer 	data[20] 	8730
scalar tree_4_3_u09_r13_network.node[20].content_store 	p_hit[20] 	0.32014640604314
scalar tree_4_3_u09_r13_network.node[20].content_store 	hits[20] 	4111
scalar tree_4_3_u09_r13_network.node[20].content_store 	misses[20] 	8730
scalar tree_4_3_u09_r13_network.node[20].content_store 	decision_yes[20] 	94
scalar tree_4_3_u09_r13_network.node[20].content_store 	decision_no[20] 	8636
scalar tree_4_3_u09_r13_network.node[20].content_store 	decision_ratio[20] 	0.010767468499427
scalar tree_4_3_u09_r13_network.node[21].core_layer 	interests[21] 	12235
scalar tree_4_3_u09_r13_network.node[21].core_layer 	data[21] 	8722
scalar tree_4_3_u09_r13_network.node[21].content_store 	p_hit[21] 	0.28712709440131
scalar tree_4_3_u09_r13_network.node[21].content_store 	hits[21] 	3513
scalar tree_4_3_u09_r13_network.node[21].content_store 	misses[21] 	8722
scalar tree_4_3_u09_r13_network.node[21].content_store 	decision_yes[21] 	112
scalar tree_4_3_u09_r13_network.node[21].content_store 	decision_no[21] 	8610
scalar tree_4_3_u09_r13_network.node[21].content_store 	decision_ratio[21] 	0.012841091492777
scalar tree_4_3_u09_r13_network.node[22].core_layer 	interests[22] 	12501
scalar tree_4_3_u09_r13_network.node[22].core_layer 	data[22] 	8867
scalar tree_4_3_u09_r13_network.node[22].content_store 	p_hit[22] 	0.29069674426046
scalar tree_4_3_u09_r13_network.node[22].content_store 	hits[22] 	3634
scalar tree_4_3_u09_r13_network.node[22].content_store 	misses[22] 	8867
scalar tree_4_3_u09_r13_network.node[22].content_store 	decision_yes[22] 	106
scalar tree_4_3_u09_r13_network.node[22].content_store 	decision_no[22] 	8761
scalar tree_4_3_u09_r13_network.node[22].content_store 	decision_ratio[22] 	0.01195443780309
scalar tree_4_3_u09_r13_network.node[23].core_layer 	interests[23] 	12768
scalar tree_4_3_u09_r13_network.node[23].core_layer 	data[23] 	8721
scalar tree_4_3_u09_r13_network.node[23].content_store 	p_hit[23] 	0.31696428571429
scalar tree_4_3_u09_r13_network.node[23].content_store 	hits[23] 	4047
scalar tree_4_3_u09_r13_network.node[23].content_store 	misses[23] 	8721
scalar tree_4_3_u09_r13_network.node[23].content_store 	decision_yes[23] 	125
scalar tree_4_3_u09_r13_network.node[23].content_store 	decision_no[23] 	8596
scalar tree_4_3_u09_r13_network.node[23].content_store 	decision_ratio[23] 	0.014333218667584
scalar tree_4_3_u09_r13_network.node[24].core_layer 	interests[24] 	12985
scalar tree_4_3_u09_r13_network.node[24].core_layer 	data[24] 	8824
scalar tree_4_3_u09_r13_network.node[24].content_store 	p_hit[24] 	0.32044666923373
scalar tree_4_3_u09_r13_network.node[24].content_store 	hits[24] 	4161
scalar tree_4_3_u09_r13_network.node[24].content_store 	misses[24] 	8824
scalar tree_4_3_u09_r13_network.node[24].content_store 	decision_yes[24] 	92
scalar tree_4_3_u09_r13_network.node[24].content_store 	decision_no[24] 	8732
scalar tree_4_3_u09_r13_network.node[24].content_store 	decision_ratio[24] 	0.010426110607434
scalar tree_4_3_u09_r13_network.node[25].core_layer 	interests[25] 	13004
scalar tree_4_3_u09_r13_network.node[25].core_layer 	data[25] 	8871
scalar tree_4_3_u09_r13_network.node[25].content_store 	p_hit[25] 	0.31782528452784
scalar tree_4_3_u09_r13_network.node[25].content_store 	hits[25] 	4133
scalar tree_4_3_u09_r13_network.node[25].content_store 	misses[25] 	8871
scalar tree_4_3_u09_r13_network.node[25].content_store 	decision_yes[25] 	125
scalar tree_4_3_u09_r13_network.node[25].content_store 	decision_no[25] 	8746
scalar tree_4_3_u09_r13_network.node[25].content_store 	decision_ratio[25] 	0.014090857851426
scalar tree_4_3_u09_r13_network.node[26].core_layer 	interests[26] 	12441
scalar tree_4_3_u09_r13_network.node[26].core_layer 	data[26] 	8805
scalar tree_4_3_u09_r13_network.node[26].content_store 	p_hit[26] 	0.29225946467326
scalar tree_4_3_u09_r13_network.node[26].content_store 	hits[26] 	3636
scalar tree_4_3_u09_r13_network.node[26].content_store 	misses[26] 	8805
scalar tree_4_3_u09_r13_network.node[26].content_store 	decision_yes[26] 	89
scalar tree_4_3_u09_r13_network.node[26].content_store 	decision_no[26] 	8716
scalar tree_4_3_u09_r13_network.node[26].content_store 	decision_ratio[26] 	0.010107893242476
scalar tree_4_3_u09_r13_network.node[27].core_layer 	interests[27] 	13129
scalar tree_4_3_u09_r13_network.node[27].core_layer 	data[27] 	9071
scalar tree_4_3_u09_r13_network.node[27].content_store 	p_hit[27] 	0.3090105872496
scalar tree_4_3_u09_r13_network.node[27].content_store 	hits[27] 	4057
scalar tree_4_3_u09_r13_network.node[27].content_store 	misses[27] 	9072
scalar tree_4_3_u09_r13_network.node[27].content_store 	decision_yes[27] 	121
scalar tree_4_3_u09_r13_network.node[27].content_store 	decision_no[27] 	8950
scalar tree_4_3_u09_r13_network.node[27].content_store 	decision_ratio[27] 	0.013339212876199
scalar tree_4_3_u09_r13_network.node[28].core_layer 	interests[28] 	12858
scalar tree_4_3_u09_r13_network.node[28].core_layer 	data[28] 	8883
scalar tree_4_3_u09_r13_network.node[28].content_store 	p_hit[28] 	0.30914605692954
scalar tree_4_3_u09_r13_network.node[28].content_store 	hits[28] 	3975
scalar tree_4_3_u09_r13_network.node[28].content_store 	misses[28] 	8883
scalar tree_4_3_u09_r13_network.node[28].content_store 	decision_yes[28] 	119
scalar tree_4_3_u09_r13_network.node[28].content_store 	decision_no[28] 	8764
scalar tree_4_3_u09_r13_network.node[28].content_store 	decision_ratio[28] 	0.013396375098503
scalar tree_4_3_u09_r13_network.node[29].core_layer 	interests[29] 	12690
scalar tree_4_3_u09_r13_network.node[29].core_layer 	data[29] 	8773
scalar tree_4_3_u09_r13_network.node[29].content_store 	p_hit[29] 	0.3086682427108
scalar tree_4_3_u09_r13_network.node[29].content_store 	hits[29] 	3917
scalar tree_4_3_u09_r13_network.node[29].content_store 	misses[29] 	8773
scalar tree_4_3_u09_r13_network.node[29].content_store 	decision_yes[29] 	128
scalar tree_4_3_u09_r13_network.node[29].content_store 	decision_no[29] 	8645
scalar tree_4_3_u09_r13_network.node[29].content_store 	decision_ratio[29] 	0.014590219993161
scalar tree_4_3_u09_r13_network.node[30].core_layer 	interests[30] 	12275
scalar tree_4_3_u09_r13_network.node[30].core_layer 	data[30] 	8743
scalar tree_4_3_u09_r13_network.node[30].content_store 	p_hit[30] 	0.28773930753564
scalar tree_4_3_u09_r13_network.node[30].content_store 	hits[30] 	3532
scalar tree_4_3_u09_r13_network.node[30].content_store 	misses[30] 	8743
scalar tree_4_3_u09_r13_network.node[30].content_store 	decision_yes[30] 	120
scalar tree_4_3_u09_r13_network.node[30].content_store 	decision_no[30] 	8623
scalar tree_4_3_u09_r13_network.node[30].content_store 	decision_ratio[30] 	0.013725265927027
scalar tree_4_3_u09_r13_network.node[31].core_layer 	interests[31] 	12464
scalar tree_4_3_u09_r13_network.node[31].core_layer 	data[31] 	8696
scalar tree_4_3_u09_r13_network.node[31].content_store 	p_hit[31] 	0.30223042362003
scalar tree_4_3_u09_r13_network.node[31].content_store 	hits[31] 	3767
scalar tree_4_3_u09_r13_network.node[31].content_store 	misses[31] 	8697
scalar tree_4_3_u09_r13_network.node[31].content_store 	decision_yes[31] 	113
scalar tree_4_3_u09_r13_network.node[31].content_store 	decision_no[31] 	8583
scalar tree_4_3_u09_r13_network.node[31].content_store 	decision_ratio[31] 	0.012994480220791
scalar tree_4_3_u09_r13_network.node[32].core_layer 	interests[32] 	13073
scalar tree_4_3_u09_r13_network.node[32].core_layer 	data[32] 	8908
scalar tree_4_3_u09_r13_network.node[32].content_store 	p_hit[32] 	0.3185955786736
scalar tree_4_3_u09_r13_network.node[32].content_store 	hits[32] 	4165
scalar tree_4_3_u09_r13_network.node[32].content_store 	misses[32] 	8908
scalar tree_4_3_u09_r13_network.node[32].content_store 	decision_yes[32] 	110
scalar tree_4_3_u09_r13_network.node[32].content_store 	decision_no[32] 	8798
scalar tree_4_3_u09_r13_network.node[32].content_store 	decision_ratio[32] 	0.012348450830714
scalar tree_4_3_u09_r13_network.node[33].core_layer 	interests[33] 	12746
scalar tree_4_3_u09_r13_network.node[33].core_layer 	data[33] 	8770
scalar tree_4_3_u09_r13_network.node[33].content_store 	p_hit[33] 	0.31194100109838
scalar tree_4_3_u09_r13_network.node[33].content_store 	hits[33] 	3976
scalar tree_4_3_u09_r13_network.node[33].content_store 	misses[33] 	8770
scalar tree_4_3_u09_r13_network.node[33].content_store 	decision_yes[33] 	115
scalar tree_4_3_u09_r13_network.node[33].content_store 	decision_no[33] 	8655
scalar tree_4_3_u09_r13_network.node[33].content_store 	decision_ratio[33] 	0.013112884834664
scalar tree_4_3_u09_r13_network.node[34].core_layer 	interests[34] 	13079
scalar tree_4_3_u09_r13_network.node[34].core_layer 	data[34] 	8962
scalar tree_4_3_u09_r13_network.node[34].content_store 	p_hit[34] 	0.31477941738665
scalar tree_4_3_u09_r13_network.node[34].content_store 	hits[34] 	4117
scalar tree_4_3_u09_r13_network.node[34].content_store 	misses[34] 	8962
scalar tree_4_3_u09_r13_network.node[34].content_store 	decision_yes[34] 	122
scalar tree_4_3_u09_r13_network.node[34].content_store 	decision_no[34] 	8840
scalar tree_4_3_u09_r13_network.node[34].content_store 	decision_ratio[34] 	0.013613032805177
scalar tree_4_3_u09_r13_network.node[35].core_layer 	interests[35] 	12272
scalar tree_4_3_u09_r13_network.node[35].core_layer 	data[35] 	8713
scalar tree_4_3_u09_r13_network.node[35].content_store 	p_hit[35] 	0.29000977835724
scalar tree_4_3_u09_r13_network.node[35].content_store 	hits[35] 	3559
scalar tree_4_3_u09_r13_network.node[35].content_store 	misses[35] 	8713
scalar tree_4_3_u09_r13_network.node[35].content_store 	decision_yes[35] 	126
scalar tree_4_3_u09_r13_network.node[35].content_store 	decision_no[35] 	8587
scalar tree_4_3_u09_r13_network.node[35].content_store 	decision_ratio[35] 	0.014461150005739
scalar tree_4_3_u09_r13_network.node[36].core_layer 	interests[36] 	12674
scalar tree_4_3_u09_r13_network.node[36].core_layer 	data[36] 	8693
scalar tree_4_3_u09_r13_network.node[36].content_store 	p_hit[36] 	0.31410762190311
scalar tree_4_3_u09_r13_network.node[36].content_store 	hits[36] 	3981
scalar tree_4_3_u09_r13_network.node[36].content_store 	misses[36] 	8693
scalar tree_4_3_u09_r13_network.node[36].content_store 	decision_yes[36] 	98
scalar tree_4_3_u09_r13_network.node[36].content_store 	decision_no[36] 	8595
scalar tree_4_3_u09_r13_network.node[36].content_store 	decision_ratio[36] 	0.011273438398712
scalar tree_4_3_u09_r13_network.node[37].core_layer 	interests[37] 	12755
scalar tree_4_3_u09_r13_network.node[37].core_layer 	data[37] 	8781
scalar tree_4_3_u09_r13_network.node[37].content_store 	p_hit[37] 	0.31156409251274
scalar tree_4_3_u09_r13_network.node[37].content_store 	hits[37] 	3974
scalar tree_4_3_u09_r13_network.node[37].content_store 	misses[37] 	8781
scalar tree_4_3_u09_r13_network.node[37].content_store 	decision_yes[37] 	102
scalar tree_4_3_u09_r13_network.node[37].content_store 	decision_no[37] 	8679
scalar tree_4_3_u09_r13_network.node[37].content_store 	decision_ratio[37] 	0.011615989067304
scalar tree_4_3_u09_r13_network.node[38].core_layer 	interests[38] 	13013
scalar tree_4_3_u09_r13_network.node[38].core_layer 	data[38] 	9026
scalar tree_4_3_u09_r13_network.node[38].content_store 	p_hit[38] 	0.30638592177054
scalar tree_4_3_u09_r13_network.node[38].content_store 	hits[38] 	3987
scalar tree_4_3_u09_r13_network.node[38].content_store 	misses[38] 	9026
scalar tree_4_3_u09_r13_network.node[38].content_store 	decision_yes[38] 	126
scalar tree_4_3_u09_r13_network.node[38].content_store 	decision_no[38] 	8900
scalar tree_4_3_u09_r13_network.node[38].content_store 	decision_ratio[38] 	0.013959672058498
scalar tree_4_3_u09_r13_network.node[39].core_layer 	interests[39] 	12407
scalar tree_4_3_u09_r13_network.node[39].core_layer 	data[39] 	8873
scalar tree_4_3_u09_r13_network.node[39].content_store 	p_hit[39] 	0.28475860401386
scalar tree_4_3_u09_r13_network.node[39].content_store 	hits[39] 	3533
scalar tree_4_3_u09_r13_network.node[39].content_store 	misses[39] 	8874
scalar tree_4_3_u09_r13_network.node[39].content_store 	decision_yes[39] 	98
scalar tree_4_3_u09_r13_network.node[39].content_store 	decision_no[39] 	8775
scalar tree_4_3_u09_r13_network.node[39].content_store 	decision_ratio[39] 	0.011044742477178
scalar tree_4_3_u09_r13_network.client[13] 	hdistance[13] 	2.6821252815081
scalar tree_4_3_u09_r13_network.client[13] 	downloads[13] 	11989
scalar tree_4_3_u09_r13_network.client[13] 	avg_time[13] 	0.004197844999
scalar tree_4_3_u09_r13_network.client[14] 	hdistance[14] 	2.6048804535371
scalar tree_4_3_u09_r13_network.client[14] 	downloads[14] 	12171
scalar tree_4_3_u09_r13_network.client[14] 	avg_time[14] 	0.004097277417
scalar tree_4_3_u09_r13_network.client[15] 	hdistance[15] 	2.615662246097
scalar tree_4_3_u09_r13_network.client[15] 	downloads[15] 	11914
scalar tree_4_3_u09_r13_network.client[15] 	avg_time[15] 	0.004060933759
scalar tree_4_3_u09_r13_network.client[16] 	hdistance[16] 	2.5636011127034
scalar tree_4_3_u09_r13_network.client[16] 	downloads[16] 	11863
scalar tree_4_3_u09_r13_network.client[16] 	avg_time[16] 	0.004024779945
scalar tree_4_3_u09_r13_network.client[17] 	hdistance[17] 	2.6358778625954
scalar tree_4_3_u09_r13_network.client[17] 	downloads[17] 	11790
scalar tree_4_3_u09_r13_network.client[17] 	avg_time[17] 	0.004159284589
scalar tree_4_3_u09_r13_network.client[18] 	hdistance[18] 	2.5692216782036
scalar tree_4_3_u09_r13_network.client[18] 	downloads[18] 	11846
scalar tree_4_3_u09_r13_network.client[18] 	avg_time[18] 	0.004042625284
scalar tree_4_3_u09_r13_network.client[19] 	hdistance[19] 	2.6185384744907
scalar tree_4_3_u09_r13_network.client[19] 	downloads[19] 	11878
scalar tree_4_3_u09_r13_network.client[19] 	avg_time[19] 	0.004070210865
scalar tree_4_3_u09_r13_network.client[20] 	hdistance[20] 	2.5569989174786
scalar tree_4_3_u09_r13_network.client[20] 	downloads[20] 	12009
scalar tree_4_3_u09_r13_network.client[20] 	avg_time[20] 	0.004010655691
scalar tree_4_3_u09_r13_network.client[21] 	hdistance[21] 	2.6443961917488
scalar tree_4_3_u09_r13_network.client[21] 	downloads[21] 	11974
scalar tree_4_3_u09_r13_network.client[21] 	avg_time[21] 	0.004137461534
scalar tree_4_3_u09_r13_network.client[22] 	hdistance[22] 	2.6666390316697
scalar tree_4_3_u09_r13_network.client[22] 	downloads[22] 	12062
scalar tree_4_3_u09_r13_network.client[22] 	avg_time[22] 	0.004187007416
scalar tree_4_3_u09_r13_network.client[23] 	hdistance[23] 	2.5992443324937
scalar tree_4_3_u09_r13_network.client[23] 	downloads[23] 	11910
scalar tree_4_3_u09_r13_network.client[23] 	avg_time[23] 	0.004060954203
scalar tree_4_3_u09_r13_network.client[24] 	hdistance[24] 	2.5688925756947
scalar tree_4_3_u09_r13_network.client[24] 	downloads[24] 	12055
scalar tree_4_3_u09_r13_network.client[24] 	avg_time[24] 	0.004026873795
scalar tree_4_3_u09_r13_network.client[25] 	hdistance[25] 	2.6086848429601
scalar tree_4_3_u09_r13_network.client[25] 	downloads[25] 	12067
scalar tree_4_3_u09_r13_network.client[25] 	avg_time[25] 	0.004075906467
scalar tree_4_3_u09_r13_network.client[26] 	hdistance[26] 	2.6586255492
scalar tree_4_3_u09_r13_network.client[26] 	downloads[26] 	12063
scalar tree_4_3_u09_r13_network.client[26] 	avg_time[26] 	0.004171472928
scalar tree_4_3_u09_r13_network.client[27] 	hdistance[27] 	2.5967952910399
scalar tree_4_3_u09_r13_network.client[27] 	downloads[27] 	12232
scalar tree_4_3_u09_r13_network.client[27] 	avg_time[27] 	0.004073633302
scalar tree_4_3_u09_r13_network.client[28] 	hdistance[28] 	2.6083270376899
scalar tree_4_3_u09_r13_network.client[28] 	downloads[28] 	11913
scalar tree_4_3_u09_r13_network.client[28] 	avg_time[28] 	0.004087268018
scalar tree_4_3_u09_r13_network.client[29] 	hdistance[29] 	2.5830379746835
scalar tree_4_3_u09_r13_network.client[29] 	downloads[29] 	11850
scalar tree_4_3_u09_r13_network.client[29] 	avg_time[29] 	0.004055861999
scalar tree_4_3_u09_r13_network.client[30] 	hdistance[30] 	2.6304329550231
scalar tree_4_3_u09_r13_network.client[30] 	downloads[30] 	11895
scalar tree_4_3_u09_r13_network.client[30] 	avg_time[30] 	0.004148294627
scalar tree_4_3_u09_r13_network.client[31] 	hdistance[31] 	2.6106179869369
scalar tree_4_3_u09_r13_network.client[31] 	downloads[31] 	11942
scalar tree_4_3_u09_r13_network.client[31] 	avg_time[31] 	0.004116115175
scalar tree_4_3_u09_r13_network.client[32] 	hdistance[32] 	2.5811035399701
scalar tree_4_3_u09_r13_network.client[32] 	downloads[32] 	12034
scalar tree_4_3_u09_r13_network.client[32] 	avg_time[32] 	0.004054841618
scalar tree_4_3_u09_r13_network.client[33] 	hdistance[33] 	2.5915197313182
scalar tree_4_3_u09_r13_network.client[33] 	downloads[33] 	11910
scalar tree_4_3_u09_r13_network.client[33] 	avg_time[33] 	0.004060114582
scalar tree_4_3_u09_r13_network.client[34] 	hdistance[34] 	2.5904135807606
scalar tree_4_3_u09_r13_network.client[34] 	downloads[34] 	12017
scalar tree_4_3_u09_r13_network.client[34] 	avg_time[34] 	0.004076721633
scalar tree_4_3_u09_r13_network.client[35] 	hdistance[35] 	2.633290978399
scalar tree_4_3_u09_r13_network.client[35] 	downloads[35] 	11805
scalar tree_4_3_u09_r13_network.client[35] 	avg_time[35] 	0.004153660749
scalar tree_4_3_u09_r13_network.client[36] 	hdistance[36] 	2.5678731122922
scalar tree_4_3_u09_r13_network.client[36] 	downloads[36] 	11853
scalar tree_4_3_u09_r13_network.client[36] 	avg_time[36] 	0.004021594954
scalar tree_4_3_u09_r13_network.client[37] 	hdistance[37] 	2.5846166792897
scalar tree_4_3_u09_r13_network.client[37] 	downloads[37] 	11883
scalar tree_4_3_u09_r13_network.client[37] 	avg_time[37] 	0.004054192081
scalar tree_4_3_u09_r13_network.client[38] 	hdistance[38] 	2.5880812049771
scalar tree_4_3_u09_r13_network.client[38] 	downloads[38] 	12216
scalar tree_4_3_u09_r13_network.client[38] 	avg_time[38] 	0.004052387227
scalar tree_4_3_u09_r13_network.client[39] 	hdistance[39] 	2.6505767814775
scalar tree_4_3_u09_r13_network.client[39] 	downloads[39] 	12223
scalar tree_4_3_u09_r13_network.client[39] 	avg_time[39] 	0.004133396122
