version 2
run General-112-20160819-12:34:10-2054
attr a 0.9
attr cd lcd
attr configname General
attr cr lru
attr datetime 20160819-12:34:10
attr experiment General
attr fsize 1
attr inifile hw5115/scenario_A/NRR-LCD.ini
attr iterationvars "$name=tree_4_3, $un=05, $rep=13, $cd=lcd, $cr=lru, $fsize=1, $a=0.9, $sl=nrr, $ttl=1000, $variance=0.05"
attr iterationvars2 "$name=tree_4_3, $un=05, $rep=13, $cd=lcd, $cr=lru, $fsize=1, $a=0.9, $sl=nrr, $ttl=1000, $variance=0.05, $repetition=0"
attr measurement "$name=tree_4_3, $un=05, $rep=13, $cd=lcd, $cr=lru, $fsize=1, $a=0.9, $sl=nrr, $ttl=1000, $variance=0.05"
attr name tree_4_3
attr network networks.${name}_u${un}_r${rep}_network
attr processid 2054
attr rep 13
attr repetition 0
attr replication #0
attr resultdir results
attr runnumber 112
attr seedset 13
attr sl nrr
attr ttl 1000
attr un 05
attr variance 0.05

scalar . 	a 	0.9
scalar . 	fsize 	1
scalar . 	rep 	13
scalar . 	ttl 	1000
scalar . 	un 	05
scalar . 	variance 	0.05
scalar tree_4_3_u05_r13_network.content_distribution 	repo-0 	0
scalar tree_4_3_u05_r13_network.content_distribution 	client-0 	13
scalar tree_4_3_u05_r13_network.content_distribution 	client-1 	14
scalar tree_4_3_u05_r13_network.content_distribution 	client-2 	15
scalar tree_4_3_u05_r13_network.content_distribution 	client-3 	16
scalar tree_4_3_u05_r13_network.content_distribution 	client-4 	17
scalar tree_4_3_u05_r13_network.content_distribution 	client-5 	18
scalar tree_4_3_u05_r13_network.content_distribution 	client-6 	19
scalar tree_4_3_u05_r13_network.content_distribution 	client-7 	20
scalar tree_4_3_u05_r13_network.content_distribution 	client-8 	21
scalar tree_4_3_u05_r13_network.content_distribution 	client-9 	22
scalar tree_4_3_u05_r13_network.content_distribution 	client-10 	23
scalar tree_4_3_u05_r13_network.content_distribution 	client-11 	24
scalar tree_4_3_u05_r13_network.content_distribution 	client-12 	25
scalar tree_4_3_u05_r13_network.content_distribution 	client-13 	26
scalar tree_4_3_u05_r13_network.content_distribution 	client-14 	27
scalar tree_4_3_u05_r13_network.content_distribution 	client-15 	28
scalar tree_4_3_u05_r13_network.content_distribution 	client-16 	29
scalar tree_4_3_u05_r13_network.content_distribution 	client-17 	30
scalar tree_4_3_u05_r13_network.content_distribution 	client-18 	31
scalar tree_4_3_u05_r13_network.content_distribution 	client-19 	32
scalar tree_4_3_u05_r13_network.content_distribution 	client-20 	33
scalar tree_4_3_u05_r13_network.content_distribution 	client-21 	34
scalar tree_4_3_u05_r13_network.content_distribution 	client-22 	35
scalar tree_4_3_u05_r13_network.content_distribution 	client-23 	36
scalar tree_4_3_u05_r13_network.content_distribution 	client-24 	37
scalar tree_4_3_u05_r13_network.content_distribution 	client-25 	38
scalar tree_4_3_u05_r13_network.content_distribution 	client-26 	39
scalar tree_4_3_u05_r13_network.content_distribution 	repo-0_card 	100000
scalar tree_4_3_u05_r13_network.content_distribution 	repo-0_price 	0
scalar tree_4_3_u05_r13_network.statistics 	stabilization_time 	652.5
scalar tree_4_3_u05_r13_network.statistics 	p_hit 	0.21738276314842
scalar tree_4_3_u05_r13_network.statistics 	interests 	24888.65
scalar tree_4_3_u05_r13_network.statistics 	data 	16795.675
scalar tree_4_3_u05_r13_network.statistics 	hdistance 	2.6916663006223
scalar tree_4_3_u05_r13_network.statistics 	avg_time 	0.004150655889
scalar tree_4_3_u05_r13_network.statistics 	downloads 	323715
scalar tree_4_3_u05_r13_network.statistics 	total_cost 	0
scalar tree_4_3_u05_r13_network.statistics 	total_replicas 	100000
scalar tree_4_3_u05_r13_network.statistics 	inner_hit 	0.38366155414485
scalar tree_4_3_u05_r13_network.node[0].core_layer 	interests[0] 	200771
scalar tree_4_3_u05_r13_network.node[0].core_layer 	repo_load[0] 	199518
scalar tree_4_3_u05_r13_network.node[0].core_layer 	data[0] 	0
scalar tree_4_3_u05_r13_network.node[0].core_layer 	repo_int[0] 	199518
scalar tree_4_3_u05_r13_network.node[0].content_store 	p_hit[0] 	0.0062409411717828
scalar tree_4_3_u05_r13_network.node[0].content_store 	hits[0] 	1253
scalar tree_4_3_u05_r13_network.node[0].content_store 	misses[0] 	199518
scalar tree_4_3_u05_r13_network.node[0].content_store 	decision_yes[0] 	199518
scalar tree_4_3_u05_r13_network.node[0].content_store 	decision_no[0] 	0
scalar tree_4_3_u05_r13_network.node[0].content_store 	decision_ratio[0] 	1
scalar tree_4_3_u05_r13_network.node[1].core_layer 	interests[1] 	99982
scalar tree_4_3_u05_r13_network.node[1].core_layer 	data[1] 	98030
scalar tree_4_3_u05_r13_network.node[1].content_store 	p_hit[1] 	0.019523514232562
scalar tree_4_3_u05_r13_network.node[1].content_store 	hits[1] 	1952
scalar tree_4_3_u05_r13_network.node[1].content_store 	misses[1] 	98030
scalar tree_4_3_u05_r13_network.node[1].content_store 	decision_yes[1] 	1960
scalar tree_4_3_u05_r13_network.node[1].content_store 	decision_no[1] 	96070
scalar tree_4_3_u05_r13_network.node[1].content_store 	decision_ratio[1] 	0.019993879424666
scalar tree_4_3_u05_r13_network.node[2].core_layer 	interests[2] 	71045
scalar tree_4_3_u05_r13_network.node[2].core_layer 	data[2] 	69087
scalar tree_4_3_u05_r13_network.node[2].content_store 	p_hit[2] 	0.027545921598987
scalar tree_4_3_u05_r13_network.node[2].content_store 	hits[2] 	1957
scalar tree_4_3_u05_r13_network.node[2].content_store 	misses[2] 	69088
scalar tree_4_3_u05_r13_network.node[2].content_store 	decision_yes[2] 	1970
scalar tree_4_3_u05_r13_network.node[2].content_store 	decision_no[2] 	67117
scalar tree_4_3_u05_r13_network.node[2].content_store 	decision_ratio[2] 	0.028514771230478
scalar tree_4_3_u05_r13_network.node[3].core_layer 	interests[3] 	43950
scalar tree_4_3_u05_r13_network.node[3].core_layer 	data[3] 	40881
scalar tree_4_3_u05_r13_network.node[3].content_store 	p_hit[3] 	0.069829351535836
scalar tree_4_3_u05_r13_network.node[3].content_store 	hits[3] 	3069
scalar tree_4_3_u05_r13_network.node[3].content_store 	misses[3] 	40881
scalar tree_4_3_u05_r13_network.node[3].content_store 	decision_yes[3] 	2912
scalar tree_4_3_u05_r13_network.node[3].content_store 	decision_no[3] 	37969
scalar tree_4_3_u05_r13_network.node[3].content_store 	decision_ratio[3] 	0.071231134267753
scalar tree_4_3_u05_r13_network.node[4].core_layer 	interests[4] 	34231
scalar tree_4_3_u05_r13_network.node[4].core_layer 	data[4] 	32532
scalar tree_4_3_u05_r13_network.node[4].content_store 	p_hit[4] 	0.049633373258158
scalar tree_4_3_u05_r13_network.node[4].content_store 	hits[4] 	1699
scalar tree_4_3_u05_r13_network.node[4].content_store 	misses[4] 	32532
scalar tree_4_3_u05_r13_network.node[4].content_store 	decision_yes[4] 	1708
scalar tree_4_3_u05_r13_network.node[4].content_store 	decision_no[4] 	30824
scalar tree_4_3_u05_r13_network.node[4].content_store 	decision_ratio[4] 	0.05250215172753
scalar tree_4_3_u05_r13_network.node[5].core_layer 	interests[5] 	27503
scalar tree_4_3_u05_r13_network.node[5].core_layer 	data[5] 	25077
scalar tree_4_3_u05_r13_network.node[5].content_store 	p_hit[5] 	0.088172199396429
scalar tree_4_3_u05_r13_network.node[5].content_store 	hits[5] 	2425
scalar tree_4_3_u05_r13_network.node[5].content_store 	misses[5] 	25078
scalar tree_4_3_u05_r13_network.node[5].content_store 	decision_yes[5] 	2457
scalar tree_4_3_u05_r13_network.node[5].content_store 	decision_no[5] 	22620
scalar tree_4_3_u05_r13_network.node[5].content_store 	decision_ratio[5] 	0.097978227060653
scalar tree_4_3_u05_r13_network.node[6].core_layer 	interests[6] 	20489
scalar tree_4_3_u05_r13_network.node[6].core_layer 	data[6] 	18073
scalar tree_4_3_u05_r13_network.node[6].content_store 	p_hit[6] 	0.11791693103617
scalar tree_4_3_u05_r13_network.node[6].content_store 	hits[6] 	2416
scalar tree_4_3_u05_r13_network.node[6].content_store 	misses[6] 	18073
scalar tree_4_3_u05_r13_network.node[6].content_store 	decision_yes[6] 	2426
scalar tree_4_3_u05_r13_network.node[6].content_store 	decision_no[6] 	15647
scalar tree_4_3_u05_r13_network.node[6].content_store 	decision_ratio[6] 	0.13423338682012
scalar tree_4_3_u05_r13_network.node[7].core_layer 	interests[7] 	43023
scalar tree_4_3_u05_r13_network.node[7].core_layer 	data[7] 	40815
scalar tree_4_3_u05_r13_network.node[7].content_store 	p_hit[7] 	0.05132138623527
scalar tree_4_3_u05_r13_network.node[7].content_store 	hits[7] 	2208
scalar tree_4_3_u05_r13_network.node[7].content_store 	misses[7] 	40815
scalar tree_4_3_u05_r13_network.node[7].content_store 	decision_yes[7] 	2567
scalar tree_4_3_u05_r13_network.node[7].content_store 	decision_no[7] 	38248
scalar tree_4_3_u05_r13_network.node[7].content_store 	decision_ratio[7] 	0.062893544040181
scalar tree_4_3_u05_r13_network.node[8].core_layer 	interests[8] 	17547
scalar tree_4_3_u05_r13_network.node[8].core_layer 	data[8] 	16198
scalar tree_4_3_u05_r13_network.node[8].content_store 	p_hit[8] 	0.076879238616288
scalar tree_4_3_u05_r13_network.node[8].content_store 	hits[8] 	1349
scalar tree_4_3_u05_r13_network.node[8].content_store 	misses[8] 	16198
scalar tree_4_3_u05_r13_network.node[8].content_store 	decision_yes[8] 	802
scalar tree_4_3_u05_r13_network.node[8].content_store 	decision_no[8] 	15396
scalar tree_4_3_u05_r13_network.node[8].content_store 	decision_ratio[8] 	0.049512285467342
scalar tree_4_3_u05_r13_network.node[9].core_layer 	interests[9] 	20776
scalar tree_4_3_u05_r13_network.node[9].core_layer 	data[9] 	18078
scalar tree_4_3_u05_r13_network.node[9].content_store 	p_hit[9] 	0.12986137851367
scalar tree_4_3_u05_r13_network.node[9].content_store 	hits[9] 	2698
scalar tree_4_3_u05_r13_network.node[9].content_store 	misses[9] 	18078
scalar tree_4_3_u05_r13_network.node[9].content_store 	decision_yes[9] 	2468
scalar tree_4_3_u05_r13_network.node[9].content_store 	decision_no[9] 	15610
scalar tree_4_3_u05_r13_network.node[9].content_store 	decision_ratio[9] 	0.13651952649629
scalar tree_4_3_u05_r13_network.node[10].core_layer 	interests[10] 	35496
scalar tree_4_3_u05_r13_network.node[10].core_layer 	data[10] 	33001
scalar tree_4_3_u05_r13_network.node[10].content_store 	p_hit[10] 	0.070261437908497
scalar tree_4_3_u05_r13_network.node[10].content_store 	hits[10] 	2494
scalar tree_4_3_u05_r13_network.node[10].content_store 	misses[10] 	33002
scalar tree_4_3_u05_r13_network.node[10].content_store 	decision_yes[10] 	2718
scalar tree_4_3_u05_r13_network.node[10].content_store 	decision_no[10] 	30283
scalar tree_4_3_u05_r13_network.node[10].content_store 	decision_ratio[10] 	0.082361140571498
scalar tree_4_3_u05_r13_network.node[11].core_layer 	interests[11] 	19005
scalar tree_4_3_u05_r13_network.node[11].core_layer 	data[11] 	17051
scalar tree_4_3_u05_r13_network.node[11].content_store 	p_hit[11] 	0.1028150486714
scalar tree_4_3_u05_r13_network.node[11].content_store 	hits[11] 	1954
scalar tree_4_3_u05_r13_network.node[11].content_store 	misses[11] 	17051
scalar tree_4_3_u05_r13_network.node[11].content_store 	decision_yes[11] 	1454
scalar tree_4_3_u05_r13_network.node[11].content_store 	decision_no[11] 	15597
scalar tree_4_3_u05_r13_network.node[11].content_store 	decision_ratio[11] 	0.085273590991731
scalar tree_4_3_u05_r13_network.node[12].core_layer 	interests[12] 	26923
scalar tree_4_3_u05_r13_network.node[12].core_layer 	data[12] 	25239
scalar tree_4_3_u05_r13_network.node[12].content_store 	p_hit[12] 	0.062548750139286
scalar tree_4_3_u05_r13_network.node[12].content_store 	hits[12] 	1684
scalar tree_4_3_u05_r13_network.node[12].content_store 	misses[12] 	25239
scalar tree_4_3_u05_r13_network.node[12].content_store 	decision_yes[12] 	1465
scalar tree_4_3_u05_r13_network.node[12].content_store 	decision_no[12] 	23774
scalar tree_4_3_u05_r13_network.node[12].content_store 	decision_ratio[12] 	0.058045088949641
scalar tree_4_3_u05_r13_network.node[13].core_layer 	interests[13] 	12372
scalar tree_4_3_u05_r13_network.node[13].core_layer 	data[13] 	8919
scalar tree_4_3_u05_r13_network.node[13].content_store 	p_hit[13] 	0.27909796314258
scalar tree_4_3_u05_r13_network.node[13].content_store 	hits[13] 	3453
scalar tree_4_3_u05_r13_network.node[13].content_store 	misses[13] 	8919
scalar tree_4_3_u05_r13_network.node[13].content_store 	decision_yes[13] 	386
scalar tree_4_3_u05_r13_network.node[13].content_store 	decision_no[13] 	8533
scalar tree_4_3_u05_r13_network.node[13].content_store 	decision_ratio[13] 	0.043278394438838
scalar tree_4_3_u05_r13_network.node[14].core_layer 	interests[14] 	12340
scalar tree_4_3_u05_r13_network.node[14].core_layer 	data[14] 	8840
scalar tree_4_3_u05_r13_network.node[14].content_store 	p_hit[14] 	0.28363047001621
scalar tree_4_3_u05_r13_network.node[14].content_store 	hits[14] 	3500
scalar tree_4_3_u05_r13_network.node[14].content_store 	misses[14] 	8840
scalar tree_4_3_u05_r13_network.node[14].content_store 	decision_yes[14] 	358
scalar tree_4_3_u05_r13_network.node[14].content_store 	decision_no[14] 	8482
scalar tree_4_3_u05_r13_network.node[14].content_store 	decision_ratio[14] 	0.040497737556561
scalar tree_4_3_u05_r13_network.node[15].core_layer 	interests[15] 	12834
scalar tree_4_3_u05_r13_network.node[15].core_layer 	data[15] 	8948
scalar tree_4_3_u05_r13_network.node[15].content_store 	p_hit[15] 	0.30278946548231
scalar tree_4_3_u05_r13_network.node[15].content_store 	hits[15] 	3886
scalar tree_4_3_u05_r13_network.node[15].content_store 	misses[15] 	8948
scalar tree_4_3_u05_r13_network.node[15].content_store 	decision_yes[15] 	752
scalar tree_4_3_u05_r13_network.node[15].content_store 	decision_no[15] 	8196
scalar tree_4_3_u05_r13_network.node[15].content_store 	decision_ratio[15] 	0.084041126508717
scalar tree_4_3_u05_r13_network.node[16].core_layer 	interests[16] 	12677
scalar tree_4_3_u05_r13_network.node[16].core_layer 	data[16] 	8858
scalar tree_4_3_u05_r13_network.node[16].content_store 	p_hit[16] 	0.30125423996214
scalar tree_4_3_u05_r13_network.node[16].content_store 	hits[16] 	3819
scalar tree_4_3_u05_r13_network.node[16].content_store 	misses[16] 	8858
scalar tree_4_3_u05_r13_network.node[16].content_store 	decision_yes[16] 	736
scalar tree_4_3_u05_r13_network.node[16].content_store 	decision_no[16] 	8122
scalar tree_4_3_u05_r13_network.node[16].content_store 	decision_ratio[16] 	0.083088733348386
scalar tree_4_3_u05_r13_network.node[17].core_layer 	interests[17] 	12222
scalar tree_4_3_u05_r13_network.node[17].core_layer 	data[17] 	8655
scalar tree_4_3_u05_r13_network.node[17].content_store 	p_hit[17] 	0.29176894125348
scalar tree_4_3_u05_r13_network.node[17].content_store 	hits[17] 	3566
scalar tree_4_3_u05_r13_network.node[17].content_store 	misses[17] 	8656
scalar tree_4_3_u05_r13_network.node[17].content_store 	decision_yes[17] 	412
scalar tree_4_3_u05_r13_network.node[17].content_store 	decision_no[17] 	8243
scalar tree_4_3_u05_r13_network.node[17].content_store 	decision_ratio[17] 	0.047602541883304
scalar tree_4_3_u05_r13_network.node[18].core_layer 	interests[18] 	12117
scalar tree_4_3_u05_r13_network.node[18].core_layer 	data[18] 	8595
scalar tree_4_3_u05_r13_network.node[18].content_store 	p_hit[18] 	0.29058347775852
scalar tree_4_3_u05_r13_network.node[18].content_store 	hits[18] 	3521
scalar tree_4_3_u05_r13_network.node[18].content_store 	misses[18] 	8596
scalar tree_4_3_u05_r13_network.node[18].content_store 	decision_yes[18] 	404
scalar tree_4_3_u05_r13_network.node[18].content_store 	decision_no[18] 	8191
scalar tree_4_3_u05_r13_network.node[18].content_store 	decision_ratio[18] 	0.047004072134962
scalar tree_4_3_u05_r13_network.node[19].core_layer 	interests[19] 	12370
scalar tree_4_3_u05_r13_network.node[19].core_layer 	data[19] 	8900
scalar tree_4_3_u05_r13_network.node[19].content_store 	p_hit[19] 	0.2805173807599
scalar tree_4_3_u05_r13_network.node[19].content_store 	hits[19] 	3470
scalar tree_4_3_u05_r13_network.node[19].content_store 	misses[19] 	8900
scalar tree_4_3_u05_r13_network.node[19].content_store 	decision_yes[19] 	398
scalar tree_4_3_u05_r13_network.node[19].content_store 	decision_no[19] 	8502
scalar tree_4_3_u05_r13_network.node[19].content_store 	decision_ratio[19] 	0.044719101123596
scalar tree_4_3_u05_r13_network.node[20].core_layer 	interests[20] 	12854
scalar tree_4_3_u05_r13_network.node[20].core_layer 	data[20] 	8941
scalar tree_4_3_u05_r13_network.node[20].content_store 	p_hit[20] 	0.30434106114828
scalar tree_4_3_u05_r13_network.node[20].content_store 	hits[20] 	3912
scalar tree_4_3_u05_r13_network.node[20].content_store 	misses[20] 	8942
scalar tree_4_3_u05_r13_network.node[20].content_store 	decision_yes[20] 	691
scalar tree_4_3_u05_r13_network.node[20].content_store 	decision_no[20] 	8250
scalar tree_4_3_u05_r13_network.node[20].content_store 	decision_ratio[20] 	0.077284420087239
scalar tree_4_3_u05_r13_network.node[21].core_layer 	interests[21] 	12381
scalar tree_4_3_u05_r13_network.node[21].core_layer 	data[21] 	8847
scalar tree_4_3_u05_r13_network.node[21].content_store 	p_hit[21] 	0.28543736370245
scalar tree_4_3_u05_r13_network.node[21].content_store 	hits[21] 	3534
scalar tree_4_3_u05_r13_network.node[21].content_store 	misses[21] 	8847
scalar tree_4_3_u05_r13_network.node[21].content_store 	decision_yes[21] 	376
scalar tree_4_3_u05_r13_network.node[21].content_store 	decision_no[21] 	8471
scalar tree_4_3_u05_r13_network.node[21].content_store 	decision_ratio[21] 	0.042500282581666
scalar tree_4_3_u05_r13_network.node[22].core_layer 	interests[22] 	12187
scalar tree_4_3_u05_r13_network.node[22].core_layer 	data[22] 	8503
scalar tree_4_3_u05_r13_network.node[22].content_store 	p_hit[22] 	0.30228932469024
scalar tree_4_3_u05_r13_network.node[22].content_store 	hits[22] 	3684
scalar tree_4_3_u05_r13_network.node[22].content_store 	misses[22] 	8503
scalar tree_4_3_u05_r13_network.node[22].content_store 	decision_yes[22] 	407
scalar tree_4_3_u05_r13_network.node[22].content_store 	decision_no[22] 	8096
scalar tree_4_3_u05_r13_network.node[22].content_store 	decision_ratio[22] 	0.047865459249677
scalar tree_4_3_u05_r13_network.node[23].core_layer 	interests[23] 	12263
scalar tree_4_3_u05_r13_network.node[23].core_layer 	data[23] 	8801
scalar tree_4_3_u05_r13_network.node[23].content_store 	p_hit[23] 	0.282231101688
scalar tree_4_3_u05_r13_network.node[23].content_store 	hits[23] 	3461
scalar tree_4_3_u05_r13_network.node[23].content_store 	misses[23] 	8802
scalar tree_4_3_u05_r13_network.node[23].content_store 	decision_yes[23] 	399
scalar tree_4_3_u05_r13_network.node[23].content_store 	decision_no[23] 	8402
scalar tree_4_3_u05_r13_network.node[23].content_store 	decision_ratio[23] 	0.045335757300307
scalar tree_4_3_u05_r13_network.node[24].core_layer 	interests[24] 	12383
scalar tree_4_3_u05_r13_network.node[24].core_layer 	data[24] 	8833
scalar tree_4_3_u05_r13_network.node[24].content_store 	p_hit[24] 	0.28668335621416
scalar tree_4_3_u05_r13_network.node[24].content_store 	hits[24] 	3550
scalar tree_4_3_u05_r13_network.node[24].content_store 	misses[24] 	8833
scalar tree_4_3_u05_r13_network.node[24].content_store 	decision_yes[24] 	409
scalar tree_4_3_u05_r13_network.node[24].content_store 	decision_no[24] 	8424
scalar tree_4_3_u05_r13_network.node[24].content_store 	decision_ratio[24] 	0.0463036340994
scalar tree_4_3_u05_r13_network.node[25].core_layer 	interests[25] 	12521
scalar tree_4_3_u05_r13_network.node[25].core_layer 	data[25] 	8895
scalar tree_4_3_u05_r13_network.node[25].content_store 	p_hit[25] 	0.28959348294865
scalar tree_4_3_u05_r13_network.node[25].content_store 	hits[25] 	3626
scalar tree_4_3_u05_r13_network.node[25].content_store 	misses[25] 	8895
scalar tree_4_3_u05_r13_network.node[25].content_store 	decision_yes[25] 	712
scalar tree_4_3_u05_r13_network.node[25].content_store 	decision_no[25] 	8183
scalar tree_4_3_u05_r13_network.node[25].content_store 	decision_ratio[25] 	0.080044969083755
scalar tree_4_3_u05_r13_network.node[26].core_layer 	interests[26] 	12116
scalar tree_4_3_u05_r13_network.node[26].core_layer 	data[26] 	8786
scalar tree_4_3_u05_r13_network.node[26].content_store 	p_hit[26] 	0.2748431825685
scalar tree_4_3_u05_r13_network.node[26].content_store 	hits[26] 	3330
scalar tree_4_3_u05_r13_network.node[26].content_store 	misses[26] 	8786
scalar tree_4_3_u05_r13_network.node[26].content_store 	decision_yes[26] 	352
scalar tree_4_3_u05_r13_network.node[26].content_store 	decision_no[26] 	8434
scalar tree_4_3_u05_r13_network.node[26].content_store 	decision_ratio[26] 	0.040063737764626
scalar tree_4_3_u05_r13_network.node[27].core_layer 	interests[27] 	12712
scalar tree_4_3_u05_r13_network.node[27].core_layer 	data[27] 	8868
scalar tree_4_3_u05_r13_network.node[27].content_store 	p_hit[27] 	0.30239144115796
scalar tree_4_3_u05_r13_network.node[27].content_store 	hits[27] 	3844
scalar tree_4_3_u05_r13_network.node[27].content_store 	misses[27] 	8868
scalar tree_4_3_u05_r13_network.node[27].content_store 	decision_yes[27] 	699
scalar tree_4_3_u05_r13_network.node[27].content_store 	decision_no[27] 	8169
scalar tree_4_3_u05_r13_network.node[27].content_store 	decision_ratio[27] 	0.078822733423545
scalar tree_4_3_u05_r13_network.node[28].core_layer 	interests[28] 	12686
scalar tree_4_3_u05_r13_network.node[28].core_layer 	data[28] 	8791
scalar tree_4_3_u05_r13_network.node[28].content_store 	p_hit[28] 	0.30703137316727
scalar tree_4_3_u05_r13_network.node[28].content_store 	hits[28] 	3895
scalar tree_4_3_u05_r13_network.node[28].content_store 	misses[28] 	8791
scalar tree_4_3_u05_r13_network.node[28].content_store 	decision_yes[28] 	711
scalar tree_4_3_u05_r13_network.node[28].content_store 	decision_no[28] 	8080
scalar tree_4_3_u05_r13_network.node[28].content_store 	decision_ratio[28] 	0.080878170856558
scalar tree_4_3_u05_r13_network.node[29].core_layer 	interests[29] 	12370
scalar tree_4_3_u05_r13_network.node[29].core_layer 	data[29] 	8834
scalar tree_4_3_u05_r13_network.node[29].content_store 	p_hit[29] 	0.2858528698464
scalar tree_4_3_u05_r13_network.node[29].content_store 	hits[29] 	3536
scalar tree_4_3_u05_r13_network.node[29].content_store 	misses[29] 	8834
scalar tree_4_3_u05_r13_network.node[29].content_store 	decision_yes[29] 	433
scalar tree_4_3_u05_r13_network.node[29].content_store 	decision_no[29] 	8401
scalar tree_4_3_u05_r13_network.node[29].content_store 	decision_ratio[29] 	0.049015168666516
scalar tree_4_3_u05_r13_network.node[30].core_layer 	interests[30] 	12431
scalar tree_4_3_u05_r13_network.node[30].core_layer 	data[30] 	8825
scalar tree_4_3_u05_r13_network.node[30].content_store 	p_hit[30] 	0.29008124849167
scalar tree_4_3_u05_r13_network.node[30].content_store 	hits[30] 	3606
scalar tree_4_3_u05_r13_network.node[30].content_store 	misses[30] 	8825
scalar tree_4_3_u05_r13_network.node[30].content_store 	decision_yes[30] 	419
scalar tree_4_3_u05_r13_network.node[30].content_store 	decision_no[30] 	8406
scalar tree_4_3_u05_r13_network.node[30].content_store 	decision_ratio[30] 	0.047478753541076
scalar tree_4_3_u05_r13_network.node[31].core_layer 	interests[31] 	12192
scalar tree_4_3_u05_r13_network.node[31].core_layer 	data[31] 	8708
scalar tree_4_3_u05_r13_network.node[31].content_store 	p_hit[31] 	0.28576115485564
scalar tree_4_3_u05_r13_network.node[31].content_store 	hits[31] 	3484
scalar tree_4_3_u05_r13_network.node[31].content_store 	misses[31] 	8708
scalar tree_4_3_u05_r13_network.node[31].content_store 	decision_yes[31] 	406
scalar tree_4_3_u05_r13_network.node[31].content_store 	decision_no[31] 	8302
scalar tree_4_3_u05_r13_network.node[31].content_store 	decision_ratio[31] 	0.046623794212219
scalar tree_4_3_u05_r13_network.node[32].core_layer 	interests[32] 	12499
scalar tree_4_3_u05_r13_network.node[32].core_layer 	data[32] 	8793
scalar tree_4_3_u05_r13_network.node[32].content_store 	p_hit[32] 	0.29650372029762
scalar tree_4_3_u05_r13_network.node[32].content_store 	hits[32] 	3706
scalar tree_4_3_u05_r13_network.node[32].content_store 	misses[32] 	8793
scalar tree_4_3_u05_r13_network.node[32].content_store 	decision_yes[32] 	753
scalar tree_4_3_u05_r13_network.node[32].content_store 	decision_no[32] 	8040
scalar tree_4_3_u05_r13_network.node[32].content_store 	decision_ratio[32] 	0.085636301603548
scalar tree_4_3_u05_r13_network.node[33].core_layer 	interests[33] 	12502
scalar tree_4_3_u05_r13_network.node[33].core_layer 	data[33] 	8937
scalar tree_4_3_u05_r13_network.node[33].content_store 	p_hit[33] 	0.2850743880979
scalar tree_4_3_u05_r13_network.node[33].content_store 	hits[33] 	3564
scalar tree_4_3_u05_r13_network.node[33].content_store 	misses[33] 	8938
scalar tree_4_3_u05_r13_network.node[33].content_store 	decision_yes[33] 	407
scalar tree_4_3_u05_r13_network.node[33].content_store 	decision_no[33] 	8530
scalar tree_4_3_u05_r13_network.node[33].content_store 	decision_ratio[33] 	0.045541009287233
scalar tree_4_3_u05_r13_network.node[34].core_layer 	interests[34] 	12486
scalar tree_4_3_u05_r13_network.node[34].core_layer 	data[34] 	8815
scalar tree_4_3_u05_r13_network.node[34].content_store 	p_hit[34] 	0.29400929040525
scalar tree_4_3_u05_r13_network.node[34].content_store 	hits[34] 	3671
scalar tree_4_3_u05_r13_network.node[34].content_store 	misses[34] 	8815
scalar tree_4_3_u05_r13_network.node[34].content_store 	decision_yes[34] 	743
scalar tree_4_3_u05_r13_network.node[34].content_store 	decision_no[34] 	8072
scalar tree_4_3_u05_r13_network.node[34].content_store 	decision_ratio[34] 	0.084288145207033
scalar tree_4_3_u05_r13_network.node[35].core_layer 	interests[35] 	12313
scalar tree_4_3_u05_r13_network.node[35].core_layer 	data[35] 	8788
scalar tree_4_3_u05_r13_network.node[35].content_store 	p_hit[35] 	0.28644522049866
scalar tree_4_3_u05_r13_network.node[35].content_store 	hits[35] 	3527
scalar tree_4_3_u05_r13_network.node[35].content_store 	misses[35] 	8786
scalar tree_4_3_u05_r13_network.node[35].content_store 	decision_yes[35] 	394
scalar tree_4_3_u05_r13_network.node[35].content_store 	decision_no[35] 	8394
scalar tree_4_3_u05_r13_network.node[35].content_store 	decision_ratio[35] 	0.044833864360492
scalar tree_4_3_u05_r13_network.node[36].core_layer 	interests[36] 	12182
scalar tree_4_3_u05_r13_network.node[36].core_layer 	data[36] 	8693
scalar tree_4_3_u05_r13_network.node[36].content_store 	p_hit[36] 	0.28640617304219
scalar tree_4_3_u05_r13_network.node[36].content_store 	hits[36] 	3489
scalar tree_4_3_u05_r13_network.node[36].content_store 	misses[36] 	8693
scalar tree_4_3_u05_r13_network.node[36].content_store 	decision_yes[36] 	346
scalar tree_4_3_u05_r13_network.node[36].content_store 	decision_no[36] 	8347
scalar tree_4_3_u05_r13_network.node[36].content_store 	decision_ratio[36] 	0.039802139652594
scalar tree_4_3_u05_r13_network.node[37].core_layer 	interests[37] 	12061
scalar tree_4_3_u05_r13_network.node[37].core_layer 	data[37] 	8659
scalar tree_4_3_u05_r13_network.node[37].content_store 	p_hit[37] 	0.28206616366802
scalar tree_4_3_u05_r13_network.node[37].content_store 	hits[37] 	3402
scalar tree_4_3_u05_r13_network.node[37].content_store 	misses[37] 	8659
scalar tree_4_3_u05_r13_network.node[37].content_store 	decision_yes[37] 	425
scalar tree_4_3_u05_r13_network.node[37].content_store 	decision_no[37] 	8234
scalar tree_4_3_u05_r13_network.node[37].content_store 	decision_ratio[37] 	0.049081880124726
scalar tree_4_3_u05_r13_network.node[38].core_layer 	interests[38] 	12330
scalar tree_4_3_u05_r13_network.node[38].core_layer 	data[38] 	8894
scalar tree_4_3_u05_r13_network.node[38].content_store 	p_hit[38] 	0.2786699107867
scalar tree_4_3_u05_r13_network.node[38].content_store 	hits[38] 	3436
scalar tree_4_3_u05_r13_network.node[38].content_store 	misses[38] 	8894
scalar tree_4_3_u05_r13_network.node[38].content_store 	decision_yes[38] 	413
scalar tree_4_3_u05_r13_network.node[38].content_store 	decision_no[38] 	8481
scalar tree_4_3_u05_r13_network.node[38].content_store 	decision_ratio[38] 	0.046435799415336
scalar tree_4_3_u05_r13_network.node[39].core_layer 	interests[39] 	12404
scalar tree_4_3_u05_r13_network.node[39].core_layer 	data[39] 	8839
scalar tree_4_3_u05_r13_network.node[39].content_store 	p_hit[39] 	0.28740728797162
scalar tree_4_3_u05_r13_network.node[39].content_store 	hits[39] 	3565
scalar tree_4_3_u05_r13_network.node[39].content_store 	misses[39] 	8839
scalar tree_4_3_u05_r13_network.node[39].content_store 	decision_yes[39] 	397
scalar tree_4_3_u05_r13_network.node[39].content_store 	decision_no[39] 	8442
scalar tree_4_3_u05_r13_network.node[39].content_store 	decision_ratio[39] 	0.044914583097635
scalar tree_4_3_u05_r13_network.client[13] 	hdistance[13] 	2.7331025387405
scalar tree_4_3_u05_r13_network.client[13] 	downloads[13] 	12132
scalar tree_4_3_u05_r13_network.client[13] 	avg_time[13] 	0.004210514595
scalar tree_4_3_u05_r13_network.client[14] 	hdistance[14] 	2.724687990743
scalar tree_4_3_u05_r13_network.client[14] 	downloads[14] 	12099
scalar tree_4_3_u05_r13_network.client[14] 	avg_time[14] 	0.004191913668
scalar tree_4_3_u05_r13_network.client[15] 	hdistance[15] 	2.6494930343747
scalar tree_4_3_u05_r13_network.client[15] 	downloads[15] 	12131
scalar tree_4_3_u05_r13_network.client[15] 	avg_time[15] 	0.004082595266
scalar tree_4_3_u05_r13_network.client[16] 	hdistance[16] 	2.6623430962343
scalar tree_4_3_u05_r13_network.client[16] 	downloads[16] 	11950
scalar tree_4_3_u05_r13_network.client[16] 	avg_time[16] 	0.004107946841
scalar tree_4_3_u05_r13_network.client[17] 	hdistance[17] 	2.6617313031042
scalar tree_4_3_u05_r13_network.client[17] 	downloads[17] 	11887
scalar tree_4_3_u05_r13_network.client[17] 	avg_time[17] 	0.004119118771
scalar tree_4_3_u05_r13_network.client[18] 	hdistance[18] 	2.6683046683047
scalar tree_4_3_u05_r13_network.client[18] 	downloads[18] 	11803
scalar tree_4_3_u05_r13_network.client[18] 	avg_time[18] 	0.004121830473
scalar tree_4_3_u05_r13_network.client[19] 	hdistance[19] 	2.7105591094126
scalar tree_4_3_u05_r13_network.client[19] 	downloads[19] 	12037
scalar tree_4_3_u05_r13_network.client[19] 	avg_time[19] 	0.004187252933
scalar tree_4_3_u05_r13_network.client[20] 	hdistance[20] 	2.6651174371317
scalar tree_4_3_u05_r13_network.client[20] 	downloads[20] 	12049
scalar tree_4_3_u05_r13_network.client[20] 	avg_time[20] 	0.004107268785
scalar tree_4_3_u05_r13_network.client[21] 	hdistance[21] 	2.7086627278023
scalar tree_4_3_u05_r13_network.client[21] 	downloads[21] 	12017
scalar tree_4_3_u05_r13_network.client[21] 	avg_time[21] 	0.004180241637
scalar tree_4_3_u05_r13_network.client[22] 	hdistance[22] 	2.6549158846902
scalar tree_4_3_u05_r13_network.client[22] 	downloads[22] 	11829
scalar tree_4_3_u05_r13_network.client[22] 	avg_time[22] 	0.004088085664
scalar tree_4_3_u05_r13_network.client[23] 	hdistance[23] 	2.7389117129203
scalar tree_4_3_u05_r13_network.client[23] 	downloads[23] 	11927
scalar tree_4_3_u05_r13_network.client[23] 	avg_time[23] 	0.004207193047
scalar tree_4_3_u05_r13_network.client[24] 	hdistance[24] 	2.7128268991283
scalar tree_4_3_u05_r13_network.client[24] 	downloads[24] 	12045
scalar tree_4_3_u05_r13_network.client[24] 	avg_time[24] 	0.004173180913
scalar tree_4_3_u05_r13_network.client[25] 	hdistance[25] 	2.7016108838995
scalar tree_4_3_u05_r13_network.client[25] 	downloads[25] 	11981
scalar tree_4_3_u05_r13_network.client[25] 	avg_time[25] 	0.004147230094
scalar tree_4_3_u05_r13_network.client[26] 	hdistance[26] 	2.7356273954341
scalar tree_4_3_u05_r13_network.client[26] 	downloads[26] 	12002
scalar tree_4_3_u05_r13_network.client[26] 	avg_time[26] 	0.004213794708
scalar tree_4_3_u05_r13_network.client[27] 	hdistance[27] 	2.6409769782985
scalar tree_4_3_u05_r13_network.client[27] 	downloads[27] 	12119
scalar tree_4_3_u05_r13_network.client[27] 	avg_time[27] 	0.00407310534
scalar tree_4_3_u05_r13_network.client[28] 	hdistance[28] 	2.6650951338609
scalar tree_4_3_u05_r13_network.client[28] 	downloads[28] 	11878
scalar tree_4_3_u05_r13_network.client[28] 	avg_time[28] 	0.004106362736
scalar tree_4_3_u05_r13_network.client[29] 	hdistance[29] 	2.6913539152867
scalar tree_4_3_u05_r13_network.client[29] 	downloads[29] 	12017
scalar tree_4_3_u05_r13_network.client[29] 	avg_time[29] 	0.00415910491
scalar tree_4_3_u05_r13_network.client[30] 	hdistance[30] 	2.6620335898072
scalar tree_4_3_u05_r13_network.client[30] 	downloads[30] 	12087
scalar tree_4_3_u05_r13_network.client[30] 	avg_time[30] 	0.004119464161
scalar tree_4_3_u05_r13_network.client[31] 	hdistance[31] 	2.690494296578
scalar tree_4_3_u05_r13_network.client[31] 	downloads[31] 	11835
scalar tree_4_3_u05_r13_network.client[31] 	avg_time[31] 	0.004157326968
scalar tree_4_3_u05_r13_network.client[32] 	hdistance[32] 	2.6627358490566
scalar tree_4_3_u05_r13_network.client[32] 	downloads[32] 	11872
scalar tree_4_3_u05_r13_network.client[32] 	avg_time[32] 	0.004101412109
scalar tree_4_3_u05_r13_network.client[33] 	hdistance[33] 	2.7002641571735
scalar tree_4_3_u05_r13_network.client[33] 	downloads[33] 	12114
scalar tree_4_3_u05_r13_network.client[33] 	avg_time[33] 	0.004173515212
scalar tree_4_3_u05_r13_network.client[34] 	hdistance[34] 	2.6699208887393
scalar tree_4_3_u05_r13_network.client[34] 	downloads[34] 	11882
scalar tree_4_3_u05_r13_network.client[34] 	avg_time[34] 	0.00411092113
scalar tree_4_3_u05_r13_network.client[35] 	hdistance[35] 	2.6938302277433
scalar tree_4_3_u05_r13_network.client[35] 	downloads[35] 	12075
scalar tree_4_3_u05_r13_network.client[35] 	avg_time[35] 	0.004154696789
scalar tree_4_3_u05_r13_network.client[36] 	hdistance[36] 	2.7102921423774
scalar tree_4_3_u05_r13_network.client[36] 	downloads[36] 	11912
scalar tree_4_3_u05_r13_network.client[36] 	avg_time[36] 	0.004178976212
scalar tree_4_3_u05_r13_network.client[37] 	hdistance[37] 	2.7187023547349
scalar tree_4_3_u05_r13_network.client[37] 	downloads[37] 	11806
scalar tree_4_3_u05_r13_network.client[37] 	avg_time[37] 	0.004197523736
scalar tree_4_3_u05_r13_network.client[38] 	hdistance[38] 	2.7345689227205
scalar tree_4_3_u05_r13_network.client[38] 	downloads[38] 	12086
scalar tree_4_3_u05_r13_network.client[38] 	avg_time[38] 	0.004218431542
scalar tree_4_3_u05_r13_network.client[39] 	hdistance[39] 	2.7068269785061
scalar tree_4_3_u05_r13_network.client[39] 	downloads[39] 	12143
scalar tree_4_3_u05_r13_network.client[39] 	avg_time[39] 	0.004178700763
