version 2
run General-104-20160819-12:25:50-2054
attr a 0.9
attr cd lcd
attr configname General
attr cr lru
attr datetime 20160819-12:25:50
attr experiment General
attr fsize 1
attr inifile hw5115/scenario_A/NRR-LCD.ini
attr iterationvars "$name=tree_4_3, $un=05, $rep=5, $cd=lcd, $cr=lru, $fsize=1, $a=0.9, $sl=nrr, $ttl=1000, $variance=0.05"
attr iterationvars2 "$name=tree_4_3, $un=05, $rep=5, $cd=lcd, $cr=lru, $fsize=1, $a=0.9, $sl=nrr, $ttl=1000, $variance=0.05, $repetition=0"
attr measurement "$name=tree_4_3, $un=05, $rep=5, $cd=lcd, $cr=lru, $fsize=1, $a=0.9, $sl=nrr, $ttl=1000, $variance=0.05"
attr name tree_4_3
attr network networks.${name}_u${un}_r${rep}_network
attr processid 2054
attr rep 5
attr repetition 0
attr replication #0
attr resultdir results
attr runnumber 104
attr seedset 5
attr sl nrr
attr ttl 1000
attr un 05
attr variance 0.05

scalar . 	a 	0.9
scalar . 	fsize 	1
scalar . 	rep 	5
scalar . 	ttl 	1000
scalar . 	un 	05
scalar . 	variance 	0.05
scalar tree_4_3_u05_r5_network.content_distribution 	repo-0 	0
scalar tree_4_3_u05_r5_network.content_distribution 	client-0 	13
scalar tree_4_3_u05_r5_network.content_distribution 	client-1 	14
scalar tree_4_3_u05_r5_network.content_distribution 	client-2 	15
scalar tree_4_3_u05_r5_network.content_distribution 	client-3 	16
scalar tree_4_3_u05_r5_network.content_distribution 	client-4 	17
scalar tree_4_3_u05_r5_network.content_distribution 	client-5 	18
scalar tree_4_3_u05_r5_network.content_distribution 	client-6 	19
scalar tree_4_3_u05_r5_network.content_distribution 	client-7 	20
scalar tree_4_3_u05_r5_network.content_distribution 	client-8 	21
scalar tree_4_3_u05_r5_network.content_distribution 	client-9 	22
scalar tree_4_3_u05_r5_network.content_distribution 	client-10 	23
scalar tree_4_3_u05_r5_network.content_distribution 	client-11 	24
scalar tree_4_3_u05_r5_network.content_distribution 	client-12 	25
scalar tree_4_3_u05_r5_network.content_distribution 	client-13 	26
scalar tree_4_3_u05_r5_network.content_distribution 	client-14 	27
scalar tree_4_3_u05_r5_network.content_distribution 	client-15 	28
scalar tree_4_3_u05_r5_network.content_distribution 	client-16 	29
scalar tree_4_3_u05_r5_network.content_distribution 	client-17 	30
scalar tree_4_3_u05_r5_network.content_distribution 	client-18 	31
scalar tree_4_3_u05_r5_network.content_distribution 	client-19 	32
scalar tree_4_3_u05_r5_network.content_distribution 	client-20 	33
scalar tree_4_3_u05_r5_network.content_distribution 	client-21 	34
scalar tree_4_3_u05_r5_network.content_distribution 	client-22 	35
scalar tree_4_3_u05_r5_network.content_distribution 	client-23 	36
scalar tree_4_3_u05_r5_network.content_distribution 	client-24 	37
scalar tree_4_3_u05_r5_network.content_distribution 	client-25 	38
scalar tree_4_3_u05_r5_network.content_distribution 	client-26 	39
scalar tree_4_3_u05_r5_network.content_distribution 	repo-0_card 	100000
scalar tree_4_3_u05_r5_network.content_distribution 	repo-0_price 	0
scalar tree_4_3_u05_r5_network.statistics 	stabilization_time 	1014.6
scalar tree_4_3_u05_r5_network.statistics 	p_hit 	0.21753311277402
scalar tree_4_3_u05_r5_network.statistics 	interests 	24814.775
scalar tree_4_3_u05_r5_network.statistics 	data 	16741.45
scalar tree_4_3_u05_r5_network.statistics 	hdistance 	2.6925137558477
scalar tree_4_3_u05_r5_network.statistics 	avg_time 	0.004147487929
scalar tree_4_3_u05_r5_network.statistics 	downloads 	322922
scalar tree_4_3_u05_r5_network.statistics 	total_cost 	0
scalar tree_4_3_u05_r5_network.statistics 	total_replicas 	100000
scalar tree_4_3_u05_r5_network.statistics 	inner_hit 	0.3812654449062
scalar tree_4_3_u05_r5_network.node[0].core_layer 	interests[0] 	201065
scalar tree_4_3_u05_r5_network.node[0].core_layer 	repo_load[0] 	199803
scalar tree_4_3_u05_r5_network.node[0].core_layer 	data[0] 	0
scalar tree_4_3_u05_r5_network.node[0].core_layer 	repo_int[0] 	199803
scalar tree_4_3_u05_r5_network.node[0].content_store 	p_hit[0] 	0.0062765772262701
scalar tree_4_3_u05_r5_network.node[0].content_store 	hits[0] 	1262
scalar tree_4_3_u05_r5_network.node[0].content_store 	misses[0] 	199803
scalar tree_4_3_u05_r5_network.node[0].content_store 	decision_yes[0] 	199803
scalar tree_4_3_u05_r5_network.node[0].content_store 	decision_no[0] 	0
scalar tree_4_3_u05_r5_network.node[0].content_store 	decision_ratio[0] 	1
scalar tree_4_3_u05_r5_network.node[1].core_layer 	interests[1] 	100282
scalar tree_4_3_u05_r5_network.node[1].core_layer 	data[1] 	98282
scalar tree_4_3_u05_r5_network.node[1].content_store 	p_hit[1] 	0.019913842962845
scalar tree_4_3_u05_r5_network.node[1].content_store 	hits[1] 	1997
scalar tree_4_3_u05_r5_network.node[1].content_store 	misses[1] 	98285
scalar tree_4_3_u05_r5_network.node[1].content_store 	decision_yes[1] 	2007
scalar tree_4_3_u05_r5_network.node[1].content_store 	decision_no[1] 	96273
scalar tree_4_3_u05_r5_network.node[1].content_store 	decision_ratio[1] 	0.020421245421245
scalar tree_4_3_u05_r5_network.node[2].core_layer 	interests[2] 	71726
scalar tree_4_3_u05_r5_network.node[2].core_layer 	data[2] 	69528
scalar tree_4_3_u05_r5_network.node[2].content_store 	p_hit[2] 	0.030616512840532
scalar tree_4_3_u05_r5_network.node[2].content_store 	hits[2] 	2196
scalar tree_4_3_u05_r5_network.node[2].content_store 	misses[2] 	69530
scalar tree_4_3_u05_r5_network.node[2].content_store 	decision_yes[2] 	2175
scalar tree_4_3_u05_r5_network.node[2].content_store 	decision_no[2] 	67353
scalar tree_4_3_u05_r5_network.node[2].content_store 	decision_ratio[2] 	0.031282361063169
scalar tree_4_3_u05_r5_network.node[3].core_layer 	interests[3] 	42041
scalar tree_4_3_u05_r5_network.node[3].core_layer 	data[3] 	39630
scalar tree_4_3_u05_r5_network.node[3].content_store 	p_hit[3] 	0.057348778573297
scalar tree_4_3_u05_r5_network.node[3].content_store 	hits[3] 	2411
scalar tree_4_3_u05_r5_network.node[3].content_store 	misses[3] 	39630
scalar tree_4_3_u05_r5_network.node[3].content_store 	decision_yes[3] 	1824
scalar tree_4_3_u05_r5_network.node[3].content_store 	decision_no[3] 	37806
scalar tree_4_3_u05_r5_network.node[3].content_store 	decision_ratio[3] 	0.046025738077214
scalar tree_4_3_u05_r5_network.node[4].core_layer 	interests[4] 	33686
scalar tree_4_3_u05_r5_network.node[4].core_layer 	data[4] 	32059
scalar tree_4_3_u05_r5_network.node[4].content_store 	p_hit[4] 	0.048298996615805
scalar tree_4_3_u05_r5_network.node[4].content_store 	hits[4] 	1627
scalar tree_4_3_u05_r5_network.node[4].content_store 	misses[4] 	32059
scalar tree_4_3_u05_r5_network.node[4].content_store 	decision_yes[4] 	1437
scalar tree_4_3_u05_r5_network.node[4].content_store 	decision_no[4] 	30622
scalar tree_4_3_u05_r5_network.node[4].content_store 	decision_ratio[4] 	0.044823606475561
scalar tree_4_3_u05_r5_network.node[5].core_layer 	interests[5] 	37077
scalar tree_4_3_u05_r5_network.node[5].core_layer 	data[5] 	34064
scalar tree_4_3_u05_r5_network.node[5].content_store 	p_hit[5] 	0.081263316881085
scalar tree_4_3_u05_r5_network.node[5].content_store 	hits[5] 	3013
scalar tree_4_3_u05_r5_network.node[5].content_store 	misses[5] 	34064
scalar tree_4_3_u05_r5_network.node[5].content_store 	decision_yes[5] 	3726
scalar tree_4_3_u05_r5_network.node[5].content_store 	decision_no[5] 	30338
scalar tree_4_3_u05_r5_network.node[5].content_store 	decision_ratio[5] 	0.10938233912635
scalar tree_4_3_u05_r5_network.node[6].core_layer 	interests[6] 	10369
scalar tree_4_3_u05_r5_network.node[6].core_layer 	data[6] 	8682
scalar tree_4_3_u05_r5_network.node[6].content_store 	p_hit[6] 	0.16269649918025
scalar tree_4_3_u05_r5_network.node[6].content_store 	hits[6] 	1687
scalar tree_4_3_u05_r5_network.node[6].content_store 	misses[6] 	8682
scalar tree_4_3_u05_r5_network.node[6].content_store 	decision_yes[6] 	946
scalar tree_4_3_u05_r5_network.node[6].content_store 	decision_no[6] 	7736
scalar tree_4_3_u05_r5_network.node[6].content_store 	decision_ratio[6] 	0.10896106887814
scalar tree_4_3_u05_r5_network.node[7].core_layer 	interests[7] 	25930
scalar tree_4_3_u05_r5_network.node[7].core_layer 	data[7] 	24556
scalar tree_4_3_u05_r5_network.node[7].content_store 	p_hit[7] 	0.052950250674894
scalar tree_4_3_u05_r5_network.node[7].content_store 	hits[7] 	1373
scalar tree_4_3_u05_r5_network.node[7].content_store 	misses[7] 	24557
scalar tree_4_3_u05_r5_network.node[7].content_store 	decision_yes[7] 	1197
scalar tree_4_3_u05_r5_network.node[7].content_store 	decision_no[7] 	23359
scalar tree_4_3_u05_r5_network.node[7].content_store 	decision_ratio[7] 	0.048745724059293
scalar tree_4_3_u05_r5_network.node[8].core_layer 	interests[8] 	34208
scalar tree_4_3_u05_r5_network.node[8].core_layer 	data[8] 	32371
scalar tree_4_3_u05_r5_network.node[8].content_store 	p_hit[8] 	0.05364242282507
scalar tree_4_3_u05_r5_network.node[8].content_store 	hits[8] 	1835
scalar tree_4_3_u05_r5_network.node[8].content_store 	misses[8] 	32373
scalar tree_4_3_u05_r5_network.node[8].content_store 	decision_yes[8] 	1706
scalar tree_4_3_u05_r5_network.node[8].content_store 	decision_no[8] 	30665
scalar tree_4_3_u05_r5_network.node[8].content_store 	decision_ratio[8] 	0.052701492076241
scalar tree_4_3_u05_r5_network.node[9].core_layer 	interests[9] 	21536
scalar tree_4_3_u05_r5_network.node[9].core_layer 	data[9] 	18465
scalar tree_4_3_u05_r5_network.node[9].content_store 	p_hit[9] 	0.14259843982169
scalar tree_4_3_u05_r5_network.node[9].content_store 	hits[9] 	3071
scalar tree_4_3_u05_r5_network.node[9].content_store 	misses[9] 	18465
scalar tree_4_3_u05_r5_network.node[9].content_store 	decision_yes[9] 	3032
scalar tree_4_3_u05_r5_network.node[9].content_store 	decision_no[9] 	15433
scalar tree_4_3_u05_r5_network.node[9].content_store 	decision_ratio[9] 	0.16420254535608
scalar tree_4_3_u05_r5_network.node[10].core_layer 	interests[10] 	36224
scalar tree_4_3_u05_r5_network.node[10].core_layer 	data[10] 	33596
scalar tree_4_3_u05_r5_network.node[10].content_store 	p_hit[10] 	0.072493374558304
scalar tree_4_3_u05_r5_network.node[10].content_store 	hits[10] 	2626
scalar tree_4_3_u05_r5_network.node[10].content_store 	misses[10] 	33598
scalar tree_4_3_u05_r5_network.node[10].content_store 	decision_yes[10] 	3024
scalar tree_4_3_u05_r5_network.node[10].content_store 	decision_no[10] 	30572
scalar tree_4_3_u05_r5_network.node[10].content_store 	decision_ratio[10] 	0.090010715561376
scalar tree_4_3_u05_r5_network.node[11].core_layer 	interests[11] 	17697
scalar tree_4_3_u05_r5_network.node[11].core_layer 	data[11] 	16397
scalar tree_4_3_u05_r5_network.node[11].content_store 	p_hit[11] 	0.07345877832401
scalar tree_4_3_u05_r5_network.node[11].content_store 	hits[11] 	1300
scalar tree_4_3_u05_r5_network.node[11].content_store 	misses[11] 	16397
scalar tree_4_3_u05_r5_network.node[11].content_store 	decision_yes[11] 	843
scalar tree_4_3_u05_r5_network.node[11].content_store 	decision_no[11] 	15554
scalar tree_4_3_u05_r5_network.node[11].content_store 	decision_ratio[11] 	0.051411843629932
scalar tree_4_3_u05_r5_network.node[12].core_layer 	interests[12] 	26725
scalar tree_4_3_u05_r5_network.node[12].core_layer 	data[12] 	24954
scalar tree_4_3_u05_r5_network.node[12].content_store 	p_hit[12] 	0.06623012160898
scalar tree_4_3_u05_r5_network.node[12].content_store 	hits[12] 	1770
scalar tree_4_3_u05_r5_network.node[12].content_store 	misses[12] 	24955
scalar tree_4_3_u05_r5_network.node[12].content_store 	decision_yes[12] 	1790
scalar tree_4_3_u05_r5_network.node[12].content_store 	decision_no[12] 	23164
scalar tree_4_3_u05_r5_network.node[12].content_store 	decision_ratio[12] 	0.071731986855815
scalar tree_4_3_u05_r5_network.node[13].core_layer 	interests[13] 	11991
scalar tree_4_3_u05_r5_network.node[13].core_layer 	data[13] 	8636
scalar tree_4_3_u05_r5_network.node[13].content_store 	p_hit[13] 	0.279793178217
scalar tree_4_3_u05_r5_network.node[13].content_store 	hits[13] 	3355
scalar tree_4_3_u05_r5_network.node[13].content_store 	misses[13] 	8636
scalar tree_4_3_u05_r5_network.node[13].content_store 	decision_yes[13] 	390
scalar tree_4_3_u05_r5_network.node[13].content_store 	decision_no[13] 	8246
scalar tree_4_3_u05_r5_network.node[13].content_store 	decision_ratio[13] 	0.045159796201945
scalar tree_4_3_u05_r5_network.node[14].core_layer 	interests[14] 	12876
scalar tree_4_3_u05_r5_network.node[14].core_layer 	data[14] 	9005
scalar tree_4_3_u05_r5_network.node[14].content_store 	p_hit[14] 	0.30055917986952
scalar tree_4_3_u05_r5_network.node[14].content_store 	hits[14] 	3870
scalar tree_4_3_u05_r5_network.node[14].content_store 	misses[14] 	9006
scalar tree_4_3_u05_r5_network.node[14].content_store 	decision_yes[14] 	720
scalar tree_4_3_u05_r5_network.node[14].content_store 	decision_no[14] 	8285
scalar tree_4_3_u05_r5_network.node[14].content_store 	decision_ratio[14] 	0.079955580233204
scalar tree_4_3_u05_r5_network.node[15].core_layer 	interests[15] 	12344
scalar tree_4_3_u05_r5_network.node[15].core_layer 	data[15] 	8769
scalar tree_4_3_u05_r5_network.node[15].content_store 	p_hit[15] 	0.28969539857421
scalar tree_4_3_u05_r5_network.node[15].content_store 	hits[15] 	3576
scalar tree_4_3_u05_r5_network.node[15].content_store 	misses[15] 	8768
scalar tree_4_3_u05_r5_network.node[15].content_store 	decision_yes[15] 	698
scalar tree_4_3_u05_r5_network.node[15].content_store 	decision_no[15] 	8071
scalar tree_4_3_u05_r5_network.node[15].content_store 	decision_ratio[15] 	0.0795985859277
scalar tree_4_3_u05_r5_network.node[16].core_layer 	interests[16] 	12518
scalar tree_4_3_u05_r5_network.node[16].core_layer 	data[16] 	8880
scalar tree_4_3_u05_r5_network.node[16].content_store 	p_hit[16] 	0.2905416200671
scalar tree_4_3_u05_r5_network.node[16].content_store 	hits[16] 	3637
scalar tree_4_3_u05_r5_network.node[16].content_store 	misses[16] 	8881
scalar tree_4_3_u05_r5_network.node[16].content_store 	decision_yes[16] 	423
scalar tree_4_3_u05_r5_network.node[16].content_store 	decision_no[16] 	8457
scalar tree_4_3_u05_r5_network.node[16].content_store 	decision_ratio[16] 	0.047635135135135
scalar tree_4_3_u05_r5_network.node[17].core_layer 	interests[17] 	12384
scalar tree_4_3_u05_r5_network.node[17].core_layer 	data[17] 	8754
scalar tree_4_3_u05_r5_network.node[17].content_store 	p_hit[17] 	0.29312015503876
scalar tree_4_3_u05_r5_network.node[17].content_store 	hits[17] 	3630
scalar tree_4_3_u05_r5_network.node[17].content_store 	misses[17] 	8754
scalar tree_4_3_u05_r5_network.node[17].content_store 	decision_yes[17] 	419
scalar tree_4_3_u05_r5_network.node[17].content_store 	decision_no[17] 	8335
scalar tree_4_3_u05_r5_network.node[17].content_store 	decision_ratio[17] 	0.047863833676034
scalar tree_4_3_u05_r5_network.node[18].core_layer 	interests[18] 	12250
scalar tree_4_3_u05_r5_network.node[18].core_layer 	data[18] 	8727
scalar tree_4_3_u05_r5_network.node[18].content_store 	p_hit[18] 	0.28759183673469
scalar tree_4_3_u05_r5_network.node[18].content_store 	hits[18] 	3523
scalar tree_4_3_u05_r5_network.node[18].content_store 	misses[18] 	8727
scalar tree_4_3_u05_r5_network.node[18].content_store 	decision_yes[18] 	430
scalar tree_4_3_u05_r5_network.node[18].content_store 	decision_no[18] 	8297
scalar tree_4_3_u05_r5_network.node[18].content_store 	decision_ratio[18] 	0.049272373094993
scalar tree_4_3_u05_r5_network.node[19].core_layer 	interests[19] 	12257
scalar tree_4_3_u05_r5_network.node[19].core_layer 	data[19] 	8741
scalar tree_4_3_u05_r5_network.node[19].content_store 	p_hit[19] 	0.28685649016888
scalar tree_4_3_u05_r5_network.node[19].content_store 	hits[19] 	3516
scalar tree_4_3_u05_r5_network.node[19].content_store 	misses[19] 	8741
scalar tree_4_3_u05_r5_network.node[19].content_store 	decision_yes[19] 	658
scalar tree_4_3_u05_r5_network.node[19].content_store 	decision_no[19] 	8083
scalar tree_4_3_u05_r5_network.node[19].content_store 	decision_ratio[19] 	0.075277428211875
scalar tree_4_3_u05_r5_network.node[20].core_layer 	interests[20] 	12779
scalar tree_4_3_u05_r5_network.node[20].core_layer 	data[20] 	8877
scalar tree_4_3_u05_r5_network.node[20].content_store 	p_hit[20] 	0.30534470615854
scalar tree_4_3_u05_r5_network.node[20].content_store 	hits[20] 	3902
scalar tree_4_3_u05_r5_network.node[20].content_store 	misses[20] 	8877
scalar tree_4_3_u05_r5_network.node[20].content_store 	decision_yes[20] 	717
scalar tree_4_3_u05_r5_network.node[20].content_store 	decision_no[20] 	8160
scalar tree_4_3_u05_r5_network.node[20].content_store 	decision_ratio[20] 	0.080770530584657
scalar tree_4_3_u05_r5_network.node[21].core_layer 	interests[21] 	12092
scalar tree_4_3_u05_r5_network.node[21].core_layer 	data[21] 	8716
scalar tree_4_3_u05_r5_network.node[21].content_store 	p_hit[21] 	0.27919285478002
scalar tree_4_3_u05_r5_network.node[21].content_store 	hits[21] 	3376
scalar tree_4_3_u05_r5_network.node[21].content_store 	misses[21] 	8716
scalar tree_4_3_u05_r5_network.node[21].content_store 	decision_yes[21] 	397
scalar tree_4_3_u05_r5_network.node[21].content_store 	decision_no[21] 	8319
scalar tree_4_3_u05_r5_network.node[21].content_store 	decision_ratio[21] 	0.045548416704911
scalar tree_4_3_u05_r5_network.node[22].core_layer 	interests[22] 	12232
scalar tree_4_3_u05_r5_network.node[22].core_layer 	data[22] 	8763
scalar tree_4_3_u05_r5_network.node[22].content_store 	p_hit[22] 	0.28351863963375
scalar tree_4_3_u05_r5_network.node[22].content_store 	hits[22] 	3468
scalar tree_4_3_u05_r5_network.node[22].content_store 	misses[22] 	8764
scalar tree_4_3_u05_r5_network.node[22].content_store 	decision_yes[22] 	354
scalar tree_4_3_u05_r5_network.node[22].content_store 	decision_no[22] 	8409
scalar tree_4_3_u05_r5_network.node[22].content_store 	decision_ratio[22] 	0.040397124272509
scalar tree_4_3_u05_r5_network.node[23].core_layer 	interests[23] 	12121
scalar tree_4_3_u05_r5_network.node[23].core_layer 	data[23] 	8717
scalar tree_4_3_u05_r5_network.node[23].content_store 	p_hit[23] 	0.28083491461101
scalar tree_4_3_u05_r5_network.node[23].content_store 	hits[23] 	3404
scalar tree_4_3_u05_r5_network.node[23].content_store 	misses[23] 	8717
scalar tree_4_3_u05_r5_network.node[23].content_store 	decision_yes[23] 	351
scalar tree_4_3_u05_r5_network.node[23].content_store 	decision_no[23] 	8366
scalar tree_4_3_u05_r5_network.node[23].content_store 	decision_ratio[23] 	0.040266146610072
scalar tree_4_3_u05_r5_network.node[24].core_layer 	interests[24] 	12777
scalar tree_4_3_u05_r5_network.node[24].core_layer 	data[24] 	8888
scalar tree_4_3_u05_r5_network.node[24].content_store 	p_hit[24] 	0.30437504891602
scalar tree_4_3_u05_r5_network.node[24].content_store 	hits[24] 	3889
scalar tree_4_3_u05_r5_network.node[24].content_store 	misses[24] 	8888
scalar tree_4_3_u05_r5_network.node[24].content_store 	decision_yes[24] 	708
scalar tree_4_3_u05_r5_network.node[24].content_store 	decision_no[24] 	8180
scalar tree_4_3_u05_r5_network.node[24].content_store 	decision_ratio[24] 	0.07965796579658
scalar tree_4_3_u05_r5_network.node[25].core_layer 	interests[25] 	12217
scalar tree_4_3_u05_r5_network.node[25].core_layer 	data[25] 	8707
scalar tree_4_3_u05_r5_network.node[25].content_store 	p_hit[25] 	0.28730457559139
scalar tree_4_3_u05_r5_network.node[25].content_store 	hits[25] 	3510
scalar tree_4_3_u05_r5_network.node[25].content_store 	misses[25] 	8707
scalar tree_4_3_u05_r5_network.node[25].content_store 	decision_yes[25] 	373
scalar tree_4_3_u05_r5_network.node[25].content_store 	decision_no[25] 	8334
scalar tree_4_3_u05_r5_network.node[25].content_store 	decision_ratio[25] 	0.04283909498105
scalar tree_4_3_u05_r5_network.node[26].core_layer 	interests[26] 	12329
scalar tree_4_3_u05_r5_network.node[26].core_layer 	data[26] 	8853
scalar tree_4_3_u05_r5_network.node[26].content_store 	p_hit[26] 	0.28193689674751
scalar tree_4_3_u05_r5_network.node[26].content_store 	hits[26] 	3476
scalar tree_4_3_u05_r5_network.node[26].content_store 	misses[26] 	8853
scalar tree_4_3_u05_r5_network.node[26].content_store 	decision_yes[26] 	408
scalar tree_4_3_u05_r5_network.node[26].content_store 	decision_no[26] 	8445
scalar tree_4_3_u05_r5_network.node[26].content_store 	decision_ratio[26] 	0.046086072517791
scalar tree_4_3_u05_r5_network.node[27].core_layer 	interests[27] 	12438
scalar tree_4_3_u05_r5_network.node[27].core_layer 	data[27] 	8743
scalar tree_4_3_u05_r5_network.node[27].content_store 	p_hit[27] 	0.29707348448304
scalar tree_4_3_u05_r5_network.node[27].content_store 	hits[27] 	3695
scalar tree_4_3_u05_r5_network.node[27].content_store 	misses[27] 	8743
scalar tree_4_3_u05_r5_network.node[27].content_store 	decision_yes[27] 	711
scalar tree_4_3_u05_r5_network.node[27].content_store 	decision_no[27] 	8032
scalar tree_4_3_u05_r5_network.node[27].content_store 	decision_ratio[27] 	0.081322200617637
scalar tree_4_3_u05_r5_network.node[28].core_layer 	interests[28] 	12354
scalar tree_4_3_u05_r5_network.node[28].core_layer 	data[28] 	8771
scalar tree_4_3_u05_r5_network.node[28].content_store 	p_hit[28] 	0.28994657600777
scalar tree_4_3_u05_r5_network.node[28].content_store 	hits[28] 	3582
scalar tree_4_3_u05_r5_network.node[28].content_store 	misses[28] 	8772
scalar tree_4_3_u05_r5_network.node[28].content_store 	decision_yes[28] 	412
scalar tree_4_3_u05_r5_network.node[28].content_store 	decision_no[28] 	8359
scalar tree_4_3_u05_r5_network.node[28].content_store 	decision_ratio[28] 	0.046972979135788
scalar tree_4_3_u05_r5_network.node[29].core_layer 	interests[29] 	12733
scalar tree_4_3_u05_r5_network.node[29].core_layer 	data[29] 	9017
scalar tree_4_3_u05_r5_network.node[29].content_store 	p_hit[29] 	0.29184010052619
scalar tree_4_3_u05_r5_network.node[29].content_store 	hits[29] 	3716
scalar tree_4_3_u05_r5_network.node[29].content_store 	misses[29] 	9017
scalar tree_4_3_u05_r5_network.node[29].content_store 	decision_yes[29] 	760
scalar tree_4_3_u05_r5_network.node[29].content_store 	decision_no[29] 	8257
scalar tree_4_3_u05_r5_network.node[29].content_store 	decision_ratio[29] 	0.084285238993013
scalar tree_4_3_u05_r5_network.node[30].core_layer 	interests[30] 	12388
scalar tree_4_3_u05_r5_network.node[30].core_layer 	data[30] 	8830
scalar tree_4_3_u05_r5_network.node[30].content_store 	p_hit[30] 	0.28721343235389
scalar tree_4_3_u05_r5_network.node[30].content_store 	hits[30] 	3558
scalar tree_4_3_u05_r5_network.node[30].content_store 	misses[30] 	8830
scalar tree_4_3_u05_r5_network.node[30].content_store 	decision_yes[30] 	436
scalar tree_4_3_u05_r5_network.node[30].content_store 	decision_no[30] 	8394
scalar tree_4_3_u05_r5_network.node[30].content_store 	decision_ratio[30] 	0.049377123442809
scalar tree_4_3_u05_r5_network.node[31].core_layer 	interests[31] 	12383
scalar tree_4_3_u05_r5_network.node[31].core_layer 	data[31] 	8768
scalar tree_4_3_u05_r5_network.node[31].content_store 	p_hit[31] 	0.29193248808851
scalar tree_4_3_u05_r5_network.node[31].content_store 	hits[31] 	3615
scalar tree_4_3_u05_r5_network.node[31].content_store 	misses[31] 	8768
scalar tree_4_3_u05_r5_network.node[31].content_store 	decision_yes[31] 	441
scalar tree_4_3_u05_r5_network.node[31].content_store 	decision_no[31] 	8327
scalar tree_4_3_u05_r5_network.node[31].content_store 	decision_ratio[31] 	0.050296532846715
scalar tree_4_3_u05_r5_network.node[32].core_layer 	interests[32] 	12391
scalar tree_4_3_u05_r5_network.node[32].core_layer 	data[32] 	8869
scalar tree_4_3_u05_r5_network.node[32].content_store 	p_hit[32] 	0.28423856024534
scalar tree_4_3_u05_r5_network.node[32].content_store 	hits[32] 	3522
scalar tree_4_3_u05_r5_network.node[32].content_store 	misses[32] 	8869
scalar tree_4_3_u05_r5_network.node[32].content_store 	decision_yes[32] 	428
scalar tree_4_3_u05_r5_network.node[32].content_store 	decision_no[32] 	8441
scalar tree_4_3_u05_r5_network.node[32].content_store 	decision_ratio[32] 	0.048257977224039
scalar tree_4_3_u05_r5_network.node[33].core_layer 	interests[33] 	12436
scalar tree_4_3_u05_r5_network.node[33].core_layer 	data[33] 	8849
scalar tree_4_3_u05_r5_network.node[33].content_store 	p_hit[33] 	0.28835638468961
scalar tree_4_3_u05_r5_network.node[33].content_store 	hits[33] 	3586
scalar tree_4_3_u05_r5_network.node[33].content_store 	misses[33] 	8850
scalar tree_4_3_u05_r5_network.node[33].content_store 	decision_yes[33] 	434
scalar tree_4_3_u05_r5_network.node[33].content_store 	decision_no[33] 	8415
scalar tree_4_3_u05_r5_network.node[33].content_store 	decision_ratio[33] 	0.04904508984066
scalar tree_4_3_u05_r5_network.node[34].core_layer 	interests[34] 	12639
scalar tree_4_3_u05_r5_network.node[34].core_layer 	data[34] 	8836
scalar tree_4_3_u05_r5_network.node[34].content_store 	p_hit[34] 	0.30081493789066
scalar tree_4_3_u05_r5_network.node[34].content_store 	hits[34] 	3802
scalar tree_4_3_u05_r5_network.node[34].content_store 	misses[34] 	8837
scalar tree_4_3_u05_r5_network.node[34].content_store 	decision_yes[34] 	689
scalar tree_4_3_u05_r5_network.node[34].content_store 	decision_no[34] 	8147
scalar tree_4_3_u05_r5_network.node[34].content_store 	decision_ratio[34] 	0.077976459936623
scalar tree_4_3_u05_r5_network.node[35].core_layer 	interests[35] 	12157
scalar tree_4_3_u05_r5_network.node[35].core_layer 	data[35] 	8794
scalar tree_4_3_u05_r5_network.node[35].content_store 	p_hit[35] 	0.27663074771736
scalar tree_4_3_u05_r5_network.node[35].content_store 	hits[35] 	3363
scalar tree_4_3_u05_r5_network.node[35].content_store 	misses[35] 	8794
scalar tree_4_3_u05_r5_network.node[35].content_store 	decision_yes[35] 	345
scalar tree_4_3_u05_r5_network.node[35].content_store 	decision_no[35] 	8449
scalar tree_4_3_u05_r5_network.node[35].content_store 	decision_ratio[35] 	0.039231294064135
scalar tree_4_3_u05_r5_network.node[36].core_layer 	interests[36] 	12378
scalar tree_4_3_u05_r5_network.node[36].core_layer 	data[36] 	8673
scalar tree_4_3_u05_r5_network.node[36].content_store 	p_hit[36] 	0.29932137663597
scalar tree_4_3_u05_r5_network.node[36].content_store 	hits[36] 	3705
scalar tree_4_3_u05_r5_network.node[36].content_store 	misses[36] 	8673
scalar tree_4_3_u05_r5_network.node[36].content_store 	decision_yes[36] 	666
scalar tree_4_3_u05_r5_network.node[36].content_store 	decision_no[36] 	8007
scalar tree_4_3_u05_r5_network.node[36].content_store 	decision_ratio[36] 	0.076790038049118
scalar tree_4_3_u05_r5_network.node[37].core_layer 	interests[37] 	12113
scalar tree_4_3_u05_r5_network.node[37].core_layer 	data[37] 	8599
scalar tree_4_3_u05_r5_network.node[37].content_store 	p_hit[37] 	0.29010154379592
scalar tree_4_3_u05_r5_network.node[37].content_store 	hits[37] 	3514
scalar tree_4_3_u05_r5_network.node[37].content_store 	misses[37] 	8599
scalar tree_4_3_u05_r5_network.node[37].content_store 	decision_yes[37] 	393
scalar tree_4_3_u05_r5_network.node[37].content_store 	decision_no[37] 	8206
scalar tree_4_3_u05_r5_network.node[37].content_store 	decision_ratio[37] 	0.045702988719619
scalar tree_4_3_u05_r5_network.node[38].core_layer 	interests[38] 	12094
scalar tree_4_3_u05_r5_network.node[38].core_layer 	data[38] 	8510
scalar tree_4_3_u05_r5_network.node[38].content_store 	p_hit[38] 	0.2963452951877
scalar tree_4_3_u05_r5_network.node[38].content_store 	hits[38] 	3584
scalar tree_4_3_u05_r5_network.node[38].content_store 	misses[38] 	8510
scalar tree_4_3_u05_r5_network.node[38].content_store 	decision_yes[38] 	418
scalar tree_4_3_u05_r5_network.node[38].content_store 	decision_no[38] 	8092
scalar tree_4_3_u05_r5_network.node[38].content_store 	decision_ratio[38] 	0.049118683901293
scalar tree_4_3_u05_r5_network.node[39].core_layer 	interests[39] 	12354
scalar tree_4_3_u05_r5_network.node[39].core_layer 	data[39] 	8782
scalar tree_4_3_u05_r5_network.node[39].content_store 	p_hit[39] 	0.28905617613728
scalar tree_4_3_u05_r5_network.node[39].content_store 	hits[39] 	3571
scalar tree_4_3_u05_r5_network.node[39].content_store 	misses[39] 	8783
scalar tree_4_3_u05_r5_network.node[39].content_store 	decision_yes[39] 	379
scalar tree_4_3_u05_r5_network.node[39].content_store 	decision_no[39] 	8403
scalar tree_4_3_u05_r5_network.node[39].content_store 	decision_ratio[39] 	0.043156456388066
scalar tree_4_3_u05_r5_network.client[13] 	hdistance[13] 	2.7145399084901
scalar tree_4_3_u05_r5_network.client[13] 	downloads[13] 	11802
scalar tree_4_3_u05_r5_network.client[13] 	avg_time[13] 	0.004178778066
scalar tree_4_3_u05_r5_network.client[14] 	hdistance[14] 	2.6907267755034
scalar tree_4_3_u05_r5_network.client[14] 	downloads[14] 	12067
scalar tree_4_3_u05_r5_network.client[14] 	avg_time[14] 	0.004140978653
scalar tree_4_3_u05_r5_network.client[15] 	hdistance[15] 	2.6700283380563
scalar tree_4_3_u05_r5_network.client[15] 	downloads[15] 	11998
scalar tree_4_3_u05_r5_network.client[15] 	avg_time[15] 	0.004096012996
scalar tree_4_3_u05_r5_network.client[16] 	hdistance[16] 	2.6952832543049
scalar tree_4_3_u05_r5_network.client[16] 	downloads[16] 	12021
scalar tree_4_3_u05_r5_network.client[16] 	avg_time[16] 	0.004164962952
scalar tree_4_3_u05_r5_network.client[17] 	hdistance[17] 	2.6847360912981
scalar tree_4_3_u05_r5_network.client[17] 	downloads[17] 	11917
scalar tree_4_3_u05_r5_network.client[17] 	avg_time[17] 	0.004144328656
scalar tree_4_3_u05_r5_network.client[18] 	hdistance[18] 	2.6929067208397
scalar tree_4_3_u05_r5_network.client[18] 	downloads[18] 	11814
scalar tree_4_3_u05_r5_network.client[18] 	avg_time[18] 	0.004156421647
scalar tree_4_3_u05_r5_network.client[19] 	hdistance[19] 	2.6992830029523
scalar tree_4_3_u05_r5_network.client[19] 	downloads[19] 	11855
scalar tree_4_3_u05_r5_network.client[19] 	avg_time[19] 	0.004140359773
scalar tree_4_3_u05_r5_network.client[20] 	hdistance[20] 	2.6511531441845
scalar tree_4_3_u05_r5_network.client[20] 	downloads[20] 	12054
scalar tree_4_3_u05_r5_network.client[20] 	avg_time[20] 	0.004084616168
scalar tree_4_3_u05_r5_network.client[21] 	hdistance[21] 	2.700025123524
scalar tree_4_3_u05_r5_network.client[21] 	downloads[21] 	11941
scalar tree_4_3_u05_r5_network.client[21] 	avg_time[21] 	0.004161290038
scalar tree_4_3_u05_r5_network.client[22] 	hdistance[22] 	2.7262211866523
scalar tree_4_3_u05_r5_network.client[22] 	downloads[22] 	12017
scalar tree_4_3_u05_r5_network.client[22] 	avg_time[22] 	0.004200046923
scalar tree_4_3_u05_r5_network.client[23] 	hdistance[23] 	2.7318014089232
scalar tree_4_3_u05_r5_network.client[23] 	downloads[23] 	11924
scalar tree_4_3_u05_r5_network.client[23] 	avg_time[23] 	0.004210329159
scalar tree_4_3_u05_r5_network.client[24] 	hdistance[24] 	2.6583202056214
scalar tree_4_3_u05_r5_network.client[24] 	downloads[24] 	12061
scalar tree_4_3_u05_r5_network.client[24] 	avg_time[24] 	0.004091531702
scalar tree_4_3_u05_r5_network.client[25] 	hdistance[25] 	2.7019961580222
scalar tree_4_3_u05_r5_network.client[25] 	downloads[25] 	11973
scalar tree_4_3_u05_r5_network.client[25] 	avg_time[25] 	0.004161856514
scalar tree_4_3_u05_r5_network.client[26] 	hdistance[26] 	2.7130334105194
scalar tree_4_3_u05_r5_network.client[26] 	downloads[26] 	12092
scalar tree_4_3_u05_r5_network.client[26] 	avg_time[26] 	0.004183880551
scalar tree_4_3_u05_r5_network.client[27] 	hdistance[27] 	2.6871973494181
scalar tree_4_3_u05_r5_network.client[27] 	downloads[27] 	11771
scalar tree_4_3_u05_r5_network.client[27] 	avg_time[27] 	0.004131166872
scalar tree_4_3_u05_r5_network.client[28] 	hdistance[28] 	2.6785594919786
scalar tree_4_3_u05_r5_network.client[28] 	downloads[28] 	11968
scalar tree_4_3_u05_r5_network.client[28] 	avg_time[28] 	0.00413226507
scalar tree_4_3_u05_r5_network.client[29] 	hdistance[29] 	2.6873080434963
scalar tree_4_3_u05_r5_network.client[29] 	downloads[29] 	12047
scalar tree_4_3_u05_r5_network.client[29] 	avg_time[29] 	0.004143705322
scalar tree_4_3_u05_r5_network.client[30] 	hdistance[30] 	2.6873593867178
scalar tree_4_3_u05_r5_network.client[30] 	downloads[30] 	12001
scalar tree_4_3_u05_r5_network.client[30] 	avg_time[30] 	0.004147984678
scalar tree_4_3_u05_r5_network.client[31] 	hdistance[31] 	2.682019560311
scalar tree_4_3_u05_r5_network.client[31] 	downloads[31] 	11963
scalar tree_4_3_u05_r5_network.client[31] 	avg_time[31] 	0.004142671175
scalar tree_4_3_u05_r5_network.client[32] 	hdistance[32] 	2.7116974200551
scalar tree_4_3_u05_r5_network.client[32] 	downloads[32] 	11977
scalar tree_4_3_u05_r5_network.client[32] 	avg_time[32] 	0.004188692006
scalar tree_4_3_u05_r5_network.client[33] 	hdistance[33] 	2.6930255812016
scalar tree_4_3_u05_r5_network.client[33] 	downloads[33] 	12001
scalar tree_4_3_u05_r5_network.client[33] 	avg_time[33] 	0.004159983658
scalar tree_4_3_u05_r5_network.client[34] 	hdistance[34] 	2.663719028948
scalar tree_4_3_u05_r5_network.client[34] 	downloads[34] 	11987
scalar tree_4_3_u05_r5_network.client[34] 	avg_time[34] 	0.004102441289
scalar tree_4_3_u05_r5_network.client[35] 	hdistance[35] 	2.7336324360253
scalar tree_4_3_u05_r5_network.client[35] 	downloads[35] 	12036
scalar tree_4_3_u05_r5_network.client[35] 	avg_time[35] 	0.004208704176
scalar tree_4_3_u05_r5_network.client[36] 	hdistance[36] 	2.6687152719313
scalar tree_4_3_u05_r5_network.client[36] 	downloads[36] 	11878
scalar tree_4_3_u05_r5_network.client[36] 	avg_time[36] 	0.004094962493
scalar tree_4_3_u05_r5_network.client[37] 	hdistance[37] 	2.6979043434173
scalar tree_4_3_u05_r5_network.client[37] 	downloads[37] 	11834
scalar tree_4_3_u05_r5_network.client[37] 	avg_time[37] 	0.004150380663
scalar tree_4_3_u05_r5_network.client[38] 	hdistance[38] 	2.665370965016
scalar tree_4_3_u05_r5_network.client[38] 	downloads[38] 	11834
scalar tree_4_3_u05_r5_network.client[38] 	avg_time[38] 	0.004099709751
scalar tree_4_3_u05_r5_network.client[39] 	hdistance[39] 	2.7113078004798
scalar tree_4_3_u05_r5_network.client[39] 	downloads[39] 	12089
scalar tree_4_3_u05_r5_network.client[39] 	avg_time[39] 	0.004164113142
