version 2
run General-110-20160819-12:32:13-2054
attr a 0.9
attr cd lcd
attr configname General
attr cr lru
attr datetime 20160819-12:32:13
attr experiment General
attr fsize 1
attr inifile hw5115/scenario_A/NRR-LCD.ini
attr iterationvars "$name=tree_4_3, $un=05, $rep=11, $cd=lcd, $cr=lru, $fsize=1, $a=0.9, $sl=nrr, $ttl=1000, $variance=0.05"
attr iterationvars2 "$name=tree_4_3, $un=05, $rep=11, $cd=lcd, $cr=lru, $fsize=1, $a=0.9, $sl=nrr, $ttl=1000, $variance=0.05, $repetition=0"
attr measurement "$name=tree_4_3, $un=05, $rep=11, $cd=lcd, $cr=lru, $fsize=1, $a=0.9, $sl=nrr, $ttl=1000, $variance=0.05"
attr name tree_4_3
attr network networks.${name}_u${un}_r${rep}_network
attr processid 2054
attr rep 11
attr repetition 0
attr replication #0
attr resultdir results
attr runnumber 110
attr seedset 11
attr sl nrr
attr ttl 1000
attr un 05
attr variance 0.05

scalar . 	a 	0.9
scalar . 	fsize 	1
scalar . 	rep 	11
scalar . 	ttl 	1000
scalar . 	un 	05
scalar . 	variance 	0.05
scalar tree_4_3_u05_r11_network.content_distribution 	repo-0 	0
scalar tree_4_3_u05_r11_network.content_distribution 	client-0 	13
scalar tree_4_3_u05_r11_network.content_distribution 	client-1 	14
scalar tree_4_3_u05_r11_network.content_distribution 	client-2 	15
scalar tree_4_3_u05_r11_network.content_distribution 	client-3 	16
scalar tree_4_3_u05_r11_network.content_distribution 	client-4 	17
scalar tree_4_3_u05_r11_network.content_distribution 	client-5 	18
scalar tree_4_3_u05_r11_network.content_distribution 	client-6 	19
scalar tree_4_3_u05_r11_network.content_distribution 	client-7 	20
scalar tree_4_3_u05_r11_network.content_distribution 	client-8 	21
scalar tree_4_3_u05_r11_network.content_distribution 	client-9 	22
scalar tree_4_3_u05_r11_network.content_distribution 	client-10 	23
scalar tree_4_3_u05_r11_network.content_distribution 	client-11 	24
scalar tree_4_3_u05_r11_network.content_distribution 	client-12 	25
scalar tree_4_3_u05_r11_network.content_distribution 	client-13 	26
scalar tree_4_3_u05_r11_network.content_distribution 	client-14 	27
scalar tree_4_3_u05_r11_network.content_distribution 	client-15 	28
scalar tree_4_3_u05_r11_network.content_distribution 	client-16 	29
scalar tree_4_3_u05_r11_network.content_distribution 	client-17 	30
scalar tree_4_3_u05_r11_network.content_distribution 	client-18 	31
scalar tree_4_3_u05_r11_network.content_distribution 	client-19 	32
scalar tree_4_3_u05_r11_network.content_distribution 	client-20 	33
scalar tree_4_3_u05_r11_network.content_distribution 	client-21 	34
scalar tree_4_3_u05_r11_network.content_distribution 	client-22 	35
scalar tree_4_3_u05_r11_network.content_distribution 	client-23 	36
scalar tree_4_3_u05_r11_network.content_distribution 	client-24 	37
scalar tree_4_3_u05_r11_network.content_distribution 	client-25 	38
scalar tree_4_3_u05_r11_network.content_distribution 	client-26 	39
scalar tree_4_3_u05_r11_network.content_distribution 	repo-0_card 	100000
scalar tree_4_3_u05_r11_network.content_distribution 	repo-0_price 	0
scalar tree_4_3_u05_r11_network.statistics 	stabilization_time 	767.7
scalar tree_4_3_u05_r11_network.statistics 	p_hit 	0.21835445287909
scalar tree_4_3_u05_r11_network.statistics 	interests 	24945.9
scalar tree_4_3_u05_r11_network.statistics 	data 	16841.425
scalar tree_4_3_u05_r11_network.statistics 	hdistance 	2.6958969510112
scalar tree_4_3_u05_r11_network.statistics 	avg_time 	0.00415619808
scalar tree_4_3_u05_r11_network.statistics 	downloads 	324169
scalar tree_4_3_u05_r11_network.statistics 	total_cost 	0
scalar tree_4_3_u05_r11_network.statistics 	total_replicas 	100000
scalar tree_4_3_u05_r11_network.statistics 	inner_hit 	0.38219879137117
scalar tree_4_3_u05_r11_network.node[0].core_layer 	interests[0] 	201522
scalar tree_4_3_u05_r11_network.node[0].core_layer 	repo_load[0] 	200272
scalar tree_4_3_u05_r11_network.node[0].core_layer 	data[0] 	0
scalar tree_4_3_u05_r11_network.node[0].core_layer 	repo_int[0] 	200272
scalar tree_4_3_u05_r11_network.node[0].content_store 	p_hit[0] 	0.0062027967169838
scalar tree_4_3_u05_r11_network.node[0].content_store 	hits[0] 	1250
scalar tree_4_3_u05_r11_network.node[0].content_store 	misses[0] 	200272
scalar tree_4_3_u05_r11_network.node[0].content_store 	decision_yes[0] 	200272
scalar tree_4_3_u05_r11_network.node[0].content_store 	decision_no[0] 	0
scalar tree_4_3_u05_r11_network.node[0].content_store 	decision_ratio[0] 	1
scalar tree_4_3_u05_r11_network.node[1].core_layer 	interests[1] 	124807
scalar tree_4_3_u05_r11_network.node[1].core_layer 	data[1] 	122133
scalar tree_4_3_u05_r11_network.node[1].content_store 	p_hit[1] 	0.021409055581818
scalar tree_4_3_u05_r11_network.node[1].content_store 	hits[1] 	2672
scalar tree_4_3_u05_r11_network.node[1].content_store 	misses[1] 	122135
scalar tree_4_3_u05_r11_network.node[1].content_store 	decision_yes[1] 	3266
scalar tree_4_3_u05_r11_network.node[1].content_store 	decision_no[1] 	118867
scalar tree_4_3_u05_r11_network.node[1].content_store 	decision_ratio[1] 	0.026741339359551
scalar tree_4_3_u05_r11_network.node[2].core_layer 	interests[2] 	65286
scalar tree_4_3_u05_r11_network.node[2].core_layer 	data[2] 	62369
scalar tree_4_3_u05_r11_network.node[2].content_store 	p_hit[2] 	0.044680329626566
scalar tree_4_3_u05_r11_network.node[2].content_store 	hits[2] 	2917
scalar tree_4_3_u05_r11_network.node[2].content_store 	misses[2] 	62369
scalar tree_4_3_u05_r11_network.node[2].content_store 	decision_yes[2] 	2582
scalar tree_4_3_u05_r11_network.node[2].content_store 	decision_no[2] 	59787
scalar tree_4_3_u05_r11_network.node[2].content_store 	decision_ratio[2] 	0.041398771825747
scalar tree_4_3_u05_r11_network.node[3].core_layer 	interests[3] 	26137
scalar tree_4_3_u05_r11_network.node[3].core_layer 	data[3] 	24239
scalar tree_4_3_u05_r11_network.node[3].content_store 	p_hit[3] 	0.072617362359873
scalar tree_4_3_u05_r11_network.node[3].content_store 	hits[3] 	1898
scalar tree_4_3_u05_r11_network.node[3].content_store 	misses[3] 	24239
scalar tree_4_3_u05_r11_network.node[3].content_store 	decision_yes[3] 	1260
scalar tree_4_3_u05_r11_network.node[3].content_store 	decision_no[3] 	22979
scalar tree_4_3_u05_r11_network.node[3].content_store 	decision_ratio[3] 	0.051982342505879
scalar tree_4_3_u05_r11_network.node[4].core_layer 	interests[4] 	35209
scalar tree_4_3_u05_r11_network.node[4].core_layer 	data[4] 	33329
scalar tree_4_3_u05_r11_network.node[4].content_store 	p_hit[4] 	0.05339543866625
scalar tree_4_3_u05_r11_network.node[4].content_store 	hits[4] 	1880
scalar tree_4_3_u05_r11_network.node[4].content_store 	misses[4] 	33329
scalar tree_4_3_u05_r11_network.node[4].content_store 	decision_yes[4] 	1784
scalar tree_4_3_u05_r11_network.node[4].content_store 	decision_no[4] 	31545
scalar tree_4_3_u05_r11_network.node[4].content_store 	decision_ratio[4] 	0.053526958504606
scalar tree_4_3_u05_r11_network.node[5].core_layer 	interests[5] 	36270
scalar tree_4_3_u05_r11_network.node[5].core_layer 	data[5] 	33691
scalar tree_4_3_u05_r11_network.node[5].content_store 	p_hit[5] 	0.071105596912049
scalar tree_4_3_u05_r11_network.node[5].content_store 	hits[5] 	2579
scalar tree_4_3_u05_r11_network.node[5].content_store 	misses[5] 	33691
scalar tree_4_3_u05_r11_network.node[5].content_store 	decision_yes[5] 	2938
scalar tree_4_3_u05_r11_network.node[5].content_store 	decision_no[5] 	30753
scalar tree_4_3_u05_r11_network.node[5].content_store 	decision_ratio[5] 	0.087204297883708
scalar tree_4_3_u05_r11_network.node[6].core_layer 	interests[6] 	10602
scalar tree_4_3_u05_r11_network.node[6].core_layer 	data[6] 	8722
scalar tree_4_3_u05_r11_network.node[6].content_store 	p_hit[6] 	0.17723071118657
scalar tree_4_3_u05_r11_network.node[6].content_store 	hits[6] 	1879
scalar tree_4_3_u05_r11_network.node[6].content_store 	misses[6] 	8723
scalar tree_4_3_u05_r11_network.node[6].content_store 	decision_yes[6] 	977
scalar tree_4_3_u05_r11_network.node[6].content_store 	decision_no[6] 	7745
scalar tree_4_3_u05_r11_network.node[6].content_store 	decision_ratio[6] 	0.11201559275396
scalar tree_4_3_u05_r11_network.node[7].core_layer 	interests[7] 	35824
scalar tree_4_3_u05_r11_network.node[7].core_layer 	data[7] 	33260
scalar tree_4_3_u05_r11_network.node[7].content_store 	p_hit[7] 	0.071572130415364
scalar tree_4_3_u05_r11_network.node[7].content_store 	hits[7] 	2564
scalar tree_4_3_u05_r11_network.node[7].content_store 	misses[7] 	33260
scalar tree_4_3_u05_r11_network.node[7].content_store 	decision_yes[7] 	3055
scalar tree_4_3_u05_r11_network.node[7].content_store 	decision_no[7] 	30205
scalar tree_4_3_u05_r11_network.node[7].content_store 	decision_ratio[7] 	0.091852074564041
scalar tree_4_3_u05_r11_network.node[8].core_layer 	interests[8] 	34969
scalar tree_4_3_u05_r11_network.node[8].core_layer 	data[8] 	33008
scalar tree_4_3_u05_r11_network.node[8].content_store 	p_hit[8] 	0.056078240727501
scalar tree_4_3_u05_r11_network.node[8].content_store 	hits[8] 	1961
scalar tree_4_3_u05_r11_network.node[8].content_store 	misses[8] 	33008
scalar tree_4_3_u05_r11_network.node[8].content_store 	decision_yes[8] 	1952
scalar tree_4_3_u05_r11_network.node[8].content_store 	decision_no[8] 	31056
scalar tree_4_3_u05_r11_network.node[8].content_store 	decision_ratio[8] 	0.05913717886573
scalar tree_4_3_u05_r11_network.node[9].core_layer 	interests[9] 	11053
scalar tree_4_3_u05_r11_network.node[9].core_layer 	data[9] 	9209
scalar tree_4_3_u05_r11_network.node[9].content_store 	p_hit[9] 	0.16674206097892
scalar tree_4_3_u05_r11_network.node[9].content_store 	hits[9] 	1843
scalar tree_4_3_u05_r11_network.node[9].content_store 	misses[9] 	9210
scalar tree_4_3_u05_r11_network.node[9].content_store 	decision_yes[9] 	1263
scalar tree_4_3_u05_r11_network.node[9].content_store 	decision_no[9] 	7946
scalar tree_4_3_u05_r11_network.node[9].content_store 	decision_ratio[9] 	0.13714844174177
scalar tree_4_3_u05_r11_network.node[10].core_layer 	interests[10] 	26435
scalar tree_4_3_u05_r11_network.node[10].core_layer 	data[10] 	24392
scalar tree_4_3_u05_r11_network.node[10].content_store 	p_hit[10] 	0.077283903915264
scalar tree_4_3_u05_r11_network.node[10].content_store 	hits[10] 	2043
scalar tree_4_3_u05_r11_network.node[10].content_store 	misses[10] 	24392
scalar tree_4_3_u05_r11_network.node[10].content_store 	decision_yes[10] 	1490
scalar tree_4_3_u05_r11_network.node[10].content_store 	decision_no[10] 	22902
scalar tree_4_3_u05_r11_network.node[10].content_store 	decision_ratio[10] 	0.061085601836668
scalar tree_4_3_u05_r11_network.node[11].core_layer 	interests[11] 	28054
scalar tree_4_3_u05_r11_network.node[11].core_layer 	data[11] 	25636
scalar tree_4_3_u05_r11_network.node[11].content_store 	p_hit[11] 	0.086155271975476
scalar tree_4_3_u05_r11_network.node[11].content_store 	hits[11] 	2417
scalar tree_4_3_u05_r11_network.node[11].content_store 	misses[11] 	25637
scalar tree_4_3_u05_r11_network.node[11].content_store 	decision_yes[11] 	2694
scalar tree_4_3_u05_r11_network.node[11].content_store 	decision_no[11] 	22941
scalar tree_4_3_u05_r11_network.node[11].content_store 	decision_ratio[11] 	0.10509069631363
scalar tree_4_3_u05_r11_network.node[12].core_layer 	interests[12] 	27122
scalar tree_4_3_u05_r11_network.node[12].core_layer 	data[12] 	25354
scalar tree_4_3_u05_r11_network.node[12].content_store 	p_hit[12] 	0.06511319224246
scalar tree_4_3_u05_r11_network.node[12].content_store 	hits[12] 	1766
scalar tree_4_3_u05_r11_network.node[12].content_store 	misses[12] 	25356
scalar tree_4_3_u05_r11_network.node[12].content_store 	decision_yes[12] 	1705
scalar tree_4_3_u05_r11_network.node[12].content_store 	decision_no[12] 	23649
scalar tree_4_3_u05_r11_network.node[12].content_store 	decision_ratio[12] 	0.067247771554784
scalar tree_4_3_u05_r11_network.node[13].core_layer 	interests[13] 	12339
scalar tree_4_3_u05_r11_network.node[13].core_layer 	data[13] 	8868
scalar tree_4_3_u05_r11_network.node[13].content_store 	p_hit[13] 	0.2813031850231
scalar tree_4_3_u05_r11_network.node[13].content_store 	hits[13] 	3471
scalar tree_4_3_u05_r11_network.node[13].content_store 	misses[13] 	8868
scalar tree_4_3_u05_r11_network.node[13].content_store 	decision_yes[13] 	414
scalar tree_4_3_u05_r11_network.node[13].content_store 	decision_no[13] 	8454
scalar tree_4_3_u05_r11_network.node[13].content_store 	decision_ratio[13] 	0.046684709066306
scalar tree_4_3_u05_r11_network.node[14].core_layer 	interests[14] 	12334
scalar tree_4_3_u05_r11_network.node[14].core_layer 	data[14] 	8920
scalar tree_4_3_u05_r11_network.node[14].content_store 	p_hit[14] 	0.27679584887303
scalar tree_4_3_u05_r11_network.node[14].content_store 	hits[14] 	3414
scalar tree_4_3_u05_r11_network.node[14].content_store 	misses[14] 	8920
scalar tree_4_3_u05_r11_network.node[14].content_store 	decision_yes[14] 	389
scalar tree_4_3_u05_r11_network.node[14].content_store 	decision_no[14] 	8531
scalar tree_4_3_u05_r11_network.node[14].content_store 	decision_ratio[14] 	0.043609865470852
scalar tree_4_3_u05_r11_network.node[15].core_layer 	interests[15] 	12472
scalar tree_4_3_u05_r11_network.node[15].core_layer 	data[15] 	8961
scalar tree_4_3_u05_r11_network.node[15].content_store 	p_hit[15] 	0.2815105837075
scalar tree_4_3_u05_r11_network.node[15].content_store 	hits[15] 	3511
scalar tree_4_3_u05_r11_network.node[15].content_store 	misses[15] 	8961
scalar tree_4_3_u05_r11_network.node[15].content_store 	decision_yes[15] 	714
scalar tree_4_3_u05_r11_network.node[15].content_store 	decision_no[15] 	8247
scalar tree_4_3_u05_r11_network.node[15].content_store 	decision_ratio[15] 	0.079678607298293
scalar tree_4_3_u05_r11_network.node[16].core_layer 	interests[16] 	12354
scalar tree_4_3_u05_r11_network.node[16].core_layer 	data[16] 	8856
scalar tree_4_3_u05_r11_network.node[16].content_store 	p_hit[16] 	0.28314715881496
scalar tree_4_3_u05_r11_network.node[16].content_store 	hits[16] 	3498
scalar tree_4_3_u05_r11_network.node[16].content_store 	misses[16] 	8856
scalar tree_4_3_u05_r11_network.node[16].content_store 	decision_yes[16] 	402
scalar tree_4_3_u05_r11_network.node[16].content_store 	decision_no[16] 	8454
scalar tree_4_3_u05_r11_network.node[16].content_store 	decision_ratio[16] 	0.045392953929539
scalar tree_4_3_u05_r11_network.node[17].core_layer 	interests[17] 	12425
scalar tree_4_3_u05_r11_network.node[17].core_layer 	data[17] 	8930
scalar tree_4_3_u05_r11_network.node[17].content_store 	p_hit[17] 	0.28136820925553
scalar tree_4_3_u05_r11_network.node[17].content_store 	hits[17] 	3496
scalar tree_4_3_u05_r11_network.node[17].content_store 	misses[17] 	8929
scalar tree_4_3_u05_r11_network.node[17].content_store 	decision_yes[17] 	442
scalar tree_4_3_u05_r11_network.node[17].content_store 	decision_no[17] 	8488
scalar tree_4_3_u05_r11_network.node[17].content_store 	decision_ratio[17] 	0.0494960806271
scalar tree_4_3_u05_r11_network.node[18].core_layer 	interests[18] 	12248
scalar tree_4_3_u05_r11_network.node[18].core_layer 	data[18] 	8745
scalar tree_4_3_u05_r11_network.node[18].content_store 	p_hit[18] 	0.28600587851078
scalar tree_4_3_u05_r11_network.node[18].content_store 	hits[18] 	3503
scalar tree_4_3_u05_r11_network.node[18].content_store 	misses[18] 	8745
scalar tree_4_3_u05_r11_network.node[18].content_store 	decision_yes[18] 	391
scalar tree_4_3_u05_r11_network.node[18].content_store 	decision_no[18] 	8354
scalar tree_4_3_u05_r11_network.node[18].content_store 	decision_ratio[18] 	0.044711263579188
scalar tree_4_3_u05_r11_network.node[19].core_layer 	interests[19] 	12605
scalar tree_4_3_u05_r11_network.node[19].core_layer 	data[19] 	8973
scalar tree_4_3_u05_r11_network.node[19].content_store 	p_hit[19] 	0.28806029353431
scalar tree_4_3_u05_r11_network.node[19].content_store 	hits[19] 	3631
scalar tree_4_3_u05_r11_network.node[19].content_store 	misses[19] 	8974
scalar tree_4_3_u05_r11_network.node[19].content_store 	decision_yes[19] 	701
scalar tree_4_3_u05_r11_network.node[19].content_store 	decision_no[19] 	8272
scalar tree_4_3_u05_r11_network.node[19].content_store 	decision_ratio[19] 	0.078123258664884
scalar tree_4_3_u05_r11_network.node[20].core_layer 	interests[20] 	12883
scalar tree_4_3_u05_r11_network.node[20].core_layer 	data[20] 	8972
scalar tree_4_3_u05_r11_network.node[20].content_store 	p_hit[20] 	0.30357835907785
scalar tree_4_3_u05_r11_network.node[20].content_store 	hits[20] 	3911
scalar tree_4_3_u05_r11_network.node[20].content_store 	misses[20] 	8972
scalar tree_4_3_u05_r11_network.node[20].content_store 	decision_yes[20] 	752
scalar tree_4_3_u05_r11_network.node[20].content_store 	decision_no[20] 	8220
scalar tree_4_3_u05_r11_network.node[20].content_store 	decision_ratio[20] 	0.083816317432011
scalar tree_4_3_u05_r11_network.node[21].core_layer 	interests[21] 	12239
scalar tree_4_3_u05_r11_network.node[21].core_layer 	data[21] 	8659
scalar tree_4_3_u05_r11_network.node[21].content_store 	p_hit[21] 	0.29242585178528
scalar tree_4_3_u05_r11_network.node[21].content_store 	hits[21] 	3579
scalar tree_4_3_u05_r11_network.node[21].content_store 	misses[21] 	8660
scalar tree_4_3_u05_r11_network.node[21].content_store 	decision_yes[21] 	361
scalar tree_4_3_u05_r11_network.node[21].content_store 	decision_no[21] 	8298
scalar tree_4_3_u05_r11_network.node[21].content_store 	decision_ratio[21] 	0.041690726411826
scalar tree_4_3_u05_r11_network.node[22].core_layer 	interests[22] 	12377
scalar tree_4_3_u05_r11_network.node[22].core_layer 	data[22] 	8701
scalar tree_4_3_u05_r11_network.node[22].content_store 	p_hit[22] 	0.29700250464571
scalar tree_4_3_u05_r11_network.node[22].content_store 	hits[22] 	3676
scalar tree_4_3_u05_r11_network.node[22].content_store 	misses[22] 	8701
scalar tree_4_3_u05_r11_network.node[22].content_store 	decision_yes[22] 	389
scalar tree_4_3_u05_r11_network.node[22].content_store 	decision_no[22] 	8312
scalar tree_4_3_u05_r11_network.node[22].content_store 	decision_ratio[22] 	0.044707504884496
scalar tree_4_3_u05_r11_network.node[23].core_layer 	interests[23] 	12398
scalar tree_4_3_u05_r11_network.node[23].core_layer 	data[23] 	8709
scalar tree_4_3_u05_r11_network.node[23].content_store 	p_hit[23] 	0.29754799161155
scalar tree_4_3_u05_r11_network.node[23].content_store 	hits[23] 	3689
scalar tree_4_3_u05_r11_network.node[23].content_store 	misses[23] 	8709
scalar tree_4_3_u05_r11_network.node[23].content_store 	decision_yes[23] 	421
scalar tree_4_3_u05_r11_network.node[23].content_store 	decision_no[23] 	8288
scalar tree_4_3_u05_r11_network.node[23].content_store 	decision_ratio[23] 	0.048340796876794
scalar tree_4_3_u05_r11_network.node[24].core_layer 	interests[24] 	12297
scalar tree_4_3_u05_r11_network.node[24].core_layer 	data[24] 	8832
scalar tree_4_3_u05_r11_network.node[24].content_store 	p_hit[24] 	0.2817760429373
scalar tree_4_3_u05_r11_network.node[24].content_store 	hits[24] 	3465
scalar tree_4_3_u05_r11_network.node[24].content_store 	misses[24] 	8832
scalar tree_4_3_u05_r11_network.node[24].content_store 	decision_yes[24] 	405
scalar tree_4_3_u05_r11_network.node[24].content_store 	decision_no[24] 	8427
scalar tree_4_3_u05_r11_network.node[24].content_store 	decision_ratio[24] 	0.04585597826087
scalar tree_4_3_u05_r11_network.node[25].core_layer 	interests[25] 	12276
scalar tree_4_3_u05_r11_network.node[25].core_layer 	data[25] 	8799
scalar tree_4_3_u05_r11_network.node[25].content_store 	p_hit[25] 	0.28323558162268
scalar tree_4_3_u05_r11_network.node[25].content_store 	hits[25] 	3477
scalar tree_4_3_u05_r11_network.node[25].content_store 	misses[25] 	8799
scalar tree_4_3_u05_r11_network.node[25].content_store 	decision_yes[25] 	394
scalar tree_4_3_u05_r11_network.node[25].content_store 	decision_no[25] 	8405
scalar tree_4_3_u05_r11_network.node[25].content_store 	decision_ratio[25] 	0.044777815660871
scalar tree_4_3_u05_r11_network.node[26].core_layer 	interests[26] 	12340
scalar tree_4_3_u05_r11_network.node[26].core_layer 	data[26] 	8802
scalar tree_4_3_u05_r11_network.node[26].content_store 	p_hit[26] 	0.28670988654781
scalar tree_4_3_u05_r11_network.node[26].content_store 	hits[26] 	3538
scalar tree_4_3_u05_r11_network.node[26].content_store 	misses[26] 	8802
scalar tree_4_3_u05_r11_network.node[26].content_store 	decision_yes[26] 	409
scalar tree_4_3_u05_r11_network.node[26].content_store 	decision_no[26] 	8393
scalar tree_4_3_u05_r11_network.node[26].content_store 	decision_ratio[26] 	0.046466712110884
scalar tree_4_3_u05_r11_network.node[27].core_layer 	interests[27] 	12286
scalar tree_4_3_u05_r11_network.node[27].core_layer 	data[27] 	8799
scalar tree_4_3_u05_r11_network.node[27].content_store 	p_hit[27] 	0.28381898095393
scalar tree_4_3_u05_r11_network.node[27].content_store 	hits[27] 	3487
scalar tree_4_3_u05_r11_network.node[27].content_store 	misses[27] 	8799
scalar tree_4_3_u05_r11_network.node[27].content_store 	decision_yes[27] 	421
scalar tree_4_3_u05_r11_network.node[27].content_store 	decision_no[27] 	8378
scalar tree_4_3_u05_r11_network.node[27].content_store 	decision_ratio[27] 	0.047846346175702
scalar tree_4_3_u05_r11_network.node[28].core_layer 	interests[28] 	12639
scalar tree_4_3_u05_r11_network.node[28].core_layer 	data[28] 	8858
scalar tree_4_3_u05_r11_network.node[28].content_store 	p_hit[28] 	0.29915341403592
scalar tree_4_3_u05_r11_network.node[28].content_store 	hits[28] 	3781
scalar tree_4_3_u05_r11_network.node[28].content_store 	misses[28] 	8858
scalar tree_4_3_u05_r11_network.node[28].content_store 	decision_yes[28] 	710
scalar tree_4_3_u05_r11_network.node[28].content_store 	decision_no[28] 	8148
scalar tree_4_3_u05_r11_network.node[28].content_store 	decision_ratio[28] 	0.080153533529013
scalar tree_4_3_u05_r11_network.node[29].core_layer 	interests[29] 	12457
scalar tree_4_3_u05_r11_network.node[29].core_layer 	data[29] 	8782
scalar tree_4_3_u05_r11_network.node[29].content_store 	p_hit[29] 	0.29501485108774
scalar tree_4_3_u05_r11_network.node[29].content_store 	hits[29] 	3675
scalar tree_4_3_u05_r11_network.node[29].content_store 	misses[29] 	8782
scalar tree_4_3_u05_r11_network.node[29].content_store 	decision_yes[29] 	730
scalar tree_4_3_u05_r11_network.node[29].content_store 	decision_no[29] 	8052
scalar tree_4_3_u05_r11_network.node[29].content_store 	decision_ratio[29] 	0.083124572990207
scalar tree_4_3_u05_r11_network.node[30].core_layer 	interests[30] 	12237
scalar tree_4_3_u05_r11_network.node[30].core_layer 	data[30] 	8904
scalar tree_4_3_u05_r11_network.node[30].content_store 	p_hit[30] 	0.27228895971235
scalar tree_4_3_u05_r11_network.node[30].content_store 	hits[30] 	3332
scalar tree_4_3_u05_r11_network.node[30].content_store 	misses[30] 	8905
scalar tree_4_3_u05_r11_network.node[30].content_store 	decision_yes[30] 	370
scalar tree_4_3_u05_r11_network.node[30].content_store 	decision_no[30] 	8534
scalar tree_4_3_u05_r11_network.node[30].content_store 	decision_ratio[30] 	0.041554357592093
scalar tree_4_3_u05_r11_network.node[31].core_layer 	interests[31] 	12203
scalar tree_4_3_u05_r11_network.node[31].core_layer 	data[31] 	8744
scalar tree_4_3_u05_r11_network.node[31].content_store 	p_hit[31] 	0.28345488814226
scalar tree_4_3_u05_r11_network.node[31].content_store 	hits[31] 	3459
scalar tree_4_3_u05_r11_network.node[31].content_store 	misses[31] 	8744
scalar tree_4_3_u05_r11_network.node[31].content_store 	decision_yes[31] 	355
scalar tree_4_3_u05_r11_network.node[31].content_store 	decision_no[31] 	8389
scalar tree_4_3_u05_r11_network.node[31].content_store 	decision_ratio[31] 	0.040599268069533
scalar tree_4_3_u05_r11_network.node[32].core_layer 	interests[32] 	12771
scalar tree_4_3_u05_r11_network.node[32].core_layer 	data[32] 	9052
scalar tree_4_3_u05_r11_network.node[32].content_store 	p_hit[32] 	0.29120664004385
scalar tree_4_3_u05_r11_network.node[32].content_store 	hits[32] 	3719
scalar tree_4_3_u05_r11_network.node[32].content_store 	misses[32] 	9052
scalar tree_4_3_u05_r11_network.node[32].content_store 	decision_yes[32] 	724
scalar tree_4_3_u05_r11_network.node[32].content_store 	decision_no[32] 	8328
scalar tree_4_3_u05_r11_network.node[32].content_store 	decision_ratio[32] 	0.07998232434821
scalar tree_4_3_u05_r11_network.node[33].core_layer 	interests[33] 	12492
scalar tree_4_3_u05_r11_network.node[33].core_layer 	data[33] 	8826
scalar tree_4_3_u05_r11_network.node[33].content_store 	p_hit[33] 	0.29346781940442
scalar tree_4_3_u05_r11_network.node[33].content_store 	hits[33] 	3666
scalar tree_4_3_u05_r11_network.node[33].content_store 	misses[33] 	8826
scalar tree_4_3_u05_r11_network.node[33].content_store 	decision_yes[33] 	708
scalar tree_4_3_u05_r11_network.node[33].content_store 	decision_no[33] 	8118
scalar tree_4_3_u05_r11_network.node[33].content_store 	decision_ratio[33] 	0.080217539089055
scalar tree_4_3_u05_r11_network.node[34].core_layer 	interests[34] 	12259
scalar tree_4_3_u05_r11_network.node[34].core_layer 	data[34] 	8689
scalar tree_4_3_u05_r11_network.node[34].content_store 	p_hit[34] 	0.29113304510972
scalar tree_4_3_u05_r11_network.node[34].content_store 	hits[34] 	3569
scalar tree_4_3_u05_r11_network.node[34].content_store 	misses[34] 	8690
scalar tree_4_3_u05_r11_network.node[34].content_store 	decision_yes[34] 	407
scalar tree_4_3_u05_r11_network.node[34].content_store 	decision_no[34] 	8282
scalar tree_4_3_u05_r11_network.node[34].content_store 	decision_ratio[34] 	0.046840833237427
scalar tree_4_3_u05_r11_network.node[35].core_layer 	interests[35] 	12220
scalar tree_4_3_u05_r11_network.node[35].core_layer 	data[35] 	8753
scalar tree_4_3_u05_r11_network.node[35].content_store 	p_hit[35] 	0.28371522094926
scalar tree_4_3_u05_r11_network.node[35].content_store 	hits[35] 	3467
scalar tree_4_3_u05_r11_network.node[35].content_store 	misses[35] 	8753
scalar tree_4_3_u05_r11_network.node[35].content_store 	decision_yes[35] 	466
scalar tree_4_3_u05_r11_network.node[35].content_store 	decision_no[35] 	8287
scalar tree_4_3_u05_r11_network.node[35].content_store 	decision_ratio[35] 	0.053238889523592
scalar tree_4_3_u05_r11_network.node[36].core_layer 	interests[36] 	12432
scalar tree_4_3_u05_r11_network.node[36].core_layer 	data[36] 	8864
scalar tree_4_3_u05_r11_network.node[36].content_store 	p_hit[36] 	0.28692084942085
scalar tree_4_3_u05_r11_network.node[36].content_store 	hits[36] 	3567
scalar tree_4_3_u05_r11_network.node[36].content_store 	misses[36] 	8865
scalar tree_4_3_u05_r11_network.node[36].content_store 	decision_yes[36] 	400
scalar tree_4_3_u05_r11_network.node[36].content_store 	decision_no[36] 	8464
scalar tree_4_3_u05_r11_network.node[36].content_store 	decision_ratio[36] 	0.045126353790614
scalar tree_4_3_u05_r11_network.node[37].core_layer 	interests[37] 	12364
scalar tree_4_3_u05_r11_network.node[37].core_layer 	data[37] 	8742
scalar tree_4_3_u05_r11_network.node[37].content_store 	p_hit[37] 	0.29286638628276
scalar tree_4_3_u05_r11_network.node[37].content_store 	hits[37] 	3621
scalar tree_4_3_u05_r11_network.node[37].content_store 	misses[37] 	8743
scalar tree_4_3_u05_r11_network.node[37].content_store 	decision_yes[37] 	377
scalar tree_4_3_u05_r11_network.node[37].content_store 	decision_no[37] 	8365
scalar tree_4_3_u05_r11_network.node[37].content_store 	decision_ratio[37] 	0.043125142987875
scalar tree_4_3_u05_r11_network.node[38].core_layer 	interests[38] 	12304
scalar tree_4_3_u05_r11_network.node[38].core_layer 	data[38] 	8849
scalar tree_4_3_u05_r11_network.node[38].content_store 	p_hit[38] 	0.28080299089727
scalar tree_4_3_u05_r11_network.node[38].content_store 	hits[38] 	3455
scalar tree_4_3_u05_r11_network.node[38].content_store 	misses[38] 	8849
scalar tree_4_3_u05_r11_network.node[38].content_store 	decision_yes[38] 	418
scalar tree_4_3_u05_r11_network.node[38].content_store 	decision_no[38] 	8431
scalar tree_4_3_u05_r11_network.node[38].content_store 	decision_ratio[38] 	0.047236975929484
scalar tree_4_3_u05_r11_network.node[39].core_layer 	interests[39] 	12295
scalar tree_4_3_u05_r11_network.node[39].core_layer 	data[39] 	8726
scalar tree_4_3_u05_r11_network.node[39].content_store 	p_hit[39] 	0.29028060187068
scalar tree_4_3_u05_r11_network.node[39].content_store 	hits[39] 	3569
scalar tree_4_3_u05_r11_network.node[39].content_store 	misses[39] 	8726
scalar tree_4_3_u05_r11_network.node[39].content_store 	decision_yes[39] 	404
scalar tree_4_3_u05_r11_network.node[39].content_store 	decision_no[39] 	8322
scalar tree_4_3_u05_r11_network.node[39].content_store 	decision_ratio[39] 	0.046298418519367
scalar tree_4_3_u05_r11_network.client[13] 	hdistance[13] 	2.7146404038732
scalar tree_4_3_u05_r11_network.client[13] 	downloads[13] 	12083
scalar tree_4_3_u05_r11_network.client[13] 	avg_time[13] 	0.004191671205
scalar tree_4_3_u05_r11_network.client[14] 	hdistance[14] 	2.7376561078488
scalar tree_4_3_u05_r11_network.client[14] 	downloads[14] 	12091
scalar tree_4_3_u05_r11_network.client[14] 	avg_time[14] 	0.00422043368
scalar tree_4_3_u05_r11_network.client[15] 	hdistance[15] 	2.7174943848266
scalar tree_4_3_u05_r11_network.client[15] 	downloads[15] 	12021
scalar tree_4_3_u05_r11_network.client[15] 	avg_time[15] 	0.004175356803
scalar tree_4_3_u05_r11_network.client[16] 	hdistance[16] 	2.7149669539028
scalar tree_4_3_u05_r11_network.client[16] 	downloads[16] 	11953
scalar tree_4_3_u05_r11_network.client[16] 	avg_time[16] 	0.004193253938
scalar tree_4_3_u05_r11_network.client[17] 	hdistance[17] 	2.7157351962741
scalar tree_4_3_u05_r11_network.client[17] 	downloads[17] 	12024
scalar tree_4_3_u05_r11_network.client[17] 	avg_time[17] 	0.004194940437
scalar tree_4_3_u05_r11_network.client[18] 	hdistance[18] 	2.701028320971
scalar tree_4_3_u05_r11_network.client[18] 	downloads[18] 	11864
scalar tree_4_3_u05_r11_network.client[18] 	avg_time[18] 	0.00417228293
scalar tree_4_3_u05_r11_network.client[19] 	hdistance[19] 	2.6905330806624
scalar tree_4_3_u05_r11_network.client[19] 	downloads[19] 	12137
scalar tree_4_3_u05_r11_network.client[19] 	avg_time[19] 	0.00414138282
scalar tree_4_3_u05_r11_network.client[20] 	hdistance[20] 	2.6464803736786
scalar tree_4_3_u05_r11_network.client[20] 	downloads[20] 	12203
scalar tree_4_3_u05_r11_network.client[20] 	avg_time[20] 	0.004074896551
scalar tree_4_3_u05_r11_network.client[21] 	hdistance[21] 	2.6651748715399
scalar tree_4_3_u05_r11_network.client[21] 	downloads[21] 	12066
scalar tree_4_3_u05_r11_network.client[21] 	avg_time[21] 	0.004107903511
scalar tree_4_3_u05_r11_network.client[22] 	hdistance[22] 	2.6743619879113
scalar tree_4_3_u05_r11_network.client[22] 	downloads[22] 	11912
scalar tree_4_3_u05_r11_network.client[22] 	avg_time[22] 	0.004132468461
scalar tree_4_3_u05_r11_network.client[23] 	hdistance[23] 	2.6486373864489
scalar tree_4_3_u05_r11_network.client[23] 	downloads[23] 	11999
scalar tree_4_3_u05_r11_network.client[23] 	avg_time[23] 	0.004094645223
scalar tree_4_3_u05_r11_network.client[24] 	hdistance[24] 	2.7199225980145
scalar tree_4_3_u05_r11_network.client[24] 	downloads[24] 	11886
scalar tree_4_3_u05_r11_network.client[24] 	avg_time[24] 	0.004201578729
scalar tree_4_3_u05_r11_network.client[25] 	hdistance[25] 	2.7256326735154
scalar tree_4_3_u05_r11_network.client[25] 	downloads[25] 	11973
scalar tree_4_3_u05_r11_network.client[25] 	avg_time[25] 	0.004201617327
scalar tree_4_3_u05_r11_network.client[26] 	hdistance[26] 	2.7116294513157
scalar tree_4_3_u05_r11_network.client[26] 	downloads[26] 	12047
scalar tree_4_3_u05_r11_network.client[26] 	avg_time[26] 	0.004176804488
scalar tree_4_3_u05_r11_network.client[27] 	hdistance[27] 	2.7148092620356
scalar tree_4_3_u05_r11_network.client[27] 	downloads[27] 	12006
scalar tree_4_3_u05_r11_network.client[27] 	avg_time[27] 	0.004184404839
scalar tree_4_3_u05_r11_network.client[28] 	hdistance[28] 	2.6555127990631
scalar tree_4_3_u05_r11_network.client[28] 	downloads[28] 	11954
scalar tree_4_3_u05_r11_network.client[28] 	avg_time[28] 	0.004094191421
scalar tree_4_3_u05_r11_network.client[29] 	hdistance[29] 	2.6701292120598
scalar tree_4_3_u05_r11_network.client[29] 	downloads[29] 	11841
scalar tree_4_3_u05_r11_network.client[29] 	avg_time[29] 	0.004114852203
scalar tree_4_3_u05_r11_network.client[30] 	hdistance[30] 	2.7205565678317
scalar tree_4_3_u05_r11_network.client[30] 	downloads[30] 	12074
scalar tree_4_3_u05_r11_network.client[30] 	avg_time[30] 	0.004201255874
scalar tree_4_3_u05_r11_network.client[31] 	hdistance[31] 	2.684998751976
scalar tree_4_3_u05_r11_network.client[31] 	downloads[31] 	12019
scalar tree_4_3_u05_r11_network.client[31] 	avg_time[31] 	0.004148595069
scalar tree_4_3_u05_r11_network.client[32] 	hdistance[32] 	2.6836195508587
scalar tree_4_3_u05_r11_network.client[32] 	downloads[32] 	12112
scalar tree_4_3_u05_r11_network.client[32] 	avg_time[32] 	0.004135234749
scalar tree_4_3_u05_r11_network.client[33] 	hdistance[33] 	2.6752984698167
scalar tree_4_3_u05_r11_network.client[33] 	downloads[33] 	11894
scalar tree_4_3_u05_r11_network.client[33] 	avg_time[33] 	0.004124429509
scalar tree_4_3_u05_r11_network.client[34] 	hdistance[34] 	2.6804097741204
scalar tree_4_3_u05_r11_network.client[34] 	downloads[34] 	11909
scalar tree_4_3_u05_r11_network.client[34] 	avg_time[34] 	0.00413115829
scalar tree_4_3_u05_r11_network.client[35] 	hdistance[35] 	2.690901432182
scalar tree_4_3_u05_r11_network.client[35] 	downloads[35] 	11870
scalar tree_4_3_u05_r11_network.client[35] 	avg_time[35] 	0.004154335714
scalar tree_4_3_u05_r11_network.client[36] 	hdistance[36] 	2.703202787919
scalar tree_4_3_u05_r11_network.client[36] 	downloads[36] 	12052
scalar tree_4_3_u05_r11_network.client[36] 	avg_time[36] 	0.004169263489
scalar tree_4_3_u05_r11_network.client[37] 	hdistance[37] 	2.6985136251032
scalar tree_4_3_u05_r11_network.client[37] 	downloads[37] 	12110
scalar tree_4_3_u05_r11_network.client[37] 	avg_time[37] 	0.004140915477
scalar tree_4_3_u05_r11_network.client[38] 	hdistance[38] 	2.7265482317782
scalar tree_4_3_u05_r11_network.client[38] 	downloads[38] 	12046
scalar tree_4_3_u05_r11_network.client[38] 	avg_time[38] 	0.004191927909
scalar tree_4_3_u05_r11_network.client[39] 	hdistance[39] 	2.7008234217749
scalar tree_4_3_u05_r11_network.client[39] 	downloads[39] 	12023
scalar tree_4_3_u05_r11_network.client[39] 	avg_time[39] 	0.004147547527
