version 2
run General-111-20160819-12:33:14-2054
attr a 0.9
attr cd lcd
attr configname General
attr cr lru
attr datetime 20160819-12:33:14
attr experiment General
attr fsize 1
attr inifile hw5115/scenario_A/NRR-LCD.ini
attr iterationvars "$name=tree_4_3, $un=05, $rep=12, $cd=lcd, $cr=lru, $fsize=1, $a=0.9, $sl=nrr, $ttl=1000, $variance=0.05"
attr iterationvars2 "$name=tree_4_3, $un=05, $rep=12, $cd=lcd, $cr=lru, $fsize=1, $a=0.9, $sl=nrr, $ttl=1000, $variance=0.05, $repetition=0"
attr measurement "$name=tree_4_3, $un=05, $rep=12, $cd=lcd, $cr=lru, $fsize=1, $a=0.9, $sl=nrr, $ttl=1000, $variance=0.05"
attr name tree_4_3
attr network networks.${name}_u${un}_r${rep}_network
attr processid 2054
attr rep 12
attr repetition 0
attr replication #0
attr resultdir results
attr runnumber 111
attr seedset 12
attr sl nrr
attr ttl 1000
attr un 05
attr variance 0.05

scalar . 	a 	0.9
scalar . 	fsize 	1
scalar . 	rep 	12
scalar . 	ttl 	1000
scalar . 	un 	05
scalar . 	variance 	0.05
scalar tree_4_3_u05_r12_network.content_distribution 	repo-0 	0
scalar tree_4_3_u05_r12_network.content_distribution 	client-0 	13
scalar tree_4_3_u05_r12_network.content_distribution 	client-1 	14
scalar tree_4_3_u05_r12_network.content_distribution 	client-2 	15
scalar tree_4_3_u05_r12_network.content_distribution 	client-3 	16
scalar tree_4_3_u05_r12_network.content_distribution 	client-4 	17
scalar tree_4_3_u05_r12_network.content_distribution 	client-5 	18
scalar tree_4_3_u05_r12_network.content_distribution 	client-6 	19
scalar tree_4_3_u05_r12_network.content_distribution 	client-7 	20
scalar tree_4_3_u05_r12_network.content_distribution 	client-8 	21
scalar tree_4_3_u05_r12_network.content_distribution 	client-9 	22
scalar tree_4_3_u05_r12_network.content_distribution 	client-10 	23
scalar tree_4_3_u05_r12_network.content_distribution 	client-11 	24
scalar tree_4_3_u05_r12_network.content_distribution 	client-12 	25
scalar tree_4_3_u05_r12_network.content_distribution 	client-13 	26
scalar tree_4_3_u05_r12_network.content_distribution 	client-14 	27
scalar tree_4_3_u05_r12_network.content_distribution 	client-15 	28
scalar tree_4_3_u05_r12_network.content_distribution 	client-16 	29
scalar tree_4_3_u05_r12_network.content_distribution 	client-17 	30
scalar tree_4_3_u05_r12_network.content_distribution 	client-18 	31
scalar tree_4_3_u05_r12_network.content_distribution 	client-19 	32
scalar tree_4_3_u05_r12_network.content_distribution 	client-20 	33
scalar tree_4_3_u05_r12_network.content_distribution 	client-21 	34
scalar tree_4_3_u05_r12_network.content_distribution 	client-22 	35
scalar tree_4_3_u05_r12_network.content_distribution 	client-23 	36
scalar tree_4_3_u05_r12_network.content_distribution 	client-24 	37
scalar tree_4_3_u05_r12_network.content_distribution 	client-25 	38
scalar tree_4_3_u05_r12_network.content_distribution 	client-26 	39
scalar tree_4_3_u05_r12_network.content_distribution 	repo-0_card 	100000
scalar tree_4_3_u05_r12_network.content_distribution 	repo-0_price 	0
scalar tree_4_3_u05_r12_network.statistics 	stabilization_time 	634.2
scalar tree_4_3_u05_r12_network.statistics 	p_hit 	0.21432515977114
scalar tree_4_3_u05_r12_network.statistics 	interests 	24946.9
scalar tree_4_3_u05_r12_network.statistics 	data 	16841.825
scalar tree_4_3_u05_r12_network.statistics 	hdistance 	2.7007528304677
scalar tree_4_3_u05_r12_network.statistics 	avg_time 	0.004155880265
scalar tree_4_3_u05_r12_network.statistics 	downloads 	324197
scalar tree_4_3_u05_r12_network.statistics 	total_cost 	0
scalar tree_4_3_u05_r12_network.statistics 	total_replicas 	100000
scalar tree_4_3_u05_r12_network.statistics 	inner_hit 	0.37718115836976
scalar tree_4_3_u05_r12_network.node[0].core_layer 	interests[0] 	203220
scalar tree_4_3_u05_r12_network.node[0].core_layer 	repo_load[0] 	201916
scalar tree_4_3_u05_r12_network.node[0].core_layer 	data[0] 	0
scalar tree_4_3_u05_r12_network.node[0].core_layer 	repo_int[0] 	201916
scalar tree_4_3_u05_r12_network.node[0].content_store 	p_hit[0] 	0.0064166912705442
scalar tree_4_3_u05_r12_network.node[0].content_store 	hits[0] 	1304
scalar tree_4_3_u05_r12_network.node[0].content_store 	misses[0] 	201916
scalar tree_4_3_u05_r12_network.node[0].content_store 	decision_yes[0] 	201916
scalar tree_4_3_u05_r12_network.node[0].content_store 	decision_no[0] 	0
scalar tree_4_3_u05_r12_network.node[0].content_store 	decision_ratio[0] 	1
scalar tree_4_3_u05_r12_network.node[1].core_layer 	interests[1] 	70123
scalar tree_4_3_u05_r12_network.node[1].core_layer 	data[1] 	68863
scalar tree_4_3_u05_r12_network.node[1].content_store 	p_hit[1] 	0.017954166250731
scalar tree_4_3_u05_r12_network.node[1].content_store 	hits[1] 	1259
scalar tree_4_3_u05_r12_network.node[1].content_store 	misses[1] 	68864
scalar tree_4_3_u05_r12_network.node[1].content_store 	decision_yes[1] 	1172
scalar tree_4_3_u05_r12_network.node[1].content_store 	decision_no[1] 	67691
scalar tree_4_3_u05_r12_network.node[1].content_store 	decision_ratio[1] 	0.017019299188243
scalar tree_4_3_u05_r12_network.node[2].core_layer 	interests[2] 	95559
scalar tree_4_3_u05_r12_network.node[2].core_layer 	data[2] 	92822
scalar tree_4_3_u05_r12_network.node[2].content_store 	p_hit[2] 	0.028631526072897
scalar tree_4_3_u05_r12_network.node[2].content_store 	hits[2] 	2736
scalar tree_4_3_u05_r12_network.node[2].content_store 	misses[2] 	92823
scalar tree_4_3_u05_r12_network.node[2].content_store 	decision_yes[2] 	3134
scalar tree_4_3_u05_r12_network.node[2].content_store 	decision_no[2] 	89688
scalar tree_4_3_u05_r12_network.node[2].content_store 	decision_ratio[2] 	0.033763547434875
scalar tree_4_3_u05_r12_network.node[3].core_layer 	interests[3] 	49708
scalar tree_4_3_u05_r12_network.node[3].core_layer 	data[3] 	47598
scalar tree_4_3_u05_r12_network.node[3].content_store 	p_hit[3] 	0.042447895710952
scalar tree_4_3_u05_r12_network.node[3].content_store 	hits[3] 	2110
scalar tree_4_3_u05_r12_network.node[3].content_store 	misses[3] 	47598
scalar tree_4_3_u05_r12_network.node[3].content_store 	decision_yes[3] 	1666
scalar tree_4_3_u05_r12_network.node[3].content_store 	decision_no[3] 	45932
scalar tree_4_3_u05_r12_network.node[3].content_store 	decision_ratio[3] 	0.035001470650027
scalar tree_4_3_u05_r12_network.node[4].core_layer 	interests[4] 	34026
scalar tree_4_3_u05_r12_network.node[4].core_layer 	data[4] 	32292
scalar tree_4_3_u05_r12_network.node[4].content_store 	p_hit[4] 	0.050931640510198
scalar tree_4_3_u05_r12_network.node[4].content_store 	hits[4] 	1733
scalar tree_4_3_u05_r12_network.node[4].content_store 	misses[4] 	32293
scalar tree_4_3_u05_r12_network.node[4].content_store 	decision_yes[4] 	1489
scalar tree_4_3_u05_r12_network.node[4].content_store 	decision_no[4] 	30803
scalar tree_4_3_u05_r12_network.node[4].content_store 	decision_ratio[4] 	0.046110491762666
scalar tree_4_3_u05_r12_network.node[5].core_layer 	interests[5] 	29153
scalar tree_4_3_u05_r12_network.node[5].core_layer 	data[5] 	26177
scalar tree_4_3_u05_r12_network.node[5].content_store 	p_hit[5] 	0.10208211847837
scalar tree_4_3_u05_r12_network.node[5].content_store 	hits[5] 	2976
scalar tree_4_3_u05_r12_network.node[5].content_store 	misses[5] 	26177
scalar tree_4_3_u05_r12_network.node[5].content_store 	decision_yes[5] 	3262
scalar tree_4_3_u05_r12_network.node[5].content_store 	decision_no[5] 	22915
scalar tree_4_3_u05_r12_network.node[5].content_store 	decision_ratio[5] 	0.12461321006991
scalar tree_4_3_u05_r12_network.node[6].core_layer 	interests[6] 	18152
scalar tree_4_3_u05_r12_network.node[6].core_layer 	data[6] 	16924
scalar tree_4_3_u05_r12_network.node[6].content_store 	p_hit[6] 	0.067650947553989
scalar tree_4_3_u05_r12_network.node[6].content_store 	hits[6] 	1228
scalar tree_4_3_u05_r12_network.node[6].content_store 	misses[6] 	16924
scalar tree_4_3_u05_r12_network.node[6].content_store 	decision_yes[6] 	938
scalar tree_4_3_u05_r12_network.node[6].content_store 	decision_no[6] 	15986
scalar tree_4_3_u05_r12_network.node[6].content_store 	decision_ratio[6] 	0.055424249586386
scalar tree_4_3_u05_r12_network.node[7].core_layer 	interests[7] 	34452
scalar tree_4_3_u05_r12_network.node[7].core_layer 	data[7] 	32566
scalar tree_4_3_u05_r12_network.node[7].content_store 	p_hit[7] 	0.0547428306049
scalar tree_4_3_u05_r12_network.node[7].content_store 	hits[7] 	1886
scalar tree_4_3_u05_r12_network.node[7].content_store 	misses[7] 	32566
scalar tree_4_3_u05_r12_network.node[7].content_store 	decision_yes[7] 	1801
scalar tree_4_3_u05_r12_network.node[7].content_store 	decision_no[7] 	30765
scalar tree_4_3_u05_r12_network.node[7].content_store 	decision_ratio[7] 	0.055303076828594
scalar tree_4_3_u05_r12_network.node[8].core_layer 	interests[8] 	26994
scalar tree_4_3_u05_r12_network.node[8].core_layer 	data[8] 	24673
scalar tree_4_3_u05_r12_network.node[8].content_store 	p_hit[8] 	0.08598207008965
scalar tree_4_3_u05_r12_network.node[8].content_store 	hits[8] 	2321
scalar tree_4_3_u05_r12_network.node[8].content_store 	misses[8] 	24673
scalar tree_4_3_u05_r12_network.node[8].content_store 	decision_yes[8] 	1754
scalar tree_4_3_u05_r12_network.node[8].content_store 	decision_no[8] 	22919
scalar tree_4_3_u05_r12_network.node[8].content_store 	decision_ratio[8] 	0.071089855307421
scalar tree_4_3_u05_r12_network.node[9].core_layer 	interests[9] 	20292
scalar tree_4_3_u05_r12_network.node[9].core_layer 	data[9] 	17745
scalar tree_4_3_u05_r12_network.node[9].content_store 	p_hit[9] 	0.12551744529864
scalar tree_4_3_u05_r12_network.node[9].content_store 	hits[9] 	2547
scalar tree_4_3_u05_r12_network.node[9].content_store 	misses[9] 	17745
scalar tree_4_3_u05_r12_network.node[9].content_store 	decision_yes[9] 	2200
scalar tree_4_3_u05_r12_network.node[9].content_store 	decision_no[9] 	15545
scalar tree_4_3_u05_r12_network.node[9].content_store 	decision_ratio[9] 	0.12397858551705
scalar tree_4_3_u05_r12_network.node[10].core_layer 	interests[10] 	36057
scalar tree_4_3_u05_r12_network.node[10].core_layer 	data[10] 	33727
scalar tree_4_3_u05_r12_network.node[10].content_store 	p_hit[10] 	0.064647641234712
scalar tree_4_3_u05_r12_network.node[10].content_store 	hits[10] 	2331
scalar tree_4_3_u05_r12_network.node[10].content_store 	misses[10] 	33726
scalar tree_4_3_u05_r12_network.node[10].content_store 	decision_yes[10] 	2508
scalar tree_4_3_u05_r12_network.node[10].content_store 	decision_no[10] 	31219
scalar tree_4_3_u05_r12_network.node[10].content_store 	decision_ratio[10] 	0.074361787292081
scalar tree_4_3_u05_r12_network.node[11].core_layer 	interests[11] 	26928
scalar tree_4_3_u05_r12_network.node[11].core_layer 	data[11] 	24905
scalar tree_4_3_u05_r12_network.node[11].content_store 	p_hit[11] 	0.075089126559715
scalar tree_4_3_u05_r12_network.node[11].content_store 	hits[11] 	2022
scalar tree_4_3_u05_r12_network.node[11].content_store 	misses[11] 	24906
scalar tree_4_3_u05_r12_network.node[11].content_store 	decision_yes[11] 	1744
scalar tree_4_3_u05_r12_network.node[11].content_store 	decision_no[11] 	23161
scalar tree_4_3_u05_r12_network.node[11].content_store 	decision_ratio[11] 	0.070026099176872
scalar tree_4_3_u05_r12_network.node[12].core_layer 	interests[12] 	18371
scalar tree_4_3_u05_r12_network.node[12].core_layer 	data[12] 	17022
scalar tree_4_3_u05_r12_network.node[12].content_store 	p_hit[12] 	0.07343095095531
scalar tree_4_3_u05_r12_network.node[12].content_store 	hits[12] 	1349
scalar tree_4_3_u05_r12_network.node[12].content_store 	misses[12] 	17022
scalar tree_4_3_u05_r12_network.node[12].content_store 	decision_yes[12] 	1051
scalar tree_4_3_u05_r12_network.node[12].content_store 	decision_no[12] 	15971
scalar tree_4_3_u05_r12_network.node[12].content_store 	decision_ratio[12] 	0.061743625895899
scalar tree_4_3_u05_r12_network.node[13].core_layer 	interests[13] 	12182
scalar tree_4_3_u05_r12_network.node[13].core_layer 	data[13] 	8853
scalar tree_4_3_u05_r12_network.node[13].content_store 	p_hit[13] 	0.27318995238877
scalar tree_4_3_u05_r12_network.node[13].content_store 	hits[13] 	3328
scalar tree_4_3_u05_r12_network.node[13].content_store 	misses[13] 	8854
scalar tree_4_3_u05_r12_network.node[13].content_store 	decision_yes[13] 	392
scalar tree_4_3_u05_r12_network.node[13].content_store 	decision_no[13] 	8461
scalar tree_4_3_u05_r12_network.node[13].content_store 	decision_ratio[13] 	0.044278775556309
scalar tree_4_3_u05_r12_network.node[14].core_layer 	interests[14] 	12642
scalar tree_4_3_u05_r12_network.node[14].core_layer 	data[14] 	8881
scalar tree_4_3_u05_r12_network.node[14].content_store 	p_hit[14] 	0.29750039550704
scalar tree_4_3_u05_r12_network.node[14].content_store 	hits[14] 	3761
scalar tree_4_3_u05_r12_network.node[14].content_store 	misses[14] 	8881
scalar tree_4_3_u05_r12_network.node[14].content_store 	decision_yes[14] 	728
scalar tree_4_3_u05_r12_network.node[14].content_store 	decision_no[14] 	8153
scalar tree_4_3_u05_r12_network.node[14].content_store 	decision_ratio[14] 	0.08197275081635
scalar tree_4_3_u05_r12_network.node[15].core_layer 	interests[15] 	12195
scalar tree_4_3_u05_r12_network.node[15].core_layer 	data[15] 	8755
scalar tree_4_3_u05_r12_network.node[15].content_store 	p_hit[15] 	0.28208282082821
scalar tree_4_3_u05_r12_network.node[15].content_store 	hits[15] 	3440
scalar tree_4_3_u05_r12_network.node[15].content_store 	misses[15] 	8755
scalar tree_4_3_u05_r12_network.node[15].content_store 	decision_yes[15] 	382
scalar tree_4_3_u05_r12_network.node[15].content_store 	decision_no[15] 	8373
scalar tree_4_3_u05_r12_network.node[15].content_store 	decision_ratio[15] 	0.04363221016562
scalar tree_4_3_u05_r12_network.node[16].core_layer 	interests[16] 	12688
scalar tree_4_3_u05_r12_network.node[16].core_layer 	data[16] 	9059
scalar tree_4_3_u05_r12_network.node[16].content_store 	p_hit[16] 	0.28601828499369
scalar tree_4_3_u05_r12_network.node[16].content_store 	hits[16] 	3629
scalar tree_4_3_u05_r12_network.node[16].content_store 	misses[16] 	9059
scalar tree_4_3_u05_r12_network.node[16].content_store 	decision_yes[16] 	789
scalar tree_4_3_u05_r12_network.node[16].content_store 	decision_no[16] 	8270
scalar tree_4_3_u05_r12_network.node[16].content_store 	decision_ratio[16] 	0.087095705927807
scalar tree_4_3_u05_r12_network.node[17].core_layer 	interests[17] 	12431
scalar tree_4_3_u05_r12_network.node[17].core_layer 	data[17] 	8731
scalar tree_4_3_u05_r12_network.node[17].content_store 	p_hit[17] 	0.29764298930094
scalar tree_4_3_u05_r12_network.node[17].content_store 	hits[17] 	3700
scalar tree_4_3_u05_r12_network.node[17].content_store 	misses[17] 	8731
scalar tree_4_3_u05_r12_network.node[17].content_store 	decision_yes[17] 	406
scalar tree_4_3_u05_r12_network.node[17].content_store 	decision_no[17] 	8325
scalar tree_4_3_u05_r12_network.node[17].content_store 	decision_ratio[17] 	0.04650097354255
scalar tree_4_3_u05_r12_network.node[18].core_layer 	interests[18] 	12131
scalar tree_4_3_u05_r12_network.node[18].core_layer 	data[18] 	8640
scalar tree_4_3_u05_r12_network.node[18].content_store 	p_hit[18] 	0.28777512158932
scalar tree_4_3_u05_r12_network.node[18].content_store 	hits[18] 	3491
scalar tree_4_3_u05_r12_network.node[18].content_store 	misses[18] 	8640
scalar tree_4_3_u05_r12_network.node[18].content_store 	decision_yes[18] 	423
scalar tree_4_3_u05_r12_network.node[18].content_store 	decision_no[18] 	8217
scalar tree_4_3_u05_r12_network.node[18].content_store 	decision_ratio[18] 	0.048958333333333
scalar tree_4_3_u05_r12_network.node[19].core_layer 	interests[19] 	12296
scalar tree_4_3_u05_r12_network.node[19].core_layer 	data[19] 	8853
scalar tree_4_3_u05_r12_network.node[19].content_store 	p_hit[19] 	0.28000975927131
scalar tree_4_3_u05_r12_network.node[19].content_store 	hits[19] 	3443
scalar tree_4_3_u05_r12_network.node[19].content_store 	misses[19] 	8853
scalar tree_4_3_u05_r12_network.node[19].content_store 	decision_yes[19] 	368
scalar tree_4_3_u05_r12_network.node[19].content_store 	decision_no[19] 	8485
scalar tree_4_3_u05_r12_network.node[19].content_store 	decision_ratio[19] 	0.041567830114086
scalar tree_4_3_u05_r12_network.node[20].core_layer 	interests[20] 	12725
scalar tree_4_3_u05_r12_network.node[20].core_layer 	data[20] 	8938
scalar tree_4_3_u05_r12_network.node[20].content_store 	p_hit[20] 	0.29760314341847
scalar tree_4_3_u05_r12_network.node[20].content_store 	hits[20] 	3787
scalar tree_4_3_u05_r12_network.node[20].content_store 	misses[20] 	8938
scalar tree_4_3_u05_r12_network.node[20].content_store 	decision_yes[20] 	730
scalar tree_4_3_u05_r12_network.node[20].content_store 	decision_no[20] 	8208
scalar tree_4_3_u05_r12_network.node[20].content_store 	decision_ratio[20] 	0.081673752517342
scalar tree_4_3_u05_r12_network.node[21].core_layer 	interests[21] 	12114
scalar tree_4_3_u05_r12_network.node[21].core_layer 	data[21] 	8634
scalar tree_4_3_u05_r12_network.node[21].content_store 	p_hit[21] 	0.28727092620109
scalar tree_4_3_u05_r12_network.node[21].content_store 	hits[21] 	3480
scalar tree_4_3_u05_r12_network.node[21].content_store 	misses[21] 	8634
scalar tree_4_3_u05_r12_network.node[21].content_store 	decision_yes[21] 	343
scalar tree_4_3_u05_r12_network.node[21].content_store 	decision_no[21] 	8291
scalar tree_4_3_u05_r12_network.node[21].content_store 	decision_ratio[21] 	0.03972666203382
scalar tree_4_3_u05_r12_network.node[22].core_layer 	interests[22] 	12191
scalar tree_4_3_u05_r12_network.node[22].core_layer 	data[22] 	8727
scalar tree_4_3_u05_r12_network.node[22].content_store 	p_hit[22] 	0.28406201296038
scalar tree_4_3_u05_r12_network.node[22].content_store 	hits[22] 	3463
scalar tree_4_3_u05_r12_network.node[22].content_store 	misses[22] 	8728
scalar tree_4_3_u05_r12_network.node[22].content_store 	decision_yes[22] 	410
scalar tree_4_3_u05_r12_network.node[22].content_store 	decision_no[22] 	8317
scalar tree_4_3_u05_r12_network.node[22].content_store 	decision_ratio[22] 	0.046980634811505
scalar tree_4_3_u05_r12_network.node[23].core_layer 	interests[23] 	12343
scalar tree_4_3_u05_r12_network.node[23].core_layer 	data[23] 	8738
scalar tree_4_3_u05_r12_network.node[23].content_store 	p_hit[23] 	0.29206837883821
scalar tree_4_3_u05_r12_network.node[23].content_store 	hits[23] 	3605
scalar tree_4_3_u05_r12_network.node[23].content_store 	misses[23] 	8738
scalar tree_4_3_u05_r12_network.node[23].content_store 	decision_yes[23] 	699
scalar tree_4_3_u05_r12_network.node[23].content_store 	decision_no[23] 	8039
scalar tree_4_3_u05_r12_network.node[23].content_store 	decision_ratio[23] 	0.079995422293431
scalar tree_4_3_u05_r12_network.node[24].core_layer 	interests[24] 	12308
scalar tree_4_3_u05_r12_network.node[24].core_layer 	data[24] 	8794
scalar tree_4_3_u05_r12_network.node[24].content_store 	p_hit[24] 	0.28550536236594
scalar tree_4_3_u05_r12_network.node[24].content_store 	hits[24] 	3514
scalar tree_4_3_u05_r12_network.node[24].content_store 	misses[24] 	8794
scalar tree_4_3_u05_r12_network.node[24].content_store 	decision_yes[24] 	431
scalar tree_4_3_u05_r12_network.node[24].content_store 	decision_no[24] 	8363
scalar tree_4_3_u05_r12_network.node[24].content_store 	decision_ratio[24] 	0.049010689106209
scalar tree_4_3_u05_r12_network.node[25].core_layer 	interests[25] 	12572
scalar tree_4_3_u05_r12_network.node[25].core_layer 	data[25] 	8799
scalar tree_4_3_u05_r12_network.node[25].content_store 	p_hit[25] 	0.30011135857461
scalar tree_4_3_u05_r12_network.node[25].content_store 	hits[25] 	3773
scalar tree_4_3_u05_r12_network.node[25].content_store 	misses[25] 	8799
scalar tree_4_3_u05_r12_network.node[25].content_store 	decision_yes[25] 	663
scalar tree_4_3_u05_r12_network.node[25].content_store 	decision_no[25] 	8136
scalar tree_4_3_u05_r12_network.node[25].content_store 	decision_ratio[25] 	0.075349471530856
scalar tree_4_3_u05_r12_network.node[26].core_layer 	interests[26] 	12498
scalar tree_4_3_u05_r12_network.node[26].core_layer 	data[26] 	8937
scalar tree_4_3_u05_r12_network.node[26].content_store 	p_hit[26] 	0.2849255880941
scalar tree_4_3_u05_r12_network.node[26].content_store 	hits[26] 	3561
scalar tree_4_3_u05_r12_network.node[26].content_store 	misses[26] 	8937
scalar tree_4_3_u05_r12_network.node[26].content_store 	decision_yes[26] 	398
scalar tree_4_3_u05_r12_network.node[26].content_store 	decision_no[26] 	8539
scalar tree_4_3_u05_r12_network.node[26].content_store 	decision_ratio[26] 	0.044533959941815
scalar tree_4_3_u05_r12_network.node[27].core_layer 	interests[27] 	12453
scalar tree_4_3_u05_r12_network.node[27].core_layer 	data[27] 	8770
scalar tree_4_3_u05_r12_network.node[27].content_store 	p_hit[27] 	0.29575202762387
scalar tree_4_3_u05_r12_network.node[27].content_store 	hits[27] 	3683
scalar tree_4_3_u05_r12_network.node[27].content_store 	misses[27] 	8770
scalar tree_4_3_u05_r12_network.node[27].content_store 	decision_yes[27] 	770
scalar tree_4_3_u05_r12_network.node[27].content_store 	decision_no[27] 	8000
scalar tree_4_3_u05_r12_network.node[27].content_store 	decision_ratio[27] 	0.087799315849487
scalar tree_4_3_u05_r12_network.node[28].core_layer 	interests[28] 	12576
scalar tree_4_3_u05_r12_network.node[28].core_layer 	data[28] 	8930
scalar tree_4_3_u05_r12_network.node[28].content_store 	p_hit[28] 	0.28983778625954
scalar tree_4_3_u05_r12_network.node[28].content_store 	hits[28] 	3645
scalar tree_4_3_u05_r12_network.node[28].content_store 	misses[28] 	8931
scalar tree_4_3_u05_r12_network.node[28].content_store 	decision_yes[28] 	400
scalar tree_4_3_u05_r12_network.node[28].content_store 	decision_no[28] 	8530
scalar tree_4_3_u05_r12_network.node[28].content_store 	decision_ratio[28] 	0.044792833146697
scalar tree_4_3_u05_r12_network.node[29].core_layer 	interests[29] 	12612
scalar tree_4_3_u05_r12_network.node[29].core_layer 	data[29] 	8959
scalar tree_4_3_u05_r12_network.node[29].content_store 	p_hit[29] 	0.28964478274659
scalar tree_4_3_u05_r12_network.node[29].content_store 	hits[29] 	3653
scalar tree_4_3_u05_r12_network.node[29].content_store 	misses[29] 	8959
scalar tree_4_3_u05_r12_network.node[29].content_store 	decision_yes[29] 	724
scalar tree_4_3_u05_r12_network.node[29].content_store 	decision_no[29] 	8235
scalar tree_4_3_u05_r12_network.node[29].content_store 	decision_ratio[29] 	0.080812590690925
scalar tree_4_3_u05_r12_network.node[30].core_layer 	interests[30] 	12301
scalar tree_4_3_u05_r12_network.node[30].core_layer 	data[30] 	8795
scalar tree_4_3_u05_r12_network.node[30].content_store 	p_hit[30] 	0.2850174782538
scalar tree_4_3_u05_r12_network.node[30].content_store 	hits[30] 	3506
scalar tree_4_3_u05_r12_network.node[30].content_store 	misses[30] 	8795
scalar tree_4_3_u05_r12_network.node[30].content_store 	decision_yes[30] 	424
scalar tree_4_3_u05_r12_network.node[30].content_store 	decision_no[30] 	8371
scalar tree_4_3_u05_r12_network.node[30].content_store 	decision_ratio[30] 	0.048209209778283
scalar tree_4_3_u05_r12_network.node[31].core_layer 	interests[31] 	12427
scalar tree_4_3_u05_r12_network.node[31].core_layer 	data[31] 	8905
scalar tree_4_3_u05_r12_network.node[31].content_store 	p_hit[31] 	0.28341514444355
scalar tree_4_3_u05_r12_network.node[31].content_store 	hits[31] 	3522
scalar tree_4_3_u05_r12_network.node[31].content_store 	misses[31] 	8905
scalar tree_4_3_u05_r12_network.node[31].content_store 	decision_yes[31] 	418
scalar tree_4_3_u05_r12_network.node[31].content_store 	decision_no[31] 	8487
scalar tree_4_3_u05_r12_network.node[31].content_store 	decision_ratio[31] 	0.046939921392476
scalar tree_4_3_u05_r12_network.node[32].core_layer 	interests[32] 	12369
scalar tree_4_3_u05_r12_network.node[32].core_layer 	data[32] 	8772
scalar tree_4_3_u05_r12_network.node[32].content_store 	p_hit[32] 	0.29088851160158
scalar tree_4_3_u05_r12_network.node[32].content_store 	hits[32] 	3598
scalar tree_4_3_u05_r12_network.node[32].content_store 	misses[32] 	8771
scalar tree_4_3_u05_r12_network.node[32].content_store 	decision_yes[32] 	427
scalar tree_4_3_u05_r12_network.node[32].content_store 	decision_no[32] 	8345
scalar tree_4_3_u05_r12_network.node[32].content_store 	decision_ratio[32] 	0.048677610579115
scalar tree_4_3_u05_r12_network.node[33].core_layer 	interests[33] 	12325
scalar tree_4_3_u05_r12_network.node[33].core_layer 	data[33] 	8763
scalar tree_4_3_u05_r12_network.node[33].content_store 	p_hit[33] 	0.28892494929006
scalar tree_4_3_u05_r12_network.node[33].content_store 	hits[33] 	3561
scalar tree_4_3_u05_r12_network.node[33].content_store 	misses[33] 	8764
scalar tree_4_3_u05_r12_network.node[33].content_store 	decision_yes[33] 	397
scalar tree_4_3_u05_r12_network.node[33].content_store 	decision_no[33] 	8366
scalar tree_4_3_u05_r12_network.node[33].content_store 	decision_ratio[33] 	0.045304119593746
scalar tree_4_3_u05_r12_network.node[34].core_layer 	interests[34] 	12823
scalar tree_4_3_u05_r12_network.node[34].core_layer 	data[34] 	8960
scalar tree_4_3_u05_r12_network.node[34].content_store 	p_hit[34] 	0.30125555642205
scalar tree_4_3_u05_r12_network.node[34].content_store 	hits[34] 	3863
scalar tree_4_3_u05_r12_network.node[34].content_store 	misses[34] 	8960
scalar tree_4_3_u05_r12_network.node[34].content_store 	decision_yes[34] 	754
scalar tree_4_3_u05_r12_network.node[34].content_store 	decision_no[34] 	8206
scalar tree_4_3_u05_r12_network.node[34].content_store 	decision_ratio[34] 	0.084151785714286
scalar tree_4_3_u05_r12_network.node[35].core_layer 	interests[35] 	12343
scalar tree_4_3_u05_r12_network.node[35].core_layer 	data[35] 	8826
scalar tree_4_3_u05_r12_network.node[35].content_store 	p_hit[35] 	0.28493883172648
scalar tree_4_3_u05_r12_network.node[35].content_store 	hits[35] 	3517
scalar tree_4_3_u05_r12_network.node[35].content_store 	misses[35] 	8826
scalar tree_4_3_u05_r12_network.node[35].content_store 	decision_yes[35] 	394
scalar tree_4_3_u05_r12_network.node[35].content_store 	decision_no[35] 	8432
scalar tree_4_3_u05_r12_network.node[35].content_store 	decision_ratio[35] 	0.044640833899841
scalar tree_4_3_u05_r12_network.node[36].core_layer 	interests[36] 	12241
scalar tree_4_3_u05_r12_network.node[36].core_layer 	data[36] 	8816
scalar tree_4_3_u05_r12_network.node[36].content_store 	p_hit[36] 	0.27979740217303
scalar tree_4_3_u05_r12_network.node[36].content_store 	hits[36] 	3425
scalar tree_4_3_u05_r12_network.node[36].content_store 	misses[36] 	8816
scalar tree_4_3_u05_r12_network.node[36].content_store 	decision_yes[36] 	375
scalar tree_4_3_u05_r12_network.node[36].content_store 	decision_no[36] 	8441
scalar tree_4_3_u05_r12_network.node[36].content_store 	decision_ratio[36] 	0.042536297640653
scalar tree_4_3_u05_r12_network.node[37].core_layer 	interests[37] 	12626
scalar tree_4_3_u05_r12_network.node[37].core_layer 	data[37] 	8866
scalar tree_4_3_u05_r12_network.node[37].content_store 	p_hit[37] 	0.29779819420244
scalar tree_4_3_u05_r12_network.node[37].content_store 	hits[37] 	3760
scalar tree_4_3_u05_r12_network.node[37].content_store 	misses[37] 	8866
scalar tree_4_3_u05_r12_network.node[37].content_store 	decision_yes[37] 	720
scalar tree_4_3_u05_r12_network.node[37].content_store 	decision_no[37] 	8146
scalar tree_4_3_u05_r12_network.node[37].content_store 	decision_ratio[37] 	0.081209113467178
scalar tree_4_3_u05_r12_network.node[38].core_layer 	interests[38] 	12189
scalar tree_4_3_u05_r12_network.node[38].core_layer 	data[38] 	8747
scalar tree_4_3_u05_r12_network.node[38].content_store 	p_hit[38] 	0.28238575765034
scalar tree_4_3_u05_r12_network.node[38].content_store 	hits[38] 	3442
scalar tree_4_3_u05_r12_network.node[38].content_store 	misses[38] 	8747
scalar tree_4_3_u05_r12_network.node[38].content_store 	decision_yes[38] 	362
scalar tree_4_3_u05_r12_network.node[38].content_store 	decision_no[38] 	8385
scalar tree_4_3_u05_r12_network.node[38].content_store 	decision_ratio[38] 	0.041385617926146
scalar tree_4_3_u05_r12_network.node[39].core_layer 	interests[39] 	12240
scalar tree_4_3_u05_r12_network.node[39].core_layer 	data[39] 	8911
scalar tree_4_3_u05_r12_network.node[39].content_store 	p_hit[39] 	0.27205882352941
scalar tree_4_3_u05_r12_network.node[39].content_store 	hits[39] 	3330
scalar tree_4_3_u05_r12_network.node[39].content_store 	misses[39] 	8910
scalar tree_4_3_u05_r12_network.node[39].content_store 	decision_yes[39] 	398
scalar tree_4_3_u05_r12_network.node[39].content_store 	decision_no[39] 	8513
scalar tree_4_3_u05_r12_network.node[39].content_store 	decision_ratio[39] 	0.044663898552351
scalar tree_4_3_u05_r12_network.client[13] 	hdistance[13] 	2.7606716230891
scalar tree_4_3_u05_r12_network.client[13] 	downloads[13] 	11971
scalar tree_4_3_u05_r12_network.client[13] 	avg_time[13] 	0.004233227326
scalar tree_4_3_u05_r12_network.client[14] 	hdistance[14] 	2.6712271627597
scalar tree_4_3_u05_r12_network.client[14] 	downloads[14] 	11987
scalar tree_4_3_u05_r12_network.client[14] 	avg_time[14] 	0.00411378694
scalar tree_4_3_u05_r12_network.client[15] 	hdistance[15] 	2.7379817740992
scalar tree_4_3_u05_r12_network.client[15] 	downloads[15] 	11961
scalar tree_4_3_u05_r12_network.client[15] 	avg_time[15] 	0.004194796765
scalar tree_4_3_u05_r12_network.client[16] 	hdistance[16] 	2.7038423153693
scalar tree_4_3_u05_r12_network.client[16] 	downloads[16] 	12024
scalar tree_4_3_u05_r12_network.client[16] 	avg_time[16] 	0.004168493327
scalar tree_4_3_u05_r12_network.client[17] 	hdistance[17] 	2.6606874687135
scalar tree_4_3_u05_r12_network.client[17] 	downloads[17] 	11986
scalar tree_4_3_u05_r12_network.client[17] 	avg_time[17] 	0.004104118503
scalar tree_4_3_u05_r12_network.client[18] 	hdistance[18] 	2.6913875598086
scalar tree_4_3_u05_r12_network.client[18] 	downloads[18] 	11704
scalar tree_4_3_u05_r12_network.client[18] 	avg_time[18] 	0.004157208285
scalar tree_4_3_u05_r12_network.client[19] 	hdistance[19] 	2.7408689916728
scalar tree_4_3_u05_r12_network.client[19] 	downloads[19] 	12129
scalar tree_4_3_u05_r12_network.client[19] 	avg_time[19] 	0.004200837924
scalar tree_4_3_u05_r12_network.client[20] 	hdistance[20] 	2.6735609269873
scalar tree_4_3_u05_r12_network.client[20] 	downloads[20] 	12039
scalar tree_4_3_u05_r12_network.client[20] 	avg_time[20] 	0.004118279231
scalar tree_4_3_u05_r12_network.client[21] 	hdistance[21] 	2.7242188154478
scalar tree_4_3_u05_r12_network.client[21] 	downloads[21] 	11937
scalar tree_4_3_u05_r12_network.client[21] 	avg_time[21] 	0.004175585541
scalar tree_4_3_u05_r12_network.client[22] 	hdistance[22] 	2.704286671132
scalar tree_4_3_u05_r12_network.client[22] 	downloads[22] 	11944
scalar tree_4_3_u05_r12_network.client[22] 	avg_time[22] 	0.004168952092
scalar tree_4_3_u05_r12_network.client[23] 	hdistance[23] 	2.6780607496404
scalar tree_4_3_u05_r12_network.client[23] 	downloads[23] 	11819
scalar tree_4_3_u05_r12_network.client[23] 	avg_time[23] 	0.00412589601
scalar tree_4_3_u05_r12_network.client[24] 	hdistance[24] 	2.6936233809366
scalar tree_4_3_u05_r12_network.client[24] 	downloads[24] 	12044
scalar tree_4_3_u05_r12_network.client[24] 	avg_time[24] 	0.004152271954
scalar tree_4_3_u05_r12_network.client[25] 	hdistance[25] 	2.6742556917688
scalar tree_4_3_u05_r12_network.client[25] 	downloads[25] 	11991
scalar tree_4_3_u05_r12_network.client[25] 	avg_time[25] 	0.00410991275
scalar tree_4_3_u05_r12_network.client[26] 	hdistance[26] 	2.7037581699346
scalar tree_4_3_u05_r12_network.client[26] 	downloads[26] 	12240
scalar tree_4_3_u05_r12_network.client[26] 	avg_time[26] 	0.004163068842
scalar tree_4_3_u05_r12_network.client[27] 	hdistance[27] 	2.6504167719121
scalar tree_4_3_u05_r12_network.client[27] 	downloads[27] 	11877
scalar tree_4_3_u05_r12_network.client[27] 	avg_time[27] 	0.004080320333
scalar tree_4_3_u05_r12_network.client[28] 	hdistance[28] 	2.6761920313521
scalar tree_4_3_u05_r12_network.client[28] 	downloads[28] 	12248
scalar tree_4_3_u05_r12_network.client[28] 	avg_time[28] 	0.004130819721
scalar tree_4_3_u05_r12_network.client[29] 	hdistance[29] 	2.6978819212809
scalar tree_4_3_u05_r12_network.client[29] 	downloads[29] 	11992
scalar tree_4_3_u05_r12_network.client[29] 	avg_time[29] 	0.004150597402
scalar tree_4_3_u05_r12_network.client[30] 	hdistance[30] 	2.6942355889724
scalar tree_4_3_u05_r12_network.client[30] 	downloads[30] 	11970
scalar tree_4_3_u05_r12_network.client[30] 	avg_time[30] 	0.004158004918
scalar tree_4_3_u05_r12_network.client[31] 	hdistance[31] 	2.7257317678187
scalar tree_4_3_u05_r12_network.client[31] 	downloads[31] 	12094
scalar tree_4_3_u05_r12_network.client[31] 	avg_time[31] 	0.004185543532
scalar tree_4_3_u05_r12_network.client[32] 	hdistance[32] 	2.7015061995506
scalar tree_4_3_u05_r12_network.client[32] 	downloads[32] 	12017
scalar tree_4_3_u05_r12_network.client[32] 	avg_time[32] 	0.004153113411
scalar tree_4_3_u05_r12_network.client[33] 	hdistance[33] 	2.7168584292146
scalar tree_4_3_u05_r12_network.client[33] 	downloads[33] 	11994
scalar tree_4_3_u05_r12_network.client[33] 	avg_time[33] 	0.004168875393
scalar tree_4_3_u05_r12_network.client[34] 	hdistance[34] 	2.6661152923662
scalar tree_4_3_u05_r12_network.client[34] 	downloads[34] 	12091
scalar tree_4_3_u05_r12_network.client[34] 	avg_time[34] 	0.004105695439
scalar tree_4_3_u05_r12_network.client[35] 	hdistance[35] 	2.6974817760106
scalar tree_4_3_u05_r12_network.client[35] 	downloads[35] 	12072
scalar tree_4_3_u05_r12_network.client[35] 	avg_time[35] 	0.004159881575
scalar tree_4_3_u05_r12_network.client[36] 	hdistance[36] 	2.7091364205257
scalar tree_4_3_u05_r12_network.client[36] 	downloads[36] 	11985
scalar tree_4_3_u05_r12_network.client[36] 	avg_time[36] 	0.004183893529
scalar tree_4_3_u05_r12_network.client[37] 	hdistance[37] 	2.691339501542
scalar tree_4_3_u05_r12_network.client[37] 	downloads[37] 	11997
scalar tree_4_3_u05_r12_network.client[37] 	avg_time[37] 	0.004127695573
scalar tree_4_3_u05_r12_network.client[38] 	hdistance[38] 	2.7235921359547
scalar tree_4_3_u05_r12_network.client[38] 	downloads[38] 	12004
scalar tree_4_3_u05_r12_network.client[38] 	avg_time[38] 	0.004186768059
scalar tree_4_3_u05_r12_network.client[39] 	hdistance[39] 	2.7514072847682
scalar tree_4_3_u05_r12_network.client[39] 	downloads[39] 	12080
scalar tree_4_3_u05_r12_network.client[39] 	avg_time[39] 	0.004231122804
