version 2
run General-25-20160825-18:01:07-3010
attr D ffc0.1
attr F nrr
attr R lru
attr a 0.9
attr configname General
attr datetime 20160825-18:01:07
attr experiment General
attr inifile hw5115/scenario_C/omnetp.ini
attr iterationvars "$net=level3, $rep=3, $a=0.9, $F=nrr, $D=ffc0.1, $R=lru, $window=60, $variance=0.05, $mytime=600"
attr iterationvars2 "$net=level3, $rep=3, $a=0.9, $F=nrr, $D=ffc0.1, $R=lru, $window=60, $variance=0.05, $mytime=600, $repetition=0"
attr measurement "$net=level3, $rep=3, $a=0.9, $F=nrr, $D=ffc0.1, $R=lru, $window=60, $variance=0.05, $mytime=600"
attr mytime 600
attr net level3
attr network networks.${net=level3}_network
attr processid 3010
attr rep 3
attr repetition 0
attr replication #0
attr resultdir results
attr runnumber 25
attr seedset 3
attr variance 0.05
attr window 60

scalar . 	a 	0.9
scalar . 	mytime 	600
scalar . 	rep 	3
scalar . 	variance 	0.05
scalar . 	window 	60
scalar level3_network.content_distribution 	repo-0 	9
scalar level3_network.content_distribution 	repo-1 	36
scalar level3_network.content_distribution 	repo-2 	15
scalar level3_network.content_distribution 	repo-3 	0
scalar level3_network.content_distribution 	repo-4 	28
scalar level3_network.content_distribution 	repo-5 	25
scalar level3_network.content_distribution 	repo-6 	29
scalar level3_network.content_distribution 	repo-7 	8
scalar level3_network.content_distribution 	repo-8 	42
scalar level3_network.content_distribution 	repo-9 	40
scalar level3_network.content_distribution 	repo-10 	16
scalar level3_network.content_distribution 	repo-11 	11
scalar level3_network.content_distribution 	repo-12 	24
scalar level3_network.content_distribution 	repo-13 	43
scalar level3_network.content_distribution 	repo-14 	33
scalar level3_network.content_distribution 	repo-15 	14
scalar level3_network.content_distribution 	client-0 	21
scalar level3_network.content_distribution 	client-1 	9
scalar level3_network.content_distribution 	client-2 	38
scalar level3_network.content_distribution 	client-3 	2
scalar level3_network.content_distribution 	client-4 	30
scalar level3_network.content_distribution 	client-5 	8
scalar level3_network.content_distribution 	client-6 	23
scalar level3_network.content_distribution 	client-7 	32
scalar level3_network.content_distribution 	client-8 	40
scalar level3_network.content_distribution 	client-9 	42
scalar level3_network.content_distribution 	client-10 	45
scalar level3_network.content_distribution 	client-11 	33
scalar level3_network.content_distribution 	client-12 	28
scalar level3_network.content_distribution 	client-13 	3
scalar level3_network.content_distribution 	client-14 	15
scalar level3_network.content_distribution 	client-15 	34
scalar level3_network.content_distribution 	client-16 	31
scalar level3_network.content_distribution 	client-17 	17
scalar level3_network.content_distribution 	client-18 	25
scalar level3_network.content_distribution 	client-19 	12
scalar level3_network.content_distribution 	client-20 	22
scalar level3_network.content_distribution 	client-21 	11
scalar level3_network.content_distribution 	client-22 	6
scalar level3_network.content_distribution 	client-23 	39
scalar level3_network.content_distribution 	client-24 	7
scalar level3_network.content_distribution 	client-25 	18
scalar level3_network.content_distribution 	client-26 	36
scalar level3_network.content_distribution 	client-27 	27
scalar level3_network.content_distribution 	client-28 	43
scalar level3_network.content_distribution 	client-29 	37
scalar level3_network.content_distribution 	client-30 	4
scalar level3_network.content_distribution 	client-31 	14
scalar level3_network.content_distribution 	repo-0_card 	6258
scalar level3_network.content_distribution 	repo-0_price 	0
scalar level3_network.content_distribution 	repo-1_card 	6297
scalar level3_network.content_distribution 	repo-1_price 	0
scalar level3_network.content_distribution 	repo-2_card 	6227
scalar level3_network.content_distribution 	repo-2_price 	0
scalar level3_network.content_distribution 	repo-3_card 	6344
scalar level3_network.content_distribution 	repo-3_price 	0
scalar level3_network.content_distribution 	repo-4_card 	6235
scalar level3_network.content_distribution 	repo-4_price 	0
scalar level3_network.content_distribution 	repo-5_card 	6253
scalar level3_network.content_distribution 	repo-5_price 	0
scalar level3_network.content_distribution 	repo-6_card 	6211
scalar level3_network.content_distribution 	repo-6_price 	0
scalar level3_network.content_distribution 	repo-7_card 	6205
scalar level3_network.content_distribution 	repo-7_price 	0
scalar level3_network.content_distribution 	repo-8_card 	6106
scalar level3_network.content_distribution 	repo-8_price 	0
scalar level3_network.content_distribution 	repo-9_card 	6255
scalar level3_network.content_distribution 	repo-9_price 	0
scalar level3_network.content_distribution 	repo-10_card 	6249
scalar level3_network.content_distribution 	repo-10_price 	0
scalar level3_network.content_distribution 	repo-11_card 	6303
scalar level3_network.content_distribution 	repo-11_price 	0
scalar level3_network.content_distribution 	repo-12_card 	6400
scalar level3_network.content_distribution 	repo-12_price 	0
scalar level3_network.content_distribution 	repo-13_card 	6213
scalar level3_network.content_distribution 	repo-13_price 	0
scalar level3_network.content_distribution 	repo-14_card 	6238
scalar level3_network.content_distribution 	repo-14_price 	0
scalar level3_network.content_distribution 	repo-15_card 	6206
scalar level3_network.content_distribution 	repo-15_price 	0
scalar level3_network.statistics 	stabilization_time 	1886.1
scalar level3_network.statistics 	p_hit 	0.25912500834752
scalar level3_network.statistics 	interests 	18925.326086957
scalar level3_network.statistics 	data 	10594.173913043
scalar level3_network.statistics 	hdistance 	1.7802907511119
scalar level3_network.statistics 	avg_time 	0.029922037789
scalar level3_network.statistics 	downloads 	383203
scalar level3_network.statistics 	total_cost 	0
scalar level3_network.statistics 	total_replicas 	100000
scalar level3_network.statistics 	inner_hit 	0.49146796867457
scalar level3_network.node[0].core_layer 	interests[0] 	13359
scalar level3_network.node[0].core_layer 	repo_load[0] 	11290
scalar level3_network.node[0].core_layer 	data[0] 	0
scalar level3_network.node[0].core_layer 	repo_int[0] 	194871
scalar level3_network.node[0].content_store 	p_hit[0] 	0.15487686204057
scalar level3_network.node[0].content_store 	hits[0] 	2069
scalar level3_network.node[0].content_store 	misses[0] 	11290
scalar level3_network.node[0].content_store 	decision_yes[0] 	56
scalar level3_network.node[0].content_store 	decision_no[0] 	11234
scalar level3_network.node[0].content_store 	decision_ratio[0] 	0.0049601417183348
scalar level3_network.node[1].core_layer 	interests[1] 	0
scalar level3_network.node[1].core_layer 	data[1] 	0
scalar level3_network.node[1].content_store 	p_hit[1] 	-nan
scalar level3_network.node[1].content_store 	hits[1] 	0
scalar level3_network.node[1].content_store 	misses[1] 	0
scalar level3_network.node[1].content_store 	decision_yes[1] 	0
scalar level3_network.node[1].content_store 	decision_no[1] 	0
scalar level3_network.node[1].content_store 	decision_ratio[1] 	0
scalar level3_network.node[2].core_layer 	interests[2] 	39304
scalar level3_network.node[2].core_layer 	data[2] 	33643
scalar level3_network.node[2].content_store 	p_hit[2] 	0.14400569916548
scalar level3_network.node[2].content_store 	hits[2] 	5660
scalar level3_network.node[2].content_store 	misses[2] 	33644
scalar level3_network.node[2].content_store 	decision_yes[2] 	58
scalar level3_network.node[2].content_store 	decision_no[2] 	33585
scalar level3_network.node[2].content_store 	decision_ratio[2] 	0.0017239841869037
scalar level3_network.node[3].core_layer 	interests[3] 	32846
scalar level3_network.node[3].core_layer 	data[3] 	26319
scalar level3_network.node[3].content_store 	p_hit[3] 	0.19850210071242
scalar level3_network.node[3].content_store 	hits[3] 	6520
scalar level3_network.node[3].content_store 	misses[3] 	26326
scalar level3_network.node[3].content_store 	decision_yes[3] 	29
scalar level3_network.node[3].content_store 	decision_no[3] 	26290
scalar level3_network.node[3].content_store 	decision_ratio[3] 	0.0011018655724002
scalar level3_network.node[4].core_layer 	interests[4] 	13049
scalar level3_network.node[4].core_layer 	data[4] 	8896
scalar level3_network.node[4].content_store 	p_hit[4] 	0.31826193578052
scalar level3_network.node[4].content_store 	hits[4] 	4153
scalar level3_network.node[4].content_store 	misses[4] 	8896
scalar level3_network.node[4].content_store 	decision_yes[4] 	13
scalar level3_network.node[4].content_store 	decision_no[4] 	8883
scalar level3_network.node[4].content_store 	decision_ratio[4] 	0.0014613309352518
scalar level3_network.node[5].core_layer 	interests[5] 	5218
scalar level3_network.node[5].core_layer 	data[5] 	3304
scalar level3_network.node[5].content_store 	p_hit[5] 	0.36680720582599
scalar level3_network.node[5].content_store 	hits[5] 	1914
scalar level3_network.node[5].content_store 	misses[5] 	3304
scalar level3_network.node[5].content_store 	decision_yes[5] 	15
scalar level3_network.node[5].content_store 	decision_no[5] 	3289
scalar level3_network.node[5].content_store 	decision_ratio[5] 	0.0045399515738499
scalar level3_network.node[6].core_layer 	interests[6] 	12543
scalar level3_network.node[6].core_layer 	data[6] 	8772
scalar level3_network.node[6].content_store 	p_hit[6] 	0.30040660129156
scalar level3_network.node[6].content_store 	hits[6] 	3768
scalar level3_network.node[6].content_store 	misses[6] 	8775
scalar level3_network.node[6].content_store 	decision_yes[6] 	17
scalar level3_network.node[6].content_store 	decision_no[6] 	8755
scalar level3_network.node[6].content_store 	decision_ratio[6] 	0.001937984496124
scalar level3_network.node[7].core_layer 	interests[7] 	102264
scalar level3_network.node[7].core_layer 	data[7] 	92601
scalar level3_network.node[7].content_store 	p_hit[7] 	0.094324493467887
scalar level3_network.node[7].content_store 	hits[7] 	9646
scalar level3_network.node[7].content_store 	misses[7] 	92618
scalar level3_network.node[7].content_store 	decision_yes[7] 	115
scalar level3_network.node[7].content_store 	decision_no[7] 	92486
scalar level3_network.node[7].content_store 	decision_ratio[7] 	0.0012418872366389
scalar level3_network.node[8].core_layer 	interests[8] 	55257
scalar level3_network.node[8].core_layer 	repo_load[8] 	14432
scalar level3_network.node[8].core_layer 	data[8] 	31386
scalar level3_network.node[8].content_store 	p_hit[8] 	0.17063901406157
scalar level3_network.node[8].content_store 	hits[8] 	9429
scalar level3_network.node[8].content_store 	misses[8] 	45828
scalar level3_network.node[8].content_store 	decision_yes[8] 	97
scalar level3_network.node[8].content_store 	decision_no[8] 	45721
scalar level3_network.node[8].content_store 	decision_ratio[8] 	0.0021170718931424
scalar level3_network.node[9].core_layer 	interests[9] 	28008
scalar level3_network.node[9].core_layer 	repo_load[9] 	12708
scalar level3_network.node[9].core_layer 	data[9] 	8870
scalar level3_network.node[9].content_store 	p_hit[9] 	0.22954155955441
scalar level3_network.node[9].content_store 	hits[9] 	6429
scalar level3_network.node[9].content_store 	misses[9] 	21579
scalar level3_network.node[9].content_store 	decision_yes[9] 	48
scalar level3_network.node[9].content_store 	decision_no[9] 	21530
scalar level3_network.node[9].content_store 	decision_ratio[9] 	0.002224487904347
scalar level3_network.node[10].core_layer 	interests[10] 	0
scalar level3_network.node[10].core_layer 	data[10] 	0
scalar level3_network.node[10].content_store 	p_hit[10] 	-nan
scalar level3_network.node[10].content_store 	hits[10] 	0
scalar level3_network.node[10].content_store 	misses[10] 	0
scalar level3_network.node[10].content_store 	decision_yes[10] 	0
scalar level3_network.node[10].content_store 	decision_no[10] 	0
scalar level3_network.node[10].content_store 	decision_ratio[10] 	0
scalar level3_network.node[11].core_layer 	interests[11] 	79405
scalar level3_network.node[11].core_layer 	repo_load[11] 	13933
scalar level3_network.node[11].core_layer 	data[11] 	54572
scalar level3_network.node[11].content_store 	p_hit[11] 	0.13684276808765
scalar level3_network.node[11].content_store 	hits[11] 	10866
scalar level3_network.node[11].content_store 	misses[11] 	68539
scalar level3_network.node[11].content_store 	decision_yes[11] 	64
scalar level3_network.node[11].content_store 	decision_no[11] 	68441
scalar level3_network.node[11].content_store 	decision_ratio[11] 	0.00093423837676082
scalar level3_network.node[12].core_layer 	interests[12] 	13171
scalar level3_network.node[12].core_layer 	data[12] 	8853
scalar level3_network.node[12].content_store 	p_hit[12] 	0.32799331865462
scalar level3_network.node[12].content_store 	hits[12] 	4320
scalar level3_network.node[12].content_store 	misses[12] 	8851
scalar level3_network.node[12].content_store 	decision_yes[12] 	20
scalar level3_network.node[12].content_store 	decision_no[12] 	8833
scalar level3_network.node[12].content_store 	decision_ratio[12] 	0.0022591212018525
scalar level3_network.node[13].core_layer 	interests[13] 	0
scalar level3_network.node[13].core_layer 	data[13] 	0
scalar level3_network.node[13].content_store 	p_hit[13] 	-nan
scalar level3_network.node[13].content_store 	hits[13] 	0
scalar level3_network.node[13].content_store 	misses[13] 	0
scalar level3_network.node[13].content_store 	decision_yes[13] 	0
scalar level3_network.node[13].content_store 	decision_no[13] 	0
scalar level3_network.node[13].content_store 	decision_ratio[13] 	0
scalar level3_network.node[14].core_layer 	interests[14] 	26457
scalar level3_network.node[14].core_layer 	repo_load[14] 	12155
scalar level3_network.node[14].core_layer 	data[14] 	8890
scalar level3_network.node[14].content_store 	p_hit[14] 	0.20440715122652
scalar level3_network.node[14].content_store 	hits[14] 	5408
scalar level3_network.node[14].content_store 	misses[14] 	21049
scalar level3_network.node[14].content_store 	decision_yes[14] 	45
scalar level3_network.node[14].content_store 	decision_no[14] 	21000
scalar level3_network.node[14].content_store 	decision_ratio[14] 	0.0021382751247327
scalar level3_network.node[15].core_layer 	interests[15] 	26156
scalar level3_network.node[15].core_layer 	repo_load[15] 	12213
scalar level3_network.node[15].core_layer 	data[15] 	9098
scalar level3_network.node[15].content_store 	p_hit[15] 	0.18508181679156
scalar level3_network.node[15].content_store 	hits[15] 	4841
scalar level3_network.node[15].content_store 	misses[15] 	21315
scalar level3_network.node[15].content_store 	decision_yes[15] 	42
scalar level3_network.node[15].content_store 	decision_no[15] 	21269
scalar level3_network.node[15].content_store 	decision_ratio[15] 	0.0019708131950636
scalar level3_network.node[16].core_layer 	interests[16] 	16347
scalar level3_network.node[16].core_layer 	repo_load[16] 	11608
scalar level3_network.node[16].core_layer 	data[16] 	0
scalar level3_network.node[16].content_store 	p_hit[16] 	0.28990028751453
scalar level3_network.node[16].content_store 	hits[16] 	4739
scalar level3_network.node[16].content_store 	misses[16] 	11608
scalar level3_network.node[16].content_store 	decision_yes[16] 	40
scalar level3_network.node[16].content_store 	decision_no[16] 	11568
scalar level3_network.node[16].content_store 	decision_ratio[16] 	0.0034458993797381
scalar level3_network.node[17].core_layer 	interests[17] 	17077
scalar level3_network.node[17].core_layer 	data[17] 	9076
scalar level3_network.node[17].content_store 	p_hit[17] 	0.46858347484921
scalar level3_network.node[17].content_store 	hits[17] 	8002
scalar level3_network.node[17].content_store 	misses[17] 	9075
scalar level3_network.node[17].content_store 	decision_yes[17] 	12
scalar level3_network.node[17].content_store 	decision_no[17] 	9064
scalar level3_network.node[17].content_store 	decision_ratio[17] 	0.001322168356104
scalar level3_network.node[18].core_layer 	interests[18] 	25799
scalar level3_network.node[18].core_layer 	data[18] 	15068
scalar level3_network.node[18].content_store 	p_hit[18] 	0.41583007093298
scalar level3_network.node[18].content_store 	hits[18] 	10728
scalar level3_network.node[18].content_store 	misses[18] 	15071
scalar level3_network.node[18].content_store 	decision_yes[18] 	24
scalar level3_network.node[18].content_store 	decision_no[18] 	15044
scalar level3_network.node[18].content_store 	decision_ratio[18] 	0.0015927794000531
scalar level3_network.node[19].core_layer 	interests[19] 	0
scalar level3_network.node[19].core_layer 	data[19] 	0
scalar level3_network.node[19].content_store 	p_hit[19] 	-nan
scalar level3_network.node[19].content_store 	hits[19] 	0
scalar level3_network.node[19].content_store 	misses[19] 	0
scalar level3_network.node[19].content_store 	decision_yes[19] 	0
scalar level3_network.node[19].content_store 	decision_no[19] 	0
scalar level3_network.node[19].content_store 	decision_ratio[19] 	0
scalar level3_network.node[20].core_layer 	interests[20] 	0
scalar level3_network.node[20].core_layer 	data[20] 	0
scalar level3_network.node[20].content_store 	p_hit[20] 	-nan
scalar level3_network.node[20].content_store 	hits[20] 	0
scalar level3_network.node[20].content_store 	misses[20] 	0
scalar level3_network.node[20].content_store 	decision_yes[20] 	0
scalar level3_network.node[20].content_store 	decision_no[20] 	0
scalar level3_network.node[20].content_store 	decision_ratio[20] 	0
scalar level3_network.node[21].core_layer 	interests[21] 	12798
scalar level3_network.node[21].core_layer 	data[21] 	8804
scalar level3_network.node[21].content_store 	p_hit[21] 	0.31200187529301
scalar level3_network.node[21].content_store 	hits[21] 	3993
scalar level3_network.node[21].content_store 	misses[21] 	8805
scalar level3_network.node[21].content_store 	decision_yes[21] 	12
scalar level3_network.node[21].content_store 	decision_no[21] 	8792
scalar level3_network.node[21].content_store 	decision_ratio[21] 	0.0013630168105407
scalar level3_network.node[22].core_layer 	interests[22] 	13053
scalar level3_network.node[22].core_layer 	data[22] 	8980
scalar level3_network.node[22].content_store 	p_hit[22] 	0.31188232590209
scalar level3_network.node[22].content_store 	hits[22] 	4071
scalar level3_network.node[22].content_store 	misses[22] 	8982
scalar level3_network.node[22].content_store 	decision_yes[22] 	11
scalar level3_network.node[22].content_store 	decision_no[22] 	8969
scalar level3_network.node[22].content_store 	decision_ratio[22] 	0.0012249443207127
scalar level3_network.node[23].core_layer 	interests[23] 	12542
scalar level3_network.node[23].core_layer 	data[23] 	8916
scalar level3_network.node[23].content_store 	p_hit[23] 	0.28902886302025
scalar level3_network.node[23].content_store 	hits[23] 	3625
scalar level3_network.node[23].content_store 	misses[23] 	8917
scalar level3_network.node[23].content_store 	decision_yes[23] 	11
scalar level3_network.node[23].content_store 	decision_no[23] 	8905
scalar level3_network.node[23].content_store 	decision_ratio[23] 	0.0012337371018394
scalar level3_network.node[24].core_layer 	interests[24] 	14592
scalar level3_network.node[24].core_layer 	repo_load[24] 	11612
scalar level3_network.node[24].core_layer 	data[24] 	0
scalar level3_network.node[24].content_store 	p_hit[24] 	0.20422149122807
scalar level3_network.node[24].content_store 	hits[24] 	2980
scalar level3_network.node[24].content_store 	misses[24] 	11612
scalar level3_network.node[24].content_store 	decision_yes[24] 	46
scalar level3_network.node[24].content_store 	decision_no[24] 	11566
scalar level3_network.node[24].content_store 	decision_ratio[24] 	0.003961419221495
scalar level3_network.node[25].core_layer 	interests[25] 	25692
scalar level3_network.node[25].core_layer 	repo_load[25] 	11989
scalar level3_network.node[25].core_layer 	data[25] 	8765
scalar level3_network.node[25].content_store 	p_hit[25] 	0.19216098396388
scalar level3_network.node[25].content_store 	hits[25] 	4937
scalar level3_network.node[25].content_store 	misses[25] 	20755
scalar level3_network.node[25].content_store 	decision_yes[25] 	45
scalar level3_network.node[25].content_store 	decision_no[25] 	20709
scalar level3_network.node[25].content_store 	decision_ratio[25] 	0.0021682567215958
scalar level3_network.node[26].core_layer 	interests[26] 	0
scalar level3_network.node[26].core_layer 	data[26] 	0
scalar level3_network.node[26].content_store 	p_hit[26] 	-nan
scalar level3_network.node[26].content_store 	hits[26] 	0
scalar level3_network.node[26].content_store 	misses[26] 	0
scalar level3_network.node[26].content_store 	decision_yes[26] 	0
scalar level3_network.node[26].content_store 	decision_no[26] 	0
scalar level3_network.node[26].content_store 	decision_ratio[26] 	0
scalar level3_network.node[27].core_layer 	interests[27] 	13361
scalar level3_network.node[27].core_layer 	data[27] 	8882
scalar level3_network.node[27].content_store 	p_hit[27] 	0.33530424369433
scalar level3_network.node[27].content_store 	hits[27] 	4480
scalar level3_network.node[27].content_store 	misses[27] 	8881
scalar level3_network.node[27].content_store 	decision_yes[27] 	23
scalar level3_network.node[27].content_store 	decision_no[27] 	8859
scalar level3_network.node[27].content_store 	decision_ratio[27] 	0.0025895068678226
scalar level3_network.node[28].core_layer 	interests[28] 	25669
scalar level3_network.node[28].core_layer 	repo_load[28] 	11758
scalar level3_network.node[28].core_layer 	data[28] 	9081
scalar level3_network.node[28].content_store 	p_hit[28] 	0.18816471229888
scalar level3_network.node[28].content_store 	hits[28] 	4830
scalar level3_network.node[28].content_store 	misses[28] 	20839
scalar level3_network.node[28].content_store 	decision_yes[28] 	38
scalar level3_network.node[28].content_store 	decision_no[28] 	20801
scalar level3_network.node[28].content_store 	decision_ratio[28] 	0.0018235040069101
scalar level3_network.node[29].core_layer 	interests[29] 	14058
scalar level3_network.node[29].core_layer 	repo_load[29] 	10951
scalar level3_network.node[29].core_layer 	data[29] 	0
scalar level3_network.node[29].content_store 	p_hit[29] 	0.22101294636506
scalar level3_network.node[29].content_store 	hits[29] 	3107
scalar level3_network.node[29].content_store 	misses[29] 	10951
scalar level3_network.node[29].content_store 	decision_yes[29] 	46
scalar level3_network.node[29].content_store 	decision_no[29] 	10905
scalar level3_network.node[29].content_store 	decision_ratio[29] 	0.0042005296319971
scalar level3_network.node[30].core_layer 	interests[30] 	12973
scalar level3_network.node[30].core_layer 	data[30] 	8766
scalar level3_network.node[30].content_store 	p_hit[30] 	0.32428890773144
scalar level3_network.node[30].content_store 	hits[30] 	4207
scalar level3_network.node[30].content_store 	misses[30] 	8766
scalar level3_network.node[30].content_store 	decision_yes[30] 	13
scalar level3_network.node[30].content_store 	decision_no[30] 	8753
scalar level3_network.node[30].content_store 	decision_ratio[30] 	0.0014830025096966
scalar level3_network.node[31].core_layer 	interests[31] 	13140
scalar level3_network.node[31].core_layer 	data[31] 	8789
scalar level3_network.node[31].content_store 	p_hit[31] 	0.33112633181126
scalar level3_network.node[31].content_store 	hits[31] 	4351
scalar level3_network.node[31].content_store 	misses[31] 	8789
scalar level3_network.node[31].content_store 	decision_yes[31] 	15
scalar level3_network.node[31].content_store 	decision_no[31] 	8774
scalar level3_network.node[31].content_store 	decision_ratio[31] 	0.0017066788030493
scalar level3_network.node[32].core_layer 	interests[32] 	13237
scalar level3_network.node[32].core_layer 	data[32] 	8869
scalar level3_network.node[32].content_store 	p_hit[32] 	0.32998413537811
scalar level3_network.node[32].content_store 	hits[32] 	4368
scalar level3_network.node[32].content_store 	misses[32] 	8869
scalar level3_network.node[32].content_store 	decision_yes[32] 	18
scalar level3_network.node[32].content_store 	decision_no[32] 	8851
scalar level3_network.node[32].content_store 	decision_ratio[32] 	0.0020295410982072
scalar level3_network.node[33].core_layer 	interests[33] 	26092
scalar level3_network.node[33].core_layer 	repo_load[33] 	12379
scalar level3_network.node[33].core_layer 	data[33] 	8780
scalar level3_network.node[33].content_store 	p_hit[33] 	0.18902345546528
scalar level3_network.node[33].content_store 	hits[33] 	4932
scalar level3_network.node[33].content_store 	misses[33] 	21160
scalar level3_network.node[33].content_store 	decision_yes[33] 	48
scalar level3_network.node[33].content_store 	decision_no[33] 	21111
scalar level3_network.node[33].content_store 	decision_ratio[33] 	0.0022685382106905
scalar level3_network.node[34].core_layer 	interests[34] 	13513
scalar level3_network.node[34].core_layer 	data[34] 	8967
scalar level3_network.node[34].content_store 	p_hit[34] 	0.33634278102568
scalar level3_network.node[34].content_store 	hits[34] 	4545
scalar level3_network.node[34].content_store 	misses[34] 	8968
scalar level3_network.node[34].content_store 	decision_yes[34] 	14
scalar level3_network.node[34].content_store 	decision_no[34] 	8953
scalar level3_network.node[34].content_store 	decision_ratio[34] 	0.0015612802498048
scalar level3_network.node[35].core_layer 	interests[35] 	0
scalar level3_network.node[35].core_layer 	data[35] 	0
scalar level3_network.node[35].content_store 	p_hit[35] 	-nan
scalar level3_network.node[35].content_store 	hits[35] 	0
scalar level3_network.node[35].content_store 	misses[35] 	0
scalar level3_network.node[35].content_store 	decision_yes[35] 	0
scalar level3_network.node[35].content_store 	decision_no[35] 	0
scalar level3_network.node[35].content_store 	decision_ratio[35] 	0
scalar level3_network.node[36].core_layer 	interests[36] 	25841
scalar level3_network.node[36].core_layer 	repo_load[36] 	11840
scalar level3_network.node[36].core_layer 	data[36] 	8900
scalar level3_network.node[36].content_store 	p_hit[36] 	0.19728338686583
scalar level3_network.node[36].content_store 	hits[36] 	5098
scalar level3_network.node[36].content_store 	misses[36] 	20743
scalar level3_network.node[36].content_store 	decision_yes[36] 	47
scalar level3_network.node[36].content_store 	decision_no[36] 	20693
scalar level3_network.node[36].content_store 	decision_ratio[36] 	0.0022661523625844
scalar level3_network.node[37].core_layer 	interests[37] 	13153
scalar level3_network.node[37].core_layer 	data[37] 	8999
scalar level3_network.node[37].content_store 	p_hit[37] 	0.31582148559264
scalar level3_network.node[37].content_store 	hits[37] 	4154
scalar level3_network.node[37].content_store 	misses[37] 	8999
scalar level3_network.node[37].content_store 	decision_yes[37] 	23
scalar level3_network.node[37].content_store 	decision_no[37] 	8976
scalar level3_network.node[37].content_store 	decision_ratio[37] 	0.0025558395377264
scalar level3_network.node[38].core_layer 	interests[38] 	13086
scalar level3_network.node[38].core_layer 	data[38] 	8824
scalar level3_network.node[38].content_store 	p_hit[38] 	0.32561516124102
scalar level3_network.node[38].content_store 	hits[38] 	4261
scalar level3_network.node[38].content_store 	misses[38] 	8825
scalar level3_network.node[38].content_store 	decision_yes[38] 	14
scalar level3_network.node[38].content_store 	decision_no[38] 	8810
scalar level3_network.node[38].content_store 	decision_ratio[38] 	0.0015865820489574
scalar level3_network.node[39].core_layer 	interests[39] 	13003
scalar level3_network.node[39].core_layer 	data[39] 	8652
scalar level3_network.node[39].content_store 	p_hit[39] 	0.33453818349612
scalar level3_network.node[39].content_store 	hits[39] 	4350
scalar level3_network.node[39].content_store 	misses[39] 	8653
scalar level3_network.node[39].content_store 	decision_yes[39] 	12
scalar level3_network.node[39].content_store 	decision_no[39] 	8640
scalar level3_network.node[39].content_store 	decision_ratio[39] 	0.0013869625520111
scalar level3_network.node[40].core_layer 	interests[40] 	25751
scalar level3_network.node[40].core_layer 	repo_load[40] 	12531
scalar level3_network.node[40].core_layer 	data[40] 	8663
scalar level3_network.node[40].content_store 	p_hit[40] 	0.176964001398
scalar level3_network.node[40].content_store 	hits[40] 	4557
scalar level3_network.node[40].content_store 	misses[40] 	21194
scalar level3_network.node[40].content_store 	decision_yes[40] 	68
scalar level3_network.node[40].content_store 	decision_no[40] 	21126
scalar level3_network.node[40].content_store 	decision_ratio[40] 	0.0032084552231764
scalar level3_network.node[41].core_layer 	interests[41] 	0
scalar level3_network.node[41].core_layer 	data[41] 	0
scalar level3_network.node[41].content_store 	p_hit[41] 	-nan
scalar level3_network.node[41].content_store 	hits[41] 	0
scalar level3_network.node[41].content_store 	misses[41] 	0
scalar level3_network.node[41].content_store 	decision_yes[41] 	0
scalar level3_network.node[41].content_store 	decision_no[41] 	0
scalar level3_network.node[41].content_store 	decision_ratio[41] 	0
scalar level3_network.node[42].core_layer 	interests[42] 	25813
scalar level3_network.node[42].core_layer 	repo_load[42] 	11978
scalar level3_network.node[42].core_layer 	data[42] 	8804
scalar level3_network.node[42].content_store 	p_hit[42] 	0.19478557316081
scalar level3_network.node[42].content_store 	hits[42] 	5028
scalar level3_network.node[42].content_store 	misses[42] 	20785
scalar level3_network.node[42].content_store 	decision_yes[42] 	51
scalar level3_network.node[42].content_store 	decision_no[42] 	20731
scalar level3_network.node[42].content_store 	decision_ratio[42] 	0.0024540467712443
scalar level3_network.node[43].core_layer 	interests[43] 	24353
scalar level3_network.node[43].core_layer 	repo_load[43] 	11494
scalar level3_network.node[43].core_layer 	data[43] 	8806
scalar level3_network.node[43].content_store 	p_hit[43] 	0.16646819693672
scalar level3_network.node[43].content_store 	hits[43] 	4054
scalar level3_network.node[43].content_store 	misses[43] 	20299
scalar level3_network.node[43].content_store 	decision_yes[43] 	49
scalar level3_network.node[43].content_store 	decision_no[43] 	20251
scalar level3_network.node[43].content_store 	decision_ratio[43] 	0.0024137931034483
scalar level3_network.node[44].core_layer 	interests[44] 	0
scalar level3_network.node[44].core_layer 	data[44] 	0
scalar level3_network.node[44].content_store 	p_hit[44] 	-nan
scalar level3_network.node[44].content_store 	hits[44] 	0
scalar level3_network.node[44].content_store 	misses[44] 	0
scalar level3_network.node[44].content_store 	decision_yes[44] 	0
scalar level3_network.node[44].content_store 	decision_no[44] 	0
scalar level3_network.node[44].content_store 	decision_ratio[44] 	0
scalar level3_network.node[45].core_layer 	interests[45] 	12585
scalar level3_network.node[45].core_layer 	data[45] 	8737
scalar level3_network.node[45].content_store 	p_hit[45] 	0.30560190703218
scalar level3_network.node[45].content_store 	hits[45] 	3846
scalar level3_network.node[45].content_store 	misses[45] 	8739
scalar level3_network.node[45].content_store 	decision_yes[45] 	18
scalar level3_network.node[45].content_store 	decision_no[45] 	8719
scalar level3_network.node[45].content_store 	decision_ratio[45] 	0.0020602037312579
scalar level3_network.client[2] 	hdistance[2] 	1.815813719742
scalar level3_network.client[2] 	downloads[2] 	11939
scalar level3_network.client[2] 	avg_time[2] 	0.046864196798
scalar level3_network.client[3] 	hdistance[3] 	1.7836562763269
scalar level3_network.client[3] 	downloads[3] 	11870
scalar level3_network.client[3] 	avg_time[3] 	0.046606075545
scalar level3_network.client[4] 	hdistance[4] 	1.8540261470564
scalar level3_network.client[4] 	downloads[4] 	12009
scalar level3_network.client[4] 	avg_time[4] 	0.045616296841
scalar level3_network.client[6] 	hdistance[6] 	1.8448972718087
scalar level3_network.client[6] 	downloads[6] 	11876
scalar level3_network.client[6] 	avg_time[6] 	0.023578474325
scalar level3_network.client[7] 	hdistance[7] 	1.4762259158191
scalar level3_network.client[7] 	downloads[7] 	12093
scalar level3_network.client[7] 	avg_time[7] 	0.020209283728
scalar level3_network.client[8] 	hdistance[8] 	1.4498354569235
scalar level3_network.client[8] 	downloads[8] 	11851
scalar level3_network.client[8] 	avg_time[8] 	0.020787956987
scalar level3_network.client[9] 	hdistance[9] 	1.6146597731821
scalar level3_network.client[9] 	downloads[9] 	11992
scalar level3_network.client[9] 	avg_time[9] 	0.022647010156
scalar level3_network.client[11] 	hdistance[11] 	1.3915406828605
scalar level3_network.client[11] 	downloads[11] 	11774
scalar level3_network.client[11] 	avg_time[11] 	0.020788568864
scalar level3_network.client[12] 	hdistance[12] 	1.76231281198
scalar level3_network.client[12] 	downloads[12] 	12020
scalar level3_network.client[12] 	avg_time[12] 	0.029376722874
scalar level3_network.client[14] 	hdistance[14] 	1.6845703929484
scalar level3_network.client[14] 	downloads[14] 	12139
scalar level3_network.client[14] 	avg_time[14] 	0.020521939609
scalar level3_network.client[15] 	hdistance[15] 	1.7763266655646
scalar level3_network.client[15] 	downloads[15] 	12098
scalar level3_network.client[15] 	avg_time[15] 	0.031512539171
scalar level3_network.client[17] 	hdistance[17] 	1.4058921161826
scalar level3_network.client[17] 	downloads[17] 	12050
scalar level3_network.client[17] 	avg_time[17] 	0.028955549297
scalar level3_network.client[18] 	hdistance[18] 	1.3548927613941
scalar level3_network.client[18] 	downloads[18] 	11936
scalar level3_network.client[18] 	avg_time[18] 	0.019093750592
scalar level3_network.client[21] 	hdistance[21] 	2.4156501535142
scalar level3_network.client[21] 	downloads[21] 	12051
scalar level3_network.client[21] 	avg_time[21] 	0.046463592484
scalar level3_network.client[22] 	hdistance[22] 	1.7844549292277
scalar level3_network.client[22] 	downloads[22] 	12081
scalar level3_network.client[22] 	avg_time[22] 	0.023698707795
scalar level3_network.client[23] 	hdistance[23] 	1.8379356794073
scalar level3_network.client[23] 	downloads[23] 	11878
scalar level3_network.client[23] 	avg_time[23] 	0.01942018303
scalar level3_network.client[25] 	hdistance[25] 	1.7841051838205
scalar level3_network.client[25] 	downloads[25] 	11941
scalar level3_network.client[25] 	avg_time[25] 	0.019140372869
scalar level3_network.client[27] 	hdistance[27] 	1.7782405864712
scalar level3_network.client[27] 	downloads[27] 	12004
scalar level3_network.client[27] 	avg_time[27] 	0.030255139215
scalar level3_network.client[28] 	hdistance[28] 	1.7784515700282
scalar level3_network.client[28] 	downloads[28] 	12038
scalar level3_network.client[28] 	avg_time[28] 	0.027568536879
scalar level3_network.client[30] 	hdistance[30] 	1.7955065705808
scalar level3_network.client[30] 	downloads[30] 	11795
scalar level3_network.client[30] 	avg_time[30] 	0.021231553803
scalar level3_network.client[31] 	hdistance[31] 	1.8191365227538
scalar level3_network.client[31] 	downloads[31] 	11998
scalar level3_network.client[31] 	avg_time[31] 	0.034129373488
scalar level3_network.client[32] 	hdistance[32] 	1.787492713798
scalar level3_network.client[32] 	downloads[32] 	12009
scalar level3_network.client[32] 	avg_time[32] 	0.027488609921
scalar level3_network.client[33] 	hdistance[33] 	1.7875242023739
scalar level3_network.client[33] 	downloads[33] 	11879
scalar level3_network.client[33] 	avg_time[33] 	0.025212614437
scalar level3_network.client[34] 	hdistance[34] 	1.7708060288336
scalar level3_network.client[34] 	downloads[34] 	12208
scalar level3_network.client[34] 	avg_time[34] 	0.032830461751
scalar level3_network.client[36] 	hdistance[36] 	1.8103189180164
scalar level3_network.client[36] 	downloads[36] 	11978
scalar level3_network.client[36] 	avg_time[36] 	0.021824324198
scalar level3_network.client[37] 	hdistance[37] 	1.8160271815696
scalar level3_network.client[37] 	downloads[37] 	12067
scalar level3_network.client[37] 	avg_time[37] 	0.025767724707
scalar level3_network.client[38] 	hdistance[38] 	1.7630091438071
scalar level3_network.client[38] 	downloads[38] 	12030
scalar level3_network.client[38] 	avg_time[38] 	0.031524556776
scalar level3_network.client[39] 	hdistance[39] 	1.8018518518519
scalar level3_network.client[39] 	downloads[39] 	11880
scalar level3_network.client[39] 	avg_time[39] 	0.021385860641
scalar level3_network.client[40] 	hdistance[40] 	1.9814406779661
scalar level3_network.client[40] 	downloads[40] 	11800
scalar level3_network.client[40] 	avg_time[40] 	0.025020108188
scalar level3_network.client[42] 	hdistance[42] 	1.8665266694666
scalar level3_network.client[42] 	downloads[42] 	11905
scalar level3_network.client[42] 	avg_time[42] 	0.046848836448
scalar level3_network.client[43] 	hdistance[43] 	2.4272214854111
scalar level3_network.client[43] 	downloads[43] 	12064
scalar level3_network.client[43] 	avg_time[43] 	0.050095921095
scalar level3_network.client[45] 	hdistance[45] 	1.9489539748954
scalar level3_network.client[45] 	downloads[45] 	11950
scalar level3_network.client[45] 	avg_time[45] 	0.051040366739
