version 2
run General-185-20160818-23:30:15-32642
attr a 0.9
attr cd lce
attr configname General
attr cr lru
attr datetime 20160818-23:30:15
attr experiment General
attr fsize 1
attr inifile hw5115/scenario_A/Edge.ini
attr iterationvars "$name=tree_4_3, $un=09, $rep=6, $scenario=Edge, $cd=lce, $cr=lru, $fsize=1, $a=0.9, $sl=spr, $ttl=1000, $variance=0.05"
attr iterationvars2 "$name=tree_4_3, $un=09, $rep=6, $scenario=Edge, $cd=lce, $cr=lru, $fsize=1, $a=0.9, $sl=spr, $ttl=1000, $variance=0.05, $repetition=0"
attr measurement "$name=tree_4_3, $un=09, $rep=6, $scenario=Edge, $cd=lce, $cr=lru, $fsize=1, $a=0.9, $sl=spr, $ttl=1000, $variance=0.05"
attr name tree_4_3
attr network networks.${name}_u${un}_r${rep}_network
attr processid 32642
attr rep 6
attr repetition 0
attr replication #0
attr resultdir results
attr runnumber 185
attr scenario Edge
attr seedset 6
attr sl spr
attr ttl 1000
attr un 09
attr variance 0.05

scalar . 	a 	0.9
scalar . 	fsize 	1
scalar . 	rep 	6
scalar . 	ttl 	1000
scalar . 	un 	09
scalar . 	variance 	0.05
scalar tree_4_3_u09_r6_network.content_distribution 	repo-0 	0
scalar tree_4_3_u09_r6_network.content_distribution 	client-0 	13
scalar tree_4_3_u09_r6_network.content_distribution 	client-1 	14
scalar tree_4_3_u09_r6_network.content_distribution 	client-2 	15
scalar tree_4_3_u09_r6_network.content_distribution 	client-3 	16
scalar tree_4_3_u09_r6_network.content_distribution 	client-4 	17
scalar tree_4_3_u09_r6_network.content_distribution 	client-5 	18
scalar tree_4_3_u09_r6_network.content_distribution 	client-6 	19
scalar tree_4_3_u09_r6_network.content_distribution 	client-7 	20
scalar tree_4_3_u09_r6_network.content_distribution 	client-8 	21
scalar tree_4_3_u09_r6_network.content_distribution 	client-9 	22
scalar tree_4_3_u09_r6_network.content_distribution 	client-10 	23
scalar tree_4_3_u09_r6_network.content_distribution 	client-11 	24
scalar tree_4_3_u09_r6_network.content_distribution 	client-12 	25
scalar tree_4_3_u09_r6_network.content_distribution 	client-13 	26
scalar tree_4_3_u09_r6_network.content_distribution 	client-14 	27
scalar tree_4_3_u09_r6_network.content_distribution 	client-15 	28
scalar tree_4_3_u09_r6_network.content_distribution 	client-16 	29
scalar tree_4_3_u09_r6_network.content_distribution 	client-17 	30
scalar tree_4_3_u09_r6_network.content_distribution 	client-18 	31
scalar tree_4_3_u09_r6_network.content_distribution 	client-19 	32
scalar tree_4_3_u09_r6_network.content_distribution 	client-20 	33
scalar tree_4_3_u09_r6_network.content_distribution 	client-21 	34
scalar tree_4_3_u09_r6_network.content_distribution 	client-22 	35
scalar tree_4_3_u09_r6_network.content_distribution 	client-23 	36
scalar tree_4_3_u09_r6_network.content_distribution 	client-24 	37
scalar tree_4_3_u09_r6_network.content_distribution 	client-25 	38
scalar tree_4_3_u09_r6_network.content_distribution 	client-26 	39
scalar tree_4_3_u09_r6_network.content_distribution 	repo-0_card 	100000
scalar tree_4_3_u09_r6_network.content_distribution 	repo-0_price 	0
scalar tree_4_3_u09_r6_network.statistics 	stabilization_time 	422
scalar tree_4_3_u09_r6_network.statistics 	p_hit 	0.10558014625835
scalar tree_4_3_u09_r6_network.statistics 	interests 	28507.95
scalar tree_4_3_u09_r6_network.statistics 	data 	20432.75
scalar tree_4_3_u09_r6_network.statistics 	hdistance 	3.374303190549
scalar tree_4_3_u09_r6_network.statistics 	avg_time 	0.005061111844
scalar tree_4_3_u09_r6_network.statistics 	downloads 	322988
scalar tree_4_3_u09_r6_network.statistics 	total_cost 	0
scalar tree_4_3_u09_r6_network.statistics 	total_replicas 	100000
scalar tree_4_3_u09_r6_network.statistics 	inner_hit 	0.15662811002266
scalar tree_4_3_u09_r6_network.node[0].core_layer 	interests[0] 	272399
scalar tree_4_3_u09_r6_network.node[0].core_layer 	repo_load[0] 	272399
scalar tree_4_3_u09_r6_network.node[0].core_layer 	data[0] 	0
scalar tree_4_3_u09_r6_network.node[0].core_layer 	repo_int[0] 	272399
scalar tree_4_3_u09_r6_network.node[0].content_store 	p_hit[0] 	0
scalar tree_4_3_u09_r6_network.node[0].content_store 	hits[0] 	0
scalar tree_4_3_u09_r6_network.node[0].content_store 	misses[0] 	272399
scalar tree_4_3_u09_r6_network.node[0].content_store 	decision_yes[0] 	0
scalar tree_4_3_u09_r6_network.node[0].content_store 	decision_no[0] 	272399
scalar tree_4_3_u09_r6_network.node[0].content_store 	decision_ratio[0] 	0
scalar tree_4_3_u09_r6_network.node[1].core_layer 	interests[1] 	192169
scalar tree_4_3_u09_r6_network.node[1].core_layer 	data[1] 	192123
scalar tree_4_3_u09_r6_network.node[1].content_store 	p_hit[1] 	0
scalar tree_4_3_u09_r6_network.node[1].content_store 	hits[1] 	0
scalar tree_4_3_u09_r6_network.node[1].content_store 	misses[1] 	192169
scalar tree_4_3_u09_r6_network.node[1].content_store 	decision_yes[1] 	0
scalar tree_4_3_u09_r6_network.node[1].content_store 	decision_no[1] 	192123
scalar tree_4_3_u09_r6_network.node[1].content_store 	decision_ratio[1] 	0
scalar tree_4_3_u09_r6_network.node[2].core_layer 	interests[2] 	60283
scalar tree_4_3_u09_r6_network.node[2].core_layer 	data[2] 	60280
scalar tree_4_3_u09_r6_network.node[2].content_store 	p_hit[2] 	0
scalar tree_4_3_u09_r6_network.node[2].content_store 	hits[2] 	0
scalar tree_4_3_u09_r6_network.node[2].content_store 	misses[2] 	60283
scalar tree_4_3_u09_r6_network.node[2].content_store 	decision_yes[2] 	0
scalar tree_4_3_u09_r6_network.node[2].content_store 	decision_no[2] 	60280
scalar tree_4_3_u09_r6_network.node[2].content_store 	decision_ratio[2] 	0
scalar tree_4_3_u09_r6_network.node[3].core_layer 	interests[3] 	19996
scalar tree_4_3_u09_r6_network.node[3].core_layer 	data[3] 	19996
scalar tree_4_3_u09_r6_network.node[3].content_store 	p_hit[3] 	0
scalar tree_4_3_u09_r6_network.node[3].content_store 	hits[3] 	0
scalar tree_4_3_u09_r6_network.node[3].content_store 	misses[3] 	19996
scalar tree_4_3_u09_r6_network.node[3].content_store 	decision_yes[3] 	0
scalar tree_4_3_u09_r6_network.node[3].content_store 	decision_no[3] 	19996
scalar tree_4_3_u09_r6_network.node[3].content_store 	decision_ratio[3] 	0
scalar tree_4_3_u09_r6_network.node[4].core_layer 	interests[4] 	50478
scalar tree_4_3_u09_r6_network.node[4].core_layer 	data[4] 	50474
scalar tree_4_3_u09_r6_network.node[4].content_store 	p_hit[4] 	0
scalar tree_4_3_u09_r6_network.node[4].content_store 	hits[4] 	0
scalar tree_4_3_u09_r6_network.node[4].content_store 	misses[4] 	50478
scalar tree_4_3_u09_r6_network.node[4].content_store 	decision_yes[4] 	0
scalar tree_4_3_u09_r6_network.node[4].content_store 	decision_no[4] 	50474
scalar tree_4_3_u09_r6_network.node[4].content_store 	decision_ratio[4] 	0
scalar tree_4_3_u09_r6_network.node[5].core_layer 	interests[5] 	30212
scalar tree_4_3_u09_r6_network.node[5].core_layer 	data[5] 	30210
scalar tree_4_3_u09_r6_network.node[5].content_store 	p_hit[5] 	0
scalar tree_4_3_u09_r6_network.node[5].content_store 	hits[5] 	0
scalar tree_4_3_u09_r6_network.node[5].content_store 	misses[5] 	30212
scalar tree_4_3_u09_r6_network.node[5].content_store 	decision_yes[5] 	0
scalar tree_4_3_u09_r6_network.node[5].content_store 	decision_no[5] 	30210
scalar tree_4_3_u09_r6_network.node[5].content_store 	decision_ratio[5] 	0
scalar tree_4_3_u09_r6_network.node[6].core_layer 	interests[6] 	10013
scalar tree_4_3_u09_r6_network.node[6].core_layer 	data[6] 	10013
scalar tree_4_3_u09_r6_network.node[6].content_store 	p_hit[6] 	0
scalar tree_4_3_u09_r6_network.node[6].content_store 	hits[6] 	0
scalar tree_4_3_u09_r6_network.node[6].content_store 	misses[6] 	10013
scalar tree_4_3_u09_r6_network.node[6].content_store 	decision_yes[6] 	0
scalar tree_4_3_u09_r6_network.node[6].content_store 	decision_no[6] 	10013
scalar tree_4_3_u09_r6_network.node[6].content_store 	decision_ratio[6] 	0
scalar tree_4_3_u09_r6_network.node[7].core_layer 	interests[7] 	50752
scalar tree_4_3_u09_r6_network.node[7].core_layer 	data[7] 	50746
scalar tree_4_3_u09_r6_network.node[7].content_store 	p_hit[7] 	0
scalar tree_4_3_u09_r6_network.node[7].content_store 	hits[7] 	0
scalar tree_4_3_u09_r6_network.node[7].content_store 	misses[7] 	50752
scalar tree_4_3_u09_r6_network.node[7].content_store 	decision_yes[7] 	0
scalar tree_4_3_u09_r6_network.node[7].content_store 	decision_no[7] 	50746
scalar tree_4_3_u09_r6_network.node[7].content_store 	decision_ratio[7] 	0
scalar tree_4_3_u09_r6_network.node[8].core_layer 	interests[8] 	29953
scalar tree_4_3_u09_r6_network.node[8].core_layer 	data[8] 	29951
scalar tree_4_3_u09_r6_network.node[8].content_store 	p_hit[8] 	0
scalar tree_4_3_u09_r6_network.node[8].content_store 	hits[8] 	0
scalar tree_4_3_u09_r6_network.node[8].content_store 	misses[8] 	29953
scalar tree_4_3_u09_r6_network.node[8].content_store 	decision_yes[8] 	0
scalar tree_4_3_u09_r6_network.node[8].content_store 	decision_no[8] 	29951
scalar tree_4_3_u09_r6_network.node[8].content_store 	decision_ratio[8] 	0
scalar tree_4_3_u09_r6_network.node[9].core_layer 	interests[9] 	10272
scalar tree_4_3_u09_r6_network.node[9].core_layer 	data[9] 	10272
scalar tree_4_3_u09_r6_network.node[9].content_store 	p_hit[9] 	0
scalar tree_4_3_u09_r6_network.node[9].content_store 	hits[9] 	0
scalar tree_4_3_u09_r6_network.node[9].content_store 	misses[9] 	10272
scalar tree_4_3_u09_r6_network.node[9].content_store 	decision_yes[9] 	0
scalar tree_4_3_u09_r6_network.node[9].content_store 	decision_no[9] 	10272
scalar tree_4_3_u09_r6_network.node[9].content_store 	decision_ratio[9] 	0
scalar tree_4_3_u09_r6_network.node[10].core_layer 	interests[10] 	50728
scalar tree_4_3_u09_r6_network.node[10].core_layer 	data[10] 	50726
scalar tree_4_3_u09_r6_network.node[10].content_store 	p_hit[10] 	0
scalar tree_4_3_u09_r6_network.node[10].content_store 	hits[10] 	0
scalar tree_4_3_u09_r6_network.node[10].content_store 	misses[10] 	50728
scalar tree_4_3_u09_r6_network.node[10].content_store 	decision_yes[10] 	0
scalar tree_4_3_u09_r6_network.node[10].content_store 	decision_no[10] 	50726
scalar tree_4_3_u09_r6_network.node[10].content_store 	decision_ratio[10] 	0
scalar tree_4_3_u09_r6_network.node[11].core_layer 	interests[11] 	20060
scalar tree_4_3_u09_r6_network.node[11].core_layer 	data[11] 	20060
scalar tree_4_3_u09_r6_network.node[11].content_store 	p_hit[11] 	0
scalar tree_4_3_u09_r6_network.node[11].content_store 	hits[11] 	0
scalar tree_4_3_u09_r6_network.node[11].content_store 	misses[11] 	20060
scalar tree_4_3_u09_r6_network.node[11].content_store 	decision_yes[11] 	0
scalar tree_4_3_u09_r6_network.node[11].content_store 	decision_no[11] 	20060
scalar tree_4_3_u09_r6_network.node[11].content_store 	decision_ratio[11] 	0
scalar tree_4_3_u09_r6_network.node[12].core_layer 	interests[12] 	19996
scalar tree_4_3_u09_r6_network.node[12].core_layer 	data[12] 	19996
scalar tree_4_3_u09_r6_network.node[12].content_store 	p_hit[12] 	0
scalar tree_4_3_u09_r6_network.node[12].content_store 	hits[12] 	0
scalar tree_4_3_u09_r6_network.node[12].content_store 	misses[12] 	19996
scalar tree_4_3_u09_r6_network.node[12].content_store 	decision_yes[12] 	0
scalar tree_4_3_u09_r6_network.node[12].content_store 	decision_no[12] 	19996
scalar tree_4_3_u09_r6_network.node[12].content_store 	decision_ratio[12] 	0
scalar tree_4_3_u09_r6_network.node[13].core_layer 	interests[13] 	11855
scalar tree_4_3_u09_r6_network.node[13].core_layer 	data[13] 	10032
scalar tree_4_3_u09_r6_network.node[13].content_store 	p_hit[13] 	0.1536904259806
scalar tree_4_3_u09_r6_network.node[13].content_store 	hits[13] 	1822
scalar tree_4_3_u09_r6_network.node[13].content_store 	misses[13] 	10033
scalar tree_4_3_u09_r6_network.node[13].content_store 	decision_yes[13] 	10032
scalar tree_4_3_u09_r6_network.node[13].content_store 	decision_no[13] 	0
scalar tree_4_3_u09_r6_network.node[13].content_store 	decision_ratio[13] 	1
scalar tree_4_3_u09_r6_network.node[14].core_layer 	interests[14] 	11995
scalar tree_4_3_u09_r6_network.node[14].core_layer 	data[14] 	10161
scalar tree_4_3_u09_r6_network.node[14].content_store 	p_hit[14] 	0.15264693622343
scalar tree_4_3_u09_r6_network.node[14].content_store 	hits[14] 	1831
scalar tree_4_3_u09_r6_network.node[14].content_store 	misses[14] 	10164
scalar tree_4_3_u09_r6_network.node[14].content_store 	decision_yes[14] 	10161
scalar tree_4_3_u09_r6_network.node[14].content_store 	decision_no[14] 	0
scalar tree_4_3_u09_r6_network.node[14].content_store 	decision_ratio[14] 	1
scalar tree_4_3_u09_r6_network.node[15].core_layer 	interests[15] 	11894
scalar tree_4_3_u09_r6_network.node[15].core_layer 	data[15] 	9976
scalar tree_4_3_u09_r6_network.node[15].content_store 	p_hit[15] 	0.16125777703044
scalar tree_4_3_u09_r6_network.node[15].content_store 	hits[15] 	1918
scalar tree_4_3_u09_r6_network.node[15].content_store 	misses[15] 	9976
scalar tree_4_3_u09_r6_network.node[15].content_store 	decision_yes[15] 	9976
scalar tree_4_3_u09_r6_network.node[15].content_store 	decision_no[15] 	0
scalar tree_4_3_u09_r6_network.node[15].content_store 	decision_ratio[15] 	1
scalar tree_4_3_u09_r6_network.node[16].core_layer 	interests[16] 	12010
scalar tree_4_3_u09_r6_network.node[16].core_layer 	data[16] 	10073
scalar tree_4_3_u09_r6_network.node[16].content_store 	p_hit[16] 	0.16136552872606
scalar tree_4_3_u09_r6_network.node[16].content_store 	hits[16] 	1938
scalar tree_4_3_u09_r6_network.node[16].content_store 	misses[16] 	10072
scalar tree_4_3_u09_r6_network.node[16].content_store 	decision_yes[16] 	10073
scalar tree_4_3_u09_r6_network.node[16].content_store 	decision_no[16] 	0
scalar tree_4_3_u09_r6_network.node[16].content_store 	decision_ratio[16] 	1
scalar tree_4_3_u09_r6_network.node[17].core_layer 	interests[17] 	11921
scalar tree_4_3_u09_r6_network.node[17].core_layer 	data[17] 	10041
scalar tree_4_3_u09_r6_network.node[17].content_store 	p_hit[17] 	0.15770489052932
scalar tree_4_3_u09_r6_network.node[17].content_store 	hits[17] 	1880
scalar tree_4_3_u09_r6_network.node[17].content_store 	misses[17] 	10041
scalar tree_4_3_u09_r6_network.node[17].content_store 	decision_yes[17] 	10041
scalar tree_4_3_u09_r6_network.node[17].content_store 	decision_no[17] 	0
scalar tree_4_3_u09_r6_network.node[17].content_store 	decision_ratio[17] 	1
scalar tree_4_3_u09_r6_network.node[18].core_layer 	interests[18] 	12005
scalar tree_4_3_u09_r6_network.node[18].core_layer 	data[18] 	10114
scalar tree_4_3_u09_r6_network.node[18].content_store 	p_hit[18] 	0.15743440233236
scalar tree_4_3_u09_r6_network.node[18].content_store 	hits[18] 	1890
scalar tree_4_3_u09_r6_network.node[18].content_store 	misses[18] 	10115
scalar tree_4_3_u09_r6_network.node[18].content_store 	decision_yes[18] 	10114
scalar tree_4_3_u09_r6_network.node[18].content_store 	decision_no[18] 	0
scalar tree_4_3_u09_r6_network.node[18].content_store 	decision_ratio[18] 	1
scalar tree_4_3_u09_r6_network.node[19].core_layer 	interests[19] 	12136
scalar tree_4_3_u09_r6_network.node[19].core_layer 	data[19] 	10237
scalar tree_4_3_u09_r6_network.node[19].content_store 	p_hit[19] 	0.15647659854977
scalar tree_4_3_u09_r6_network.node[19].content_store 	hits[19] 	1899
scalar tree_4_3_u09_r6_network.node[19].content_store 	misses[19] 	10237
scalar tree_4_3_u09_r6_network.node[19].content_store 	decision_yes[19] 	10237
scalar tree_4_3_u09_r6_network.node[19].content_store 	decision_no[19] 	0
scalar tree_4_3_u09_r6_network.node[19].content_store 	decision_ratio[19] 	1
scalar tree_4_3_u09_r6_network.node[20].core_layer 	interests[20] 	12063
scalar tree_4_3_u09_r6_network.node[20].core_layer 	data[20] 	10057
scalar tree_4_3_u09_r6_network.node[20].content_store 	p_hit[20] 	0.1662107270165
scalar tree_4_3_u09_r6_network.node[20].content_store 	hits[20] 	2005
scalar tree_4_3_u09_r6_network.node[20].content_store 	misses[20] 	10058
scalar tree_4_3_u09_r6_network.node[20].content_store 	decision_yes[20] 	10057
scalar tree_4_3_u09_r6_network.node[20].content_store 	decision_no[20] 	0
scalar tree_4_3_u09_r6_network.node[20].content_store 	decision_ratio[20] 	1
scalar tree_4_3_u09_r6_network.node[21].core_layer 	interests[21] 	11808
scalar tree_4_3_u09_r6_network.node[21].core_layer 	data[21] 	10013
scalar tree_4_3_u09_r6_network.node[21].content_store 	p_hit[21] 	0.15184620596206
scalar tree_4_3_u09_r6_network.node[21].content_store 	hits[21] 	1793
scalar tree_4_3_u09_r6_network.node[21].content_store 	misses[21] 	10015
scalar tree_4_3_u09_r6_network.node[21].content_store 	decision_yes[21] 	10013
scalar tree_4_3_u09_r6_network.node[21].content_store 	decision_no[21] 	0
scalar tree_4_3_u09_r6_network.node[21].content_store 	decision_ratio[21] 	1
scalar tree_4_3_u09_r6_network.node[22].core_layer 	interests[22] 	12014
scalar tree_4_3_u09_r6_network.node[22].core_layer 	data[22] 	10059
scalar tree_4_3_u09_r6_network.node[22].content_store 	p_hit[22] 	0.1626435824871
scalar tree_4_3_u09_r6_network.node[22].content_store 	hits[22] 	1954
scalar tree_4_3_u09_r6_network.node[22].content_store 	misses[22] 	10060
scalar tree_4_3_u09_r6_network.node[22].content_store 	decision_yes[22] 	10059
scalar tree_4_3_u09_r6_network.node[22].content_store 	decision_no[22] 	0
scalar tree_4_3_u09_r6_network.node[22].content_store 	decision_ratio[22] 	1
scalar tree_4_3_u09_r6_network.node[23].core_layer 	interests[23] 	11935
scalar tree_4_3_u09_r6_network.node[23].core_layer 	data[23] 	10097
scalar tree_4_3_u09_r6_network.node[23].content_store 	p_hit[23] 	0.15391705069124
scalar tree_4_3_u09_r6_network.node[23].content_store 	hits[23] 	1837
scalar tree_4_3_u09_r6_network.node[23].content_store 	misses[23] 	10098
scalar tree_4_3_u09_r6_network.node[23].content_store 	decision_yes[23] 	10097
scalar tree_4_3_u09_r6_network.node[23].content_store 	decision_no[23] 	0
scalar tree_4_3_u09_r6_network.node[23].content_store 	decision_ratio[23] 	1
scalar tree_4_3_u09_r6_network.node[24].core_layer 	interests[24] 	12059
scalar tree_4_3_u09_r6_network.node[24].core_layer 	data[24] 	10221
scalar tree_4_3_u09_r6_network.node[24].content_store 	p_hit[24] 	0.15241728169832
scalar tree_4_3_u09_r6_network.node[24].content_store 	hits[24] 	1838
scalar tree_4_3_u09_r6_network.node[24].content_store 	misses[24] 	10221
scalar tree_4_3_u09_r6_network.node[24].content_store 	decision_yes[24] 	10221
scalar tree_4_3_u09_r6_network.node[24].content_store 	decision_no[24] 	0
scalar tree_4_3_u09_r6_network.node[24].content_store 	decision_ratio[24] 	1
scalar tree_4_3_u09_r6_network.node[25].core_layer 	interests[25] 	11993
scalar tree_4_3_u09_r6_network.node[25].core_layer 	data[25] 	10133
scalar tree_4_3_u09_r6_network.node[25].content_store 	p_hit[25] 	0.15492370549487
scalar tree_4_3_u09_r6_network.node[25].content_store 	hits[25] 	1858
scalar tree_4_3_u09_r6_network.node[25].content_store 	misses[25] 	10135
scalar tree_4_3_u09_r6_network.node[25].content_store 	decision_yes[25] 	10133
scalar tree_4_3_u09_r6_network.node[25].content_store 	decision_no[25] 	0
scalar tree_4_3_u09_r6_network.node[25].content_store 	decision_ratio[25] 	1
scalar tree_4_3_u09_r6_network.node[26].core_layer 	interests[26] 	11780
scalar tree_4_3_u09_r6_network.node[26].core_layer 	data[26] 	9942
scalar tree_4_3_u09_r6_network.node[26].content_store 	p_hit[26] 	0.15602716468591
scalar tree_4_3_u09_r6_network.node[26].content_store 	hits[26] 	1838
scalar tree_4_3_u09_r6_network.node[26].content_store 	misses[26] 	9942
scalar tree_4_3_u09_r6_network.node[26].content_store 	decision_yes[26] 	9942
scalar tree_4_3_u09_r6_network.node[26].content_store 	decision_no[26] 	0
scalar tree_4_3_u09_r6_network.node[26].content_store 	decision_ratio[26] 	1
scalar tree_4_3_u09_r6_network.node[27].core_layer 	interests[27] 	11875
scalar tree_4_3_u09_r6_network.node[27].core_layer 	data[27] 	10080
scalar tree_4_3_u09_r6_network.node[27].content_store 	p_hit[27] 	0.15107368421053
scalar tree_4_3_u09_r6_network.node[27].content_store 	hits[27] 	1794
scalar tree_4_3_u09_r6_network.node[27].content_store 	misses[27] 	10081
scalar tree_4_3_u09_r6_network.node[27].content_store 	decision_yes[27] 	10080
scalar tree_4_3_u09_r6_network.node[27].content_store 	decision_no[27] 	0
scalar tree_4_3_u09_r6_network.node[27].content_store 	decision_ratio[27] 	1
scalar tree_4_3_u09_r6_network.node[28].core_layer 	interests[28] 	12111
scalar tree_4_3_u09_r6_network.node[28].core_layer 	data[28] 	10241
scalar tree_4_3_u09_r6_network.node[28].content_store 	p_hit[28] 	0.1544050862852
scalar tree_4_3_u09_r6_network.node[28].content_store 	hits[28] 	1870
scalar tree_4_3_u09_r6_network.node[28].content_store 	misses[28] 	10241
scalar tree_4_3_u09_r6_network.node[28].content_store 	decision_yes[28] 	10241
scalar tree_4_3_u09_r6_network.node[28].content_store 	decision_no[28] 	0
scalar tree_4_3_u09_r6_network.node[28].content_store 	decision_ratio[28] 	1
scalar tree_4_3_u09_r6_network.node[29].core_layer 	interests[29] 	11878
scalar tree_4_3_u09_r6_network.node[29].core_layer 	data[29] 	9930
scalar tree_4_3_u09_r6_network.node[29].content_store 	p_hit[29] 	0.16383229499916
scalar tree_4_3_u09_r6_network.node[29].content_store 	hits[29] 	1946
scalar tree_4_3_u09_r6_network.node[29].content_store 	misses[29] 	9932
scalar tree_4_3_u09_r6_network.node[29].content_store 	decision_yes[29] 	9930
scalar tree_4_3_u09_r6_network.node[29].content_store 	decision_no[29] 	0
scalar tree_4_3_u09_r6_network.node[29].content_store 	decision_ratio[29] 	1
scalar tree_4_3_u09_r6_network.node[30].core_layer 	interests[30] 	12223
scalar tree_4_3_u09_r6_network.node[30].core_layer 	data[30] 	10272
scalar tree_4_3_u09_r6_network.node[30].content_store 	p_hit[30] 	0.15961711527448
scalar tree_4_3_u09_r6_network.node[30].content_store 	hits[30] 	1951
scalar tree_4_3_u09_r6_network.node[30].content_store 	misses[30] 	10272
scalar tree_4_3_u09_r6_network.node[30].content_store 	decision_yes[30] 	10272
scalar tree_4_3_u09_r6_network.node[30].content_store 	decision_no[30] 	0
scalar tree_4_3_u09_r6_network.node[30].content_store 	decision_ratio[30] 	1
scalar tree_4_3_u09_r6_network.node[31].core_layer 	interests[31] 	12141
scalar tree_4_3_u09_r6_network.node[31].core_layer 	data[31] 	10286
scalar tree_4_3_u09_r6_network.node[31].content_store 	p_hit[31] 	0.15262334239354
scalar tree_4_3_u09_r6_network.node[31].content_store 	hits[31] 	1853
scalar tree_4_3_u09_r6_network.node[31].content_store 	misses[31] 	10288
scalar tree_4_3_u09_r6_network.node[31].content_store 	decision_yes[31] 	10286
scalar tree_4_3_u09_r6_network.node[31].content_store 	decision_no[31] 	0
scalar tree_4_3_u09_r6_network.node[31].content_store 	decision_ratio[31] 	1
scalar tree_4_3_u09_r6_network.node[32].core_layer 	interests[32] 	12032
scalar tree_4_3_u09_r6_network.node[32].core_layer 	data[32] 	10130
scalar tree_4_3_u09_r6_network.node[32].content_store 	p_hit[32] 	0.15807845744681
scalar tree_4_3_u09_r6_network.node[32].content_store 	hits[32] 	1902
scalar tree_4_3_u09_r6_network.node[32].content_store 	misses[32] 	10130
scalar tree_4_3_u09_r6_network.node[32].content_store 	decision_yes[32] 	10130
scalar tree_4_3_u09_r6_network.node[32].content_store 	decision_no[32] 	0
scalar tree_4_3_u09_r6_network.node[32].content_store 	decision_ratio[32] 	1
scalar tree_4_3_u09_r6_network.node[33].core_layer 	interests[33] 	12144
scalar tree_4_3_u09_r6_network.node[33].core_layer 	data[33] 	10262
scalar tree_4_3_u09_r6_network.node[33].content_store 	p_hit[33] 	0.15497364953887
scalar tree_4_3_u09_r6_network.node[33].content_store 	hits[33] 	1882
scalar tree_4_3_u09_r6_network.node[33].content_store 	misses[33] 	10262
scalar tree_4_3_u09_r6_network.node[33].content_store 	decision_yes[33] 	10262
scalar tree_4_3_u09_r6_network.node[33].content_store 	decision_no[33] 	0
scalar tree_4_3_u09_r6_network.node[33].content_store 	decision_ratio[33] 	1
scalar tree_4_3_u09_r6_network.node[34].core_layer 	interests[34] 	11974
scalar tree_4_3_u09_r6_network.node[34].core_layer 	data[34] 	10077
scalar tree_4_3_u09_r6_network.node[34].content_store 	p_hit[34] 	0.15842659094705
scalar tree_4_3_u09_r6_network.node[34].content_store 	hits[34] 	1897
scalar tree_4_3_u09_r6_network.node[34].content_store 	misses[34] 	10077
scalar tree_4_3_u09_r6_network.node[34].content_store 	decision_yes[34] 	10077
scalar tree_4_3_u09_r6_network.node[34].content_store 	decision_no[34] 	0
scalar tree_4_3_u09_r6_network.node[34].content_store 	decision_ratio[34] 	1
scalar tree_4_3_u09_r6_network.node[35].core_layer 	interests[35] 	11757
scalar tree_4_3_u09_r6_network.node[35].core_layer 	data[35] 	9887
scalar tree_4_3_u09_r6_network.node[35].content_store 	p_hit[35] 	0.15905418048822
scalar tree_4_3_u09_r6_network.node[35].content_store 	hits[35] 	1870
scalar tree_4_3_u09_r6_network.node[35].content_store 	misses[35] 	9887
scalar tree_4_3_u09_r6_network.node[35].content_store 	decision_yes[35] 	9887
scalar tree_4_3_u09_r6_network.node[35].content_store 	decision_no[35] 	0
scalar tree_4_3_u09_r6_network.node[35].content_store 	decision_ratio[35] 	1
scalar tree_4_3_u09_r6_network.node[36].core_layer 	interests[36] 	11969
scalar tree_4_3_u09_r6_network.node[36].core_layer 	data[36] 	10173
scalar tree_4_3_u09_r6_network.node[36].content_store 	p_hit[36] 	0.15005430695965
scalar tree_4_3_u09_r6_network.node[36].content_store 	hits[36] 	1796
scalar tree_4_3_u09_r6_network.node[36].content_store 	misses[36] 	10173
scalar tree_4_3_u09_r6_network.node[36].content_store 	decision_yes[36] 	10173
scalar tree_4_3_u09_r6_network.node[36].content_store 	decision_no[36] 	0
scalar tree_4_3_u09_r6_network.node[36].content_store 	decision_ratio[36] 	1
scalar tree_4_3_u09_r6_network.node[37].core_layer 	interests[37] 	11804
scalar tree_4_3_u09_r6_network.node[37].core_layer 	data[37] 	9973
scalar tree_4_3_u09_r6_network.node[37].content_store 	p_hit[37] 	0.15494747543206
scalar tree_4_3_u09_r6_network.node[37].content_store 	hits[37] 	1829
scalar tree_4_3_u09_r6_network.node[37].content_store 	misses[37] 	9975
scalar tree_4_3_u09_r6_network.node[37].content_store 	decision_yes[37] 	9973
scalar tree_4_3_u09_r6_network.node[37].content_store 	decision_no[37] 	0
scalar tree_4_3_u09_r6_network.node[37].content_store 	decision_ratio[37] 	1
scalar tree_4_3_u09_r6_network.node[38].core_layer 	interests[38] 	11807
scalar tree_4_3_u09_r6_network.node[38].core_layer 	data[38] 	10030
scalar tree_4_3_u09_r6_network.node[38].content_store 	p_hit[38] 	0.15050393834166
scalar tree_4_3_u09_r6_network.node[38].content_store 	hits[38] 	1777
scalar tree_4_3_u09_r6_network.node[38].content_store 	misses[38] 	10030
scalar tree_4_3_u09_r6_network.node[38].content_store 	decision_yes[38] 	10030
scalar tree_4_3_u09_r6_network.node[38].content_store 	decision_no[38] 	0
scalar tree_4_3_u09_r6_network.node[38].content_store 	decision_ratio[38] 	1
scalar tree_4_3_u09_r6_network.node[39].core_layer 	interests[39] 	11824
scalar tree_4_3_u09_r6_network.node[39].core_layer 	data[39] 	9966
scalar tree_4_3_u09_r6_network.node[39].content_store 	p_hit[39] 	0.15705345060893
scalar tree_4_3_u09_r6_network.node[39].content_store 	hits[39] 	1857
scalar tree_4_3_u09_r6_network.node[39].content_store 	misses[39] 	9967
scalar tree_4_3_u09_r6_network.node[39].content_store 	decision_yes[39] 	9966
scalar tree_4_3_u09_r6_network.node[39].content_store 	decision_no[39] 	0
scalar tree_4_3_u09_r6_network.node[39].content_store 	decision_ratio[39] 	1
scalar tree_4_3_u09_r6_network.client[13] 	hdistance[13] 	3.3851864349587
scalar tree_4_3_u09_r6_network.client[13] 	downloads[13] 	11854
scalar tree_4_3_u09_r6_network.client[13] 	avg_time[13] 	0.005077218267
scalar tree_4_3_u09_r6_network.client[14] 	hdistance[14] 	3.3892595063376
scalar tree_4_3_u09_r6_network.client[14] 	downloads[14] 	11992
scalar tree_4_3_u09_r6_network.client[14] 	avg_time[14] 	0.005083653685
scalar tree_4_3_u09_r6_network.client[15] 	hdistance[15] 	3.3549688918783
scalar tree_4_3_u09_r6_network.client[15] 	downloads[15] 	11894
scalar tree_4_3_u09_r6_network.client[15] 	avg_time[15] 	0.005032151675
scalar tree_4_3_u09_r6_network.client[16] 	hdistance[16] 	3.3545916243444
scalar tree_4_3_u09_r6_network.client[16] 	downloads[16] 	12011
scalar tree_4_3_u09_r6_network.client[16] 	avg_time[16] 	0.005031765065
scalar tree_4_3_u09_r6_network.client[17] 	hdistance[17] 	3.3691804378827
scalar tree_4_3_u09_r6_network.client[17] 	downloads[17] 	11921
scalar tree_4_3_u09_r6_network.client[17] 	avg_time[17] 	0.005053529447
scalar tree_4_3_u09_r6_network.client[18] 	hdistance[18] 	3.3702099300233
scalar tree_4_3_u09_r6_network.client[18] 	downloads[18] 	12004
scalar tree_4_3_u09_r6_network.client[18] 	avg_time[18] 	0.005054846166
scalar tree_4_3_u09_r6_network.client[19] 	hdistance[19] 	3.3740936058009
scalar tree_4_3_u09_r6_network.client[19] 	downloads[19] 	12136
scalar tree_4_3_u09_r6_network.client[19] 	avg_time[19] 	0.00506018658
scalar tree_4_3_u09_r6_network.client[20] 	hdistance[20] 	3.3351019731388
scalar tree_4_3_u09_r6_network.client[20] 	downloads[20] 	12062
scalar tree_4_3_u09_r6_network.client[20] 	avg_time[20] 	0.005002210826
scalar tree_4_3_u09_r6_network.client[21] 	hdistance[21] 	3.3925122818906
scalar tree_4_3_u09_r6_network.client[21] 	downloads[21] 	11806
scalar tree_4_3_u09_r6_network.client[21] 	avg_time[21] 	0.005088571386
scalar tree_4_3_u09_r6_network.client[22] 	hdistance[22] 	3.349371514193
scalar tree_4_3_u09_r6_network.client[22] 	downloads[22] 	12013
scalar tree_4_3_u09_r6_network.client[22] 	avg_time[22] 	0.005023497947
scalar tree_4_3_u09_r6_network.client[23] 	hdistance[23] 	3.3842802078096
scalar tree_4_3_u09_r6_network.client[23] 	downloads[23] 	11934
scalar tree_4_3_u09_r6_network.client[23] 	avg_time[23] 	0.005075893389
scalar tree_4_3_u09_r6_network.client[24] 	hdistance[24] 	3.3903308732067
scalar tree_4_3_u09_r6_network.client[24] 	downloads[24] 	12059
scalar tree_4_3_u09_r6_network.client[24] 	avg_time[24] 	0.005085144485
scalar tree_4_3_u09_r6_network.client[25] 	hdistance[25] 	3.3802018180302
scalar tree_4_3_u09_r6_network.client[25] 	downloads[25] 	11991
scalar tree_4_3_u09_r6_network.client[25] 	avg_time[25] 	0.005069382987
scalar tree_4_3_u09_r6_network.client[26] 	hdistance[26] 	3.3758913412564
scalar tree_4_3_u09_r6_network.client[26] 	downloads[26] 	11780
scalar tree_4_3_u09_r6_network.client[26] 	avg_time[26] 	0.005063666593
scalar tree_4_3_u09_r6_network.client[27] 	hdistance[27] 	3.3956543708944
scalar tree_4_3_u09_r6_network.client[27] 	downloads[27] 	11874
scalar tree_4_3_u09_r6_network.client[27] 	avg_time[27] 	0.005093478579
scalar tree_4_3_u09_r6_network.client[28] 	hdistance[28] 	3.3823796548592
scalar tree_4_3_u09_r6_network.client[28] 	downloads[28] 	12111
scalar tree_4_3_u09_r6_network.client[28] 	avg_time[28] 	0.005072728956
scalar tree_4_3_u09_r6_network.client[29] 	hdistance[29] 	3.3445604580667
scalar tree_4_3_u09_r6_network.client[29] 	downloads[29] 	11876
scalar tree_4_3_u09_r6_network.client[29] 	avg_time[29] 	0.005016664714
scalar tree_4_3_u09_r6_network.client[30] 	hdistance[30] 	3.3615315389021
scalar tree_4_3_u09_r6_network.client[30] 	downloads[30] 	12223
scalar tree_4_3_u09_r6_network.client[30] 	avg_time[30] 	0.005042294259
scalar tree_4_3_u09_r6_network.client[31] 	hdistance[31] 	3.3894060466266
scalar tree_4_3_u09_r6_network.client[31] 	downloads[31] 	12139
scalar tree_4_3_u09_r6_network.client[31] 	avg_time[31] 	0.005083141745
scalar tree_4_3_u09_r6_network.client[32] 	hdistance[32] 	3.3676861702128
scalar tree_4_3_u09_r6_network.client[32] 	downloads[32] 	12032
scalar tree_4_3_u09_r6_network.client[32] 	avg_time[32] 	0.005051379971
scalar tree_4_3_u09_r6_network.client[33] 	hdistance[33] 	3.3801054018445
scalar tree_4_3_u09_r6_network.client[33] 	downloads[33] 	12144
scalar tree_4_3_u09_r6_network.client[33] 	avg_time[33] 	0.005069974583
scalar tree_4_3_u09_r6_network.client[34] 	hdistance[34] 	3.3662936362118
scalar tree_4_3_u09_r6_network.client[34] 	downloads[34] 	11974
scalar tree_4_3_u09_r6_network.client[34] 	avg_time[34] 	0.005049398892
scalar tree_4_3_u09_r6_network.client[35] 	hdistance[35] 	3.3637832780471
scalar tree_4_3_u09_r6_network.client[35] 	downloads[35] 	11757
scalar tree_4_3_u09_r6_network.client[35] 	avg_time[35] 	0.00504550541
scalar tree_4_3_u09_r6_network.client[36] 	hdistance[36] 	3.3997827721614
scalar tree_4_3_u09_r6_network.client[36] 	downloads[36] 	11969
scalar tree_4_3_u09_r6_network.client[36] 	avg_time[36] 	0.005099671167
scalar tree_4_3_u09_r6_network.client[37] 	hdistance[37] 	3.3801050669378
scalar tree_4_3_u09_r6_network.client[37] 	downloads[37] 	11802
scalar tree_4_3_u09_r6_network.client[37] 	avg_time[37] 	0.005069521899
scalar tree_4_3_u09_r6_network.client[38] 	hdistance[38] 	3.3979842466333
scalar tree_4_3_u09_r6_network.client[38] 	downloads[38] 	11807
scalar tree_4_3_u09_r6_network.client[38] 	avg_time[38] 	0.00509686744
scalar tree_4_3_u09_r6_network.client[39] 	hdistance[39] 	3.3717330626744
scalar tree_4_3_u09_r6_network.client[39] 	downloads[39] 	11823
scalar tree_4_3_u09_r6_network.client[39] 	avg_time[39] 	0.005057673694
