version 2
run General-181-20160818-23:27:04-32642
attr a 0.9
attr cd lce
attr configname General
attr cr lru
attr datetime 20160818-23:27:04
attr experiment General
attr fsize 1
attr inifile hw5115/scenario_A/Edge.ini
attr iterationvars "$name=tree_4_3, $un=09, $rep=2, $scenario=Edge, $cd=lce, $cr=lru, $fsize=1, $a=0.9, $sl=spr, $ttl=1000, $variance=0.05"
attr iterationvars2 "$name=tree_4_3, $un=09, $rep=2, $scenario=Edge, $cd=lce, $cr=lru, $fsize=1, $a=0.9, $sl=spr, $ttl=1000, $variance=0.05, $repetition=0"
attr measurement "$name=tree_4_3, $un=09, $rep=2, $scenario=Edge, $cd=lce, $cr=lru, $fsize=1, $a=0.9, $sl=spr, $ttl=1000, $variance=0.05"
attr name tree_4_3
attr network networks.${name}_u${un}_r${rep}_network
attr processid 32642
attr rep 2
attr repetition 0
attr replication #0
attr resultdir results
attr runnumber 181
attr scenario Edge
attr seedset 2
attr sl spr
attr ttl 1000
attr un 09
attr variance 0.05

scalar . 	a 	0.9
scalar . 	fsize 	1
scalar . 	rep 	2
scalar . 	ttl 	1000
scalar . 	un 	09
scalar . 	variance 	0.05
scalar tree_4_3_u09_r2_network.content_distribution 	repo-0 	0
scalar tree_4_3_u09_r2_network.content_distribution 	client-0 	13
scalar tree_4_3_u09_r2_network.content_distribution 	client-1 	14
scalar tree_4_3_u09_r2_network.content_distribution 	client-2 	15
scalar tree_4_3_u09_r2_network.content_distribution 	client-3 	16
scalar tree_4_3_u09_r2_network.content_distribution 	client-4 	17
scalar tree_4_3_u09_r2_network.content_distribution 	client-5 	18
scalar tree_4_3_u09_r2_network.content_distribution 	client-6 	19
scalar tree_4_3_u09_r2_network.content_distribution 	client-7 	20
scalar tree_4_3_u09_r2_network.content_distribution 	client-8 	21
scalar tree_4_3_u09_r2_network.content_distribution 	client-9 	22
scalar tree_4_3_u09_r2_network.content_distribution 	client-10 	23
scalar tree_4_3_u09_r2_network.content_distribution 	client-11 	24
scalar tree_4_3_u09_r2_network.content_distribution 	client-12 	25
scalar tree_4_3_u09_r2_network.content_distribution 	client-13 	26
scalar tree_4_3_u09_r2_network.content_distribution 	client-14 	27
scalar tree_4_3_u09_r2_network.content_distribution 	client-15 	28
scalar tree_4_3_u09_r2_network.content_distribution 	client-16 	29
scalar tree_4_3_u09_r2_network.content_distribution 	client-17 	30
scalar tree_4_3_u09_r2_network.content_distribution 	client-18 	31
scalar tree_4_3_u09_r2_network.content_distribution 	client-19 	32
scalar tree_4_3_u09_r2_network.content_distribution 	client-20 	33
scalar tree_4_3_u09_r2_network.content_distribution 	client-21 	34
scalar tree_4_3_u09_r2_network.content_distribution 	client-22 	35
scalar tree_4_3_u09_r2_network.content_distribution 	client-23 	36
scalar tree_4_3_u09_r2_network.content_distribution 	client-24 	37
scalar tree_4_3_u09_r2_network.content_distribution 	client-25 	38
scalar tree_4_3_u09_r2_network.content_distribution 	client-26 	39
scalar tree_4_3_u09_r2_network.content_distribution 	repo-0_card 	100000
scalar tree_4_3_u09_r2_network.content_distribution 	repo-0_price 	0
scalar tree_4_3_u09_r2_network.statistics 	stabilization_time 	424.7
scalar tree_4_3_u09_r2_network.statistics 	p_hit 	0.1053958658724
scalar tree_4_3_u09_r2_network.statistics 	interests 	28533.625
scalar tree_4_3_u09_r2_network.statistics 	data 	20452.95
scalar tree_4_3_u09_r2_network.statistics 	hdistance 	3.3753837985801
scalar tree_4_3_u09_r2_network.statistics 	avg_time 	0.005062599611
scalar tree_4_3_u09_r2_network.statistics 	downloads 	323201
scalar tree_4_3_u09_r2_network.statistics 	total_cost 	0
scalar tree_4_3_u09_r2_network.statistics 	total_replicas 	100000
scalar tree_4_3_u09_r2_network.statistics 	inner_hit 	0.15633614995003
scalar tree_4_3_u09_r2_network.node[0].core_layer 	interests[0] 	272673
scalar tree_4_3_u09_r2_network.node[0].core_layer 	repo_load[0] 	272673
scalar tree_4_3_u09_r2_network.node[0].core_layer 	data[0] 	0
scalar tree_4_3_u09_r2_network.node[0].core_layer 	repo_int[0] 	272673
scalar tree_4_3_u09_r2_network.node[0].content_store 	p_hit[0] 	0
scalar tree_4_3_u09_r2_network.node[0].content_store 	hits[0] 	0
scalar tree_4_3_u09_r2_network.node[0].content_store 	misses[0] 	272673
scalar tree_4_3_u09_r2_network.node[0].content_store 	decision_yes[0] 	0
scalar tree_4_3_u09_r2_network.node[0].content_store 	decision_no[0] 	272673
scalar tree_4_3_u09_r2_network.node[0].content_store 	decision_ratio[0] 	0
scalar tree_4_3_u09_r2_network.node[1].core_layer 	interests[1] 	191726
scalar tree_4_3_u09_r2_network.node[1].core_layer 	data[1] 	191689
scalar tree_4_3_u09_r2_network.node[1].content_store 	p_hit[1] 	0
scalar tree_4_3_u09_r2_network.node[1].content_store 	hits[1] 	0
scalar tree_4_3_u09_r2_network.node[1].content_store 	misses[1] 	191726
scalar tree_4_3_u09_r2_network.node[1].content_store 	decision_yes[1] 	0
scalar tree_4_3_u09_r2_network.node[1].content_store 	decision_no[1] 	191689
scalar tree_4_3_u09_r2_network.node[1].content_store 	decision_ratio[1] 	0
scalar tree_4_3_u09_r2_network.node[2].core_layer 	interests[2] 	60695
scalar tree_4_3_u09_r2_network.node[2].core_layer 	data[2] 	60692
scalar tree_4_3_u09_r2_network.node[2].content_store 	p_hit[2] 	0
scalar tree_4_3_u09_r2_network.node[2].content_store 	hits[2] 	0
scalar tree_4_3_u09_r2_network.node[2].content_store 	misses[2] 	60695
scalar tree_4_3_u09_r2_network.node[2].content_store 	decision_yes[2] 	0
scalar tree_4_3_u09_r2_network.node[2].content_store 	decision_no[2] 	60692
scalar tree_4_3_u09_r2_network.node[2].content_store 	decision_ratio[2] 	0
scalar tree_4_3_u09_r2_network.node[3].core_layer 	interests[3] 	20292
scalar tree_4_3_u09_r2_network.node[3].core_layer 	data[3] 	20292
scalar tree_4_3_u09_r2_network.node[3].content_store 	p_hit[3] 	0
scalar tree_4_3_u09_r2_network.node[3].content_store 	hits[3] 	0
scalar tree_4_3_u09_r2_network.node[3].content_store 	misses[3] 	20292
scalar tree_4_3_u09_r2_network.node[3].content_store 	decision_yes[3] 	0
scalar tree_4_3_u09_r2_network.node[3].content_store 	decision_no[3] 	20292
scalar tree_4_3_u09_r2_network.node[3].content_store 	decision_ratio[3] 	0
scalar tree_4_3_u09_r2_network.node[4].core_layer 	interests[4] 	50349
scalar tree_4_3_u09_r2_network.node[4].core_layer 	data[4] 	50342
scalar tree_4_3_u09_r2_network.node[4].content_store 	p_hit[4] 	0
scalar tree_4_3_u09_r2_network.node[4].content_store 	hits[4] 	0
scalar tree_4_3_u09_r2_network.node[4].content_store 	misses[4] 	50349
scalar tree_4_3_u09_r2_network.node[4].content_store 	decision_yes[4] 	0
scalar tree_4_3_u09_r2_network.node[4].content_store 	decision_no[4] 	50342
scalar tree_4_3_u09_r2_network.node[4].content_store 	decision_ratio[4] 	0
scalar tree_4_3_u09_r2_network.node[5].core_layer 	interests[5] 	30255
scalar tree_4_3_u09_r2_network.node[5].core_layer 	data[5] 	30253
scalar tree_4_3_u09_r2_network.node[5].content_store 	p_hit[5] 	0
scalar tree_4_3_u09_r2_network.node[5].content_store 	hits[5] 	0
scalar tree_4_3_u09_r2_network.node[5].content_store 	misses[5] 	30255
scalar tree_4_3_u09_r2_network.node[5].content_store 	decision_yes[5] 	0
scalar tree_4_3_u09_r2_network.node[5].content_store 	decision_no[5] 	30253
scalar tree_4_3_u09_r2_network.node[5].content_store 	decision_ratio[5] 	0
scalar tree_4_3_u09_r2_network.node[6].core_layer 	interests[6] 	10243
scalar tree_4_3_u09_r2_network.node[6].core_layer 	data[6] 	10243
scalar tree_4_3_u09_r2_network.node[6].content_store 	p_hit[6] 	0
scalar tree_4_3_u09_r2_network.node[6].content_store 	hits[6] 	0
scalar tree_4_3_u09_r2_network.node[6].content_store 	misses[6] 	10243
scalar tree_4_3_u09_r2_network.node[6].content_store 	decision_yes[6] 	0
scalar tree_4_3_u09_r2_network.node[6].content_store 	decision_no[6] 	10243
scalar tree_4_3_u09_r2_network.node[6].content_store 	decision_ratio[6] 	0
scalar tree_4_3_u09_r2_network.node[7].core_layer 	interests[7] 	50502
scalar tree_4_3_u09_r2_network.node[7].core_layer 	data[7] 	50498
scalar tree_4_3_u09_r2_network.node[7].content_store 	p_hit[7] 	0
scalar tree_4_3_u09_r2_network.node[7].content_store 	hits[7] 	0
scalar tree_4_3_u09_r2_network.node[7].content_store 	misses[7] 	50502
scalar tree_4_3_u09_r2_network.node[7].content_store 	decision_yes[7] 	0
scalar tree_4_3_u09_r2_network.node[7].content_store 	decision_no[7] 	50498
scalar tree_4_3_u09_r2_network.node[7].content_store 	decision_ratio[7] 	0
scalar tree_4_3_u09_r2_network.node[8].core_layer 	interests[8] 	30467
scalar tree_4_3_u09_r2_network.node[8].core_layer 	data[8] 	30465
scalar tree_4_3_u09_r2_network.node[8].content_store 	p_hit[8] 	0
scalar tree_4_3_u09_r2_network.node[8].content_store 	hits[8] 	0
scalar tree_4_3_u09_r2_network.node[8].content_store 	misses[8] 	30467
scalar tree_4_3_u09_r2_network.node[8].content_store 	decision_yes[8] 	0
scalar tree_4_3_u09_r2_network.node[8].content_store 	decision_no[8] 	30465
scalar tree_4_3_u09_r2_network.node[8].content_store 	decision_ratio[8] 	0
scalar tree_4_3_u09_r2_network.node[9].core_layer 	interests[9] 	9977
scalar tree_4_3_u09_r2_network.node[9].core_layer 	data[9] 	9977
scalar tree_4_3_u09_r2_network.node[9].content_store 	p_hit[9] 	0
scalar tree_4_3_u09_r2_network.node[9].content_store 	hits[9] 	0
scalar tree_4_3_u09_r2_network.node[9].content_store 	misses[9] 	9977
scalar tree_4_3_u09_r2_network.node[9].content_store 	decision_yes[9] 	0
scalar tree_4_3_u09_r2_network.node[9].content_store 	decision_no[9] 	9977
scalar tree_4_3_u09_r2_network.node[9].content_store 	decision_ratio[9] 	0
scalar tree_4_3_u09_r2_network.node[10].core_layer 	interests[10] 	50395
scalar tree_4_3_u09_r2_network.node[10].core_layer 	data[10] 	50390
scalar tree_4_3_u09_r2_network.node[10].content_store 	p_hit[10] 	0
scalar tree_4_3_u09_r2_network.node[10].content_store 	hits[10] 	0
scalar tree_4_3_u09_r2_network.node[10].content_store 	misses[10] 	50395
scalar tree_4_3_u09_r2_network.node[10].content_store 	decision_yes[10] 	0
scalar tree_4_3_u09_r2_network.node[10].content_store 	decision_no[10] 	50390
scalar tree_4_3_u09_r2_network.node[10].content_store 	decision_ratio[10] 	0
scalar tree_4_3_u09_r2_network.node[11].core_layer 	interests[11] 	20253
scalar tree_4_3_u09_r2_network.node[11].core_layer 	data[11] 	20253
scalar tree_4_3_u09_r2_network.node[11].content_store 	p_hit[11] 	0
scalar tree_4_3_u09_r2_network.node[11].content_store 	hits[11] 	0
scalar tree_4_3_u09_r2_network.node[11].content_store 	misses[11] 	20253
scalar tree_4_3_u09_r2_network.node[11].content_store 	decision_yes[11] 	0
scalar tree_4_3_u09_r2_network.node[11].content_store 	decision_no[11] 	20253
scalar tree_4_3_u09_r2_network.node[11].content_store 	decision_ratio[11] 	0
scalar tree_4_3_u09_r2_network.node[12].core_layer 	interests[12] 	20292
scalar tree_4_3_u09_r2_network.node[12].core_layer 	data[12] 	20292
scalar tree_4_3_u09_r2_network.node[12].content_store 	p_hit[12] 	0
scalar tree_4_3_u09_r2_network.node[12].content_store 	hits[12] 	0
scalar tree_4_3_u09_r2_network.node[12].content_store 	misses[12] 	20292
scalar tree_4_3_u09_r2_network.node[12].content_store 	decision_yes[12] 	0
scalar tree_4_3_u09_r2_network.node[12].content_store 	decision_no[12] 	20292
scalar tree_4_3_u09_r2_network.node[12].content_store 	decision_ratio[12] 	0
scalar tree_4_3_u09_r2_network.node[13].core_layer 	interests[13] 	11774
scalar tree_4_3_u09_r2_network.node[13].core_layer 	data[13] 	9938
scalar tree_4_3_u09_r2_network.node[13].content_store 	p_hit[13] 	0.15585187701716
scalar tree_4_3_u09_r2_network.node[13].content_store 	hits[13] 	1835
scalar tree_4_3_u09_r2_network.node[13].content_store 	misses[13] 	9939
scalar tree_4_3_u09_r2_network.node[13].content_store 	decision_yes[13] 	9938
scalar tree_4_3_u09_r2_network.node[13].content_store 	decision_no[13] 	0
scalar tree_4_3_u09_r2_network.node[13].content_store 	decision_ratio[13] 	1
scalar tree_4_3_u09_r2_network.node[14].core_layer 	interests[14] 	11858
scalar tree_4_3_u09_r2_network.node[14].core_layer 	data[14] 	9985
scalar tree_4_3_u09_r2_network.node[14].content_store 	p_hit[14] 	0.15778377466689
scalar tree_4_3_u09_r2_network.node[14].content_store 	hits[14] 	1871
scalar tree_4_3_u09_r2_network.node[14].content_store 	misses[14] 	9987
scalar tree_4_3_u09_r2_network.node[14].content_store 	decision_yes[14] 	9985
scalar tree_4_3_u09_r2_network.node[14].content_store 	decision_no[14] 	0
scalar tree_4_3_u09_r2_network.node[14].content_store 	decision_ratio[14] 	1
scalar tree_4_3_u09_r2_network.node[15].core_layer 	interests[15] 	12039
scalar tree_4_3_u09_r2_network.node[15].core_layer 	data[15] 	10189
scalar tree_4_3_u09_r2_network.node[15].content_store 	p_hit[15] 	0.15358418473295
scalar tree_4_3_u09_r2_network.node[15].content_store 	hits[15] 	1849
scalar tree_4_3_u09_r2_network.node[15].content_store 	misses[15] 	10190
scalar tree_4_3_u09_r2_network.node[15].content_store 	decision_yes[15] 	10189
scalar tree_4_3_u09_r2_network.node[15].content_store 	decision_no[15] 	0
scalar tree_4_3_u09_r2_network.node[15].content_store 	decision_ratio[15] 	1
scalar tree_4_3_u09_r2_network.node[16].core_layer 	interests[16] 	11913
scalar tree_4_3_u09_r2_network.node[16].core_layer 	data[16] 	10077
scalar tree_4_3_u09_r2_network.node[16].content_store 	p_hit[16] 	0.15403340888105
scalar tree_4_3_u09_r2_network.node[16].content_store 	hits[16] 	1835
scalar tree_4_3_u09_r2_network.node[16].content_store 	misses[16] 	10078
scalar tree_4_3_u09_r2_network.node[16].content_store 	decision_yes[16] 	10077
scalar tree_4_3_u09_r2_network.node[16].content_store 	decision_no[16] 	0
scalar tree_4_3_u09_r2_network.node[16].content_store 	decision_ratio[16] 	1
scalar tree_4_3_u09_r2_network.node[17].core_layer 	interests[17] 	11838
scalar tree_4_3_u09_r2_network.node[17].core_layer 	data[17] 	10016
scalar tree_4_3_u09_r2_network.node[17].content_store 	p_hit[17] 	0.15391113363744
scalar tree_4_3_u09_r2_network.node[17].content_store 	hits[17] 	1822
scalar tree_4_3_u09_r2_network.node[17].content_store 	misses[17] 	10016
scalar tree_4_3_u09_r2_network.node[17].content_store 	decision_yes[17] 	10016
scalar tree_4_3_u09_r2_network.node[17].content_store 	decision_no[17] 	0
scalar tree_4_3_u09_r2_network.node[17].content_store 	decision_ratio[17] 	1
scalar tree_4_3_u09_r2_network.node[18].core_layer 	interests[18] 	12098
scalar tree_4_3_u09_r2_network.node[18].core_layer 	data[18] 	10238
scalar tree_4_3_u09_r2_network.node[18].content_store 	p_hit[18] 	0.15374442056538
scalar tree_4_3_u09_r2_network.node[18].content_store 	hits[18] 	1860
scalar tree_4_3_u09_r2_network.node[18].content_store 	misses[18] 	10238
scalar tree_4_3_u09_r2_network.node[18].content_store 	decision_yes[18] 	10238
scalar tree_4_3_u09_r2_network.node[18].content_store 	decision_no[18] 	0
scalar tree_4_3_u09_r2_network.node[18].content_store 	decision_ratio[18] 	1
scalar tree_4_3_u09_r2_network.node[19].core_layer 	interests[19] 	12049
scalar tree_4_3_u09_r2_network.node[19].core_layer 	data[19] 	10159
scalar tree_4_3_u09_r2_network.node[19].content_store 	p_hit[19] 	0.15661050709602
scalar tree_4_3_u09_r2_network.node[19].content_store 	hits[19] 	1887
scalar tree_4_3_u09_r2_network.node[19].content_store 	misses[19] 	10162
scalar tree_4_3_u09_r2_network.node[19].content_store 	decision_yes[19] 	10159
scalar tree_4_3_u09_r2_network.node[19].content_store 	decision_no[19] 	0
scalar tree_4_3_u09_r2_network.node[19].content_store 	decision_ratio[19] 	1
scalar tree_4_3_u09_r2_network.node[20].core_layer 	interests[20] 	11895
scalar tree_4_3_u09_r2_network.node[20].core_layer 	data[20] 	10001
scalar tree_4_3_u09_r2_network.node[20].content_store 	p_hit[20] 	0.15905842791089
scalar tree_4_3_u09_r2_network.node[20].content_store 	hits[20] 	1892
scalar tree_4_3_u09_r2_network.node[20].content_store 	misses[20] 	10003
scalar tree_4_3_u09_r2_network.node[20].content_store 	decision_yes[20] 	10001
scalar tree_4_3_u09_r2_network.node[20].content_store 	decision_no[20] 	0
scalar tree_4_3_u09_r2_network.node[20].content_store 	decision_ratio[20] 	1
scalar tree_4_3_u09_r2_network.node[21].core_layer 	interests[21] 	12041
scalar tree_4_3_u09_r2_network.node[21].core_layer 	data[21] 	10243
scalar tree_4_3_u09_r2_network.node[21].content_store 	p_hit[21] 	0.14899094759571
scalar tree_4_3_u09_r2_network.node[21].content_store 	hits[21] 	1794
scalar tree_4_3_u09_r2_network.node[21].content_store 	misses[21] 	10247
scalar tree_4_3_u09_r2_network.node[21].content_store 	decision_yes[21] 	10243
scalar tree_4_3_u09_r2_network.node[21].content_store 	decision_no[21] 	0
scalar tree_4_3_u09_r2_network.node[21].content_store 	decision_ratio[21] 	1
scalar tree_4_3_u09_r2_network.node[22].core_layer 	interests[22] 	12005
scalar tree_4_3_u09_r2_network.node[22].core_layer 	data[22] 	10165
scalar tree_4_3_u09_r2_network.node[22].content_store 	p_hit[22] 	0.15318617242815
scalar tree_4_3_u09_r2_network.node[22].content_store 	hits[22] 	1839
scalar tree_4_3_u09_r2_network.node[22].content_store 	misses[22] 	10166
scalar tree_4_3_u09_r2_network.node[22].content_store 	decision_yes[22] 	10165
scalar tree_4_3_u09_r2_network.node[22].content_store 	decision_no[22] 	0
scalar tree_4_3_u09_r2_network.node[22].content_store 	decision_ratio[22] 	1
scalar tree_4_3_u09_r2_network.node[23].core_layer 	interests[23] 	12050
scalar tree_4_3_u09_r2_network.node[23].core_layer 	data[23] 	10198
scalar tree_4_3_u09_r2_network.node[23].content_store 	p_hit[23] 	0.15369294605809
scalar tree_4_3_u09_r2_network.node[23].content_store 	hits[23] 	1852
scalar tree_4_3_u09_r2_network.node[23].content_store 	misses[23] 	10198
scalar tree_4_3_u09_r2_network.node[23].content_store 	decision_yes[23] 	10198
scalar tree_4_3_u09_r2_network.node[23].content_store 	decision_no[23] 	0
scalar tree_4_3_u09_r2_network.node[23].content_store 	decision_ratio[23] 	1
scalar tree_4_3_u09_r2_network.node[24].core_layer 	interests[24] 	12129
scalar tree_4_3_u09_r2_network.node[24].core_layer 	data[24] 	10194
scalar tree_4_3_u09_r2_network.node[24].content_store 	p_hit[24] 	0.15953499876329
scalar tree_4_3_u09_r2_network.node[24].content_store 	hits[24] 	1935
scalar tree_4_3_u09_r2_network.node[24].content_store 	misses[24] 	10194
scalar tree_4_3_u09_r2_network.node[24].content_store 	decision_yes[24] 	10194
scalar tree_4_3_u09_r2_network.node[24].content_store 	decision_no[24] 	0
scalar tree_4_3_u09_r2_network.node[24].content_store 	decision_ratio[24] 	1
scalar tree_4_3_u09_r2_network.node[25].core_layer 	interests[25] 	11869
scalar tree_4_3_u09_r2_network.node[25].core_layer 	data[25] 	9993
scalar tree_4_3_u09_r2_network.node[25].content_store 	p_hit[25] 	0.15805880866122
scalar tree_4_3_u09_r2_network.node[25].content_store 	hits[25] 	1876
scalar tree_4_3_u09_r2_network.node[25].content_store 	misses[25] 	9993
scalar tree_4_3_u09_r2_network.node[25].content_store 	decision_yes[25] 	9993
scalar tree_4_3_u09_r2_network.node[25].content_store 	decision_no[25] 	0
scalar tree_4_3_u09_r2_network.node[25].content_store 	decision_ratio[25] 	1
scalar tree_4_3_u09_r2_network.node[26].core_layer 	interests[26] 	11974
scalar tree_4_3_u09_r2_network.node[26].core_layer 	data[26] 	10100
scalar tree_4_3_u09_r2_network.node[26].content_store 	p_hit[26] 	0.15650576248539
scalar tree_4_3_u09_r2_network.node[26].content_store 	hits[26] 	1874
scalar tree_4_3_u09_r2_network.node[26].content_store 	misses[26] 	10100
scalar tree_4_3_u09_r2_network.node[26].content_store 	decision_yes[26] 	10100
scalar tree_4_3_u09_r2_network.node[26].content_store 	decision_no[26] 	0
scalar tree_4_3_u09_r2_network.node[26].content_store 	decision_ratio[26] 	1
scalar tree_4_3_u09_r2_network.node[27].core_layer 	interests[27] 	12164
scalar tree_4_3_u09_r2_network.node[27].core_layer 	data[27] 	10209
scalar tree_4_3_u09_r2_network.node[27].content_store 	p_hit[27] 	0.16063794804341
scalar tree_4_3_u09_r2_network.node[27].content_store 	hits[27] 	1954
scalar tree_4_3_u09_r2_network.node[27].content_store 	misses[27] 	10210
scalar tree_4_3_u09_r2_network.node[27].content_store 	decision_yes[27] 	10209
scalar tree_4_3_u09_r2_network.node[27].content_store 	decision_no[27] 	0
scalar tree_4_3_u09_r2_network.node[27].content_store 	decision_ratio[27] 	1
scalar tree_4_3_u09_r2_network.node[28].core_layer 	interests[28] 	11837
scalar tree_4_3_u09_r2_network.node[28].core_layer 	data[28] 	9952
scalar tree_4_3_u09_r2_network.node[28].content_store 	p_hit[28] 	0.15924643068345
scalar tree_4_3_u09_r2_network.node[28].content_store 	hits[28] 	1885
scalar tree_4_3_u09_r2_network.node[28].content_store 	misses[28] 	9952
scalar tree_4_3_u09_r2_network.node[28].content_store 	decision_yes[28] 	9952
scalar tree_4_3_u09_r2_network.node[28].content_store 	decision_no[28] 	0
scalar tree_4_3_u09_r2_network.node[28].content_store 	decision_ratio[28] 	1
scalar tree_4_3_u09_r2_network.node[29].core_layer 	interests[29] 	12013
scalar tree_4_3_u09_r2_network.node[29].core_layer 	data[29] 	10158
scalar tree_4_3_u09_r2_network.node[29].content_store 	p_hit[29] 	0.1543328061267
scalar tree_4_3_u09_r2_network.node[29].content_store 	hits[29] 	1854
scalar tree_4_3_u09_r2_network.node[29].content_store 	misses[29] 	10159
scalar tree_4_3_u09_r2_network.node[29].content_store 	decision_yes[29] 	10158
scalar tree_4_3_u09_r2_network.node[29].content_store 	decision_no[29] 	0
scalar tree_4_3_u09_r2_network.node[29].content_store 	decision_ratio[29] 	1
scalar tree_4_3_u09_r2_network.node[30].core_layer 	interests[30] 	11914
scalar tree_4_3_u09_r2_network.node[30].core_layer 	data[30] 	9977
scalar tree_4_3_u09_r2_network.node[30].content_store 	p_hit[30] 	0.16249790162834
scalar tree_4_3_u09_r2_network.node[30].content_store 	hits[30] 	1936
scalar tree_4_3_u09_r2_network.node[30].content_store 	misses[30] 	9978
scalar tree_4_3_u09_r2_network.node[30].content_store 	decision_yes[30] 	9977
scalar tree_4_3_u09_r2_network.node[30].content_store 	decision_no[30] 	0
scalar tree_4_3_u09_r2_network.node[30].content_store 	decision_ratio[30] 	1
scalar tree_4_3_u09_r2_network.node[31].core_layer 	interests[31] 	11744
scalar tree_4_3_u09_r2_network.node[31].core_layer 	data[31] 	9919
scalar tree_4_3_u09_r2_network.node[31].content_store 	p_hit[31] 	0.15522820163488
scalar tree_4_3_u09_r2_network.node[31].content_store 	hits[31] 	1823
scalar tree_4_3_u09_r2_network.node[31].content_store 	misses[31] 	9921
scalar tree_4_3_u09_r2_network.node[31].content_store 	decision_yes[31] 	9919
scalar tree_4_3_u09_r2_network.node[31].content_store 	decision_no[31] 	0
scalar tree_4_3_u09_r2_network.node[31].content_store 	decision_ratio[31] 	1
scalar tree_4_3_u09_r2_network.node[32].core_layer 	interests[32] 	11958
scalar tree_4_3_u09_r2_network.node[32].core_layer 	data[32] 	10146
scalar tree_4_3_u09_r2_network.node[32].content_store 	p_hit[32] 	0.15153035624686
scalar tree_4_3_u09_r2_network.node[32].content_store 	hits[32] 	1812
scalar tree_4_3_u09_r2_network.node[32].content_store 	misses[32] 	10146
scalar tree_4_3_u09_r2_network.node[32].content_store 	decision_yes[32] 	10146
scalar tree_4_3_u09_r2_network.node[32].content_store 	decision_no[32] 	0
scalar tree_4_3_u09_r2_network.node[32].content_store 	decision_ratio[32] 	1
scalar tree_4_3_u09_r2_network.node[33].core_layer 	interests[33] 	12000
scalar tree_4_3_u09_r2_network.node[33].core_layer 	data[33] 	10203
scalar tree_4_3_u09_r2_network.node[33].content_store 	p_hit[33] 	0.14966666666667
scalar tree_4_3_u09_r2_network.node[33].content_store 	hits[33] 	1796
scalar tree_4_3_u09_r2_network.node[33].content_store 	misses[33] 	10204
scalar tree_4_3_u09_r2_network.node[33].content_store 	decision_yes[33] 	10203
scalar tree_4_3_u09_r2_network.node[33].content_store 	decision_no[33] 	0
scalar tree_4_3_u09_r2_network.node[33].content_store 	decision_ratio[33] 	1
scalar tree_4_3_u09_r2_network.node[34].core_layer 	interests[34] 	11952
scalar tree_4_3_u09_r2_network.node[34].core_layer 	data[34] 	10040
scalar tree_4_3_u09_r2_network.node[34].content_store 	p_hit[34] 	0.15997322623829
scalar tree_4_3_u09_r2_network.node[34].content_store 	hits[34] 	1912
scalar tree_4_3_u09_r2_network.node[34].content_store 	misses[34] 	10040
scalar tree_4_3_u09_r2_network.node[34].content_store 	decision_yes[34] 	10040
scalar tree_4_3_u09_r2_network.node[34].content_store 	decision_no[34] 	0
scalar tree_4_3_u09_r2_network.node[34].content_store 	decision_ratio[34] 	1
scalar tree_4_3_u09_r2_network.node[35].core_layer 	interests[35] 	12005
scalar tree_4_3_u09_r2_network.node[35].core_layer 	data[35] 	10136
scalar tree_4_3_u09_r2_network.node[35].content_store 	p_hit[35] 	0.15560183256976
scalar tree_4_3_u09_r2_network.node[35].content_store 	hits[35] 	1868
scalar tree_4_3_u09_r2_network.node[35].content_store 	misses[35] 	10137
scalar tree_4_3_u09_r2_network.node[35].content_store 	decision_yes[35] 	10136
scalar tree_4_3_u09_r2_network.node[35].content_store 	decision_no[35] 	0
scalar tree_4_3_u09_r2_network.node[35].content_store 	decision_ratio[35] 	1
scalar tree_4_3_u09_r2_network.node[36].core_layer 	interests[36] 	12022
scalar tree_4_3_u09_r2_network.node[36].core_layer 	data[36] 	10117
scalar tree_4_3_u09_r2_network.node[36].content_store 	p_hit[36] 	0.15837631009815
scalar tree_4_3_u09_r2_network.node[36].content_store 	hits[36] 	1904
scalar tree_4_3_u09_r2_network.node[36].content_store 	misses[36] 	10118
scalar tree_4_3_u09_r2_network.node[36].content_store 	decision_yes[36] 	10117
scalar tree_4_3_u09_r2_network.node[36].content_store 	decision_no[36] 	0
scalar tree_4_3_u09_r2_network.node[36].content_store 	decision_ratio[36] 	1
scalar tree_4_3_u09_r2_network.node[37].core_layer 	interests[37] 	12040
scalar tree_4_3_u09_r2_network.node[37].core_layer 	data[37] 	10087
scalar tree_4_3_u09_r2_network.node[37].content_store 	p_hit[37] 	0.16212624584718
scalar tree_4_3_u09_r2_network.node[37].content_store 	hits[37] 	1952
scalar tree_4_3_u09_r2_network.node[37].content_store 	misses[37] 	10088
scalar tree_4_3_u09_r2_network.node[37].content_store 	decision_yes[37] 	10087
scalar tree_4_3_u09_r2_network.node[37].content_store 	decision_no[37] 	0
scalar tree_4_3_u09_r2_network.node[37].content_store 	decision_ratio[37] 	1
scalar tree_4_3_u09_r2_network.node[38].core_layer 	interests[38] 	11929
scalar tree_4_3_u09_r2_network.node[38].core_layer 	data[38] 	10077
scalar tree_4_3_u09_r2_network.node[38].content_store 	p_hit[38] 	0.15525190711711
scalar tree_4_3_u09_r2_network.node[38].content_store 	hits[38] 	1852
scalar tree_4_3_u09_r2_network.node[38].content_store 	misses[38] 	10077
scalar tree_4_3_u09_r2_network.node[38].content_store 	decision_yes[38] 	10077
scalar tree_4_3_u09_r2_network.node[38].content_store 	decision_no[38] 	0
scalar tree_4_3_u09_r2_network.node[38].content_store 	decision_ratio[38] 	1
scalar tree_4_3_u09_r2_network.node[39].core_layer 	interests[39] 	12116
scalar tree_4_3_u09_r2_network.node[39].core_layer 	data[39] 	10215
scalar tree_4_3_u09_r2_network.node[39].content_store 	p_hit[39] 	0.15681743149554
scalar tree_4_3_u09_r2_network.node[39].content_store 	hits[39] 	1900
scalar tree_4_3_u09_r2_network.node[39].content_store 	misses[39] 	10216
scalar tree_4_3_u09_r2_network.node[39].content_store 	decision_yes[39] 	10215
scalar tree_4_3_u09_r2_network.node[39].content_store 	decision_no[39] 	0
scalar tree_4_3_u09_r2_network.node[39].content_store 	decision_ratio[39] 	1
scalar tree_4_3_u09_r2_network.client[13] 	hdistance[13] 	3.3765395396246
scalar tree_4_3_u09_r2_network.client[13] 	downloads[13] 	11773
scalar tree_4_3_u09_r2_network.client[13] 	avg_time[13] 	0.005064463201
scalar tree_4_3_u09_r2_network.client[14] 	hdistance[14] 	3.3687584345479
scalar tree_4_3_u09_r2_network.client[14] 	downloads[14] 	11856
scalar tree_4_3_u09_r2_network.client[14] 	avg_time[14] 	0.005052608799
scalar tree_4_3_u09_r2_network.client[15] 	hdistance[15] 	3.3856122279448
scalar tree_4_3_u09_r2_network.client[15] 	downloads[15] 	12038
scalar tree_4_3_u09_r2_network.client[15] 	avg_time[15] 	0.005077282397
scalar tree_4_3_u09_r2_network.client[16] 	hdistance[16] 	3.3838146406985
scalar tree_4_3_u09_r2_network.client[16] 	downloads[16] 	11912
scalar tree_4_3_u09_r2_network.client[16] 	avg_time[16] 	0.005075171406
scalar tree_4_3_u09_r2_network.client[17] 	hdistance[17] 	3.3843554654502
scalar tree_4_3_u09_r2_network.client[17] 	downloads[17] 	11838
scalar tree_4_3_u09_r2_network.client[17] 	avg_time[17] 	0.005076530244
scalar tree_4_3_u09_r2_network.client[18] 	hdistance[18] 	3.3850223177385
scalar tree_4_3_u09_r2_network.client[18] 	downloads[18] 	12098
scalar tree_4_3_u09_r2_network.client[18] 	avg_time[18] 	0.005077010487
scalar tree_4_3_u09_r2_network.client[19] 	hdistance[19] 	3.3734019591566
scalar tree_4_3_u09_r2_network.client[19] 	downloads[19] 	12046
scalar tree_4_3_u09_r2_network.client[19] 	avg_time[19] 	0.005059457775
scalar tree_4_3_u09_r2_network.client[20] 	hdistance[20] 	3.3636592953838
scalar tree_4_3_u09_r2_network.client[20] 	downloads[20] 	11893
scalar tree_4_3_u09_r2_network.client[20] 	avg_time[20] 	0.005044896631
scalar tree_4_3_u09_r2_network.client[21] 	hdistance[21] 	3.4038381656559
scalar tree_4_3_u09_r2_network.client[21] 	downloads[21] 	12037
scalar tree_4_3_u09_r2_network.client[21] 	avg_time[21] 	0.00510382453
scalar tree_4_3_u09_r2_network.client[22] 	hdistance[22] 	3.3872042652449
scalar tree_4_3_u09_r2_network.client[22] 	downloads[22] 	12004
scalar tree_4_3_u09_r2_network.client[22] 	avg_time[22] 	0.005080661583
scalar tree_4_3_u09_r2_network.client[23] 	hdistance[23] 	3.3852282157676
scalar tree_4_3_u09_r2_network.client[23] 	downloads[23] 	12050
scalar tree_4_3_u09_r2_network.client[23] 	avg_time[23] 	0.005077496248
scalar tree_4_3_u09_r2_network.client[24] 	hdistance[24] 	3.3618600049468
scalar tree_4_3_u09_r2_network.client[24] 	downloads[24] 	12129
scalar tree_4_3_u09_r2_network.client[24] 	avg_time[24] 	0.005042215756
scalar tree_4_3_u09_r2_network.client[25] 	hdistance[25] 	3.3677647653551
scalar tree_4_3_u09_r2_network.client[25] 	downloads[25] 	11869
scalar tree_4_3_u09_r2_network.client[25] 	avg_time[25] 	0.005051402834
scalar tree_4_3_u09_r2_network.client[26] 	hdistance[26] 	3.3739769500585
scalar tree_4_3_u09_r2_network.client[26] 	downloads[26] 	11974
scalar tree_4_3_u09_r2_network.client[26] 	avg_time[26] 	0.005060962412
scalar tree_4_3_u09_r2_network.client[27] 	hdistance[27] 	3.3573953794294
scalar tree_4_3_u09_r2_network.client[27] 	downloads[27] 	12163
scalar tree_4_3_u09_r2_network.client[27] 	avg_time[27] 	0.005035444435
scalar tree_4_3_u09_r2_network.client[28] 	hdistance[28] 	3.3630142772662
scalar tree_4_3_u09_r2_network.client[28] 	downloads[28] 	11837
scalar tree_4_3_u09_r2_network.client[28] 	avg_time[28] 	0.005043931716
scalar tree_4_3_u09_r2_network.client[29] 	hdistance[29] 	3.3826173826174
scalar tree_4_3_u09_r2_network.client[29] 	downloads[29] 	12012
scalar tree_4_3_u09_r2_network.client[29] 	avg_time[29] 	0.005073435418
scalar tree_4_3_u09_r2_network.client[30] 	hdistance[30] 	3.3499538319483
scalar tree_4_3_u09_r2_network.client[30] 	downloads[30] 	11913
scalar tree_4_3_u09_r2_network.client[30] 	avg_time[30] 	0.005024651583
scalar tree_4_3_u09_r2_network.client[31] 	hdistance[31] 	3.3789814341679
scalar tree_4_3_u09_r2_network.client[31] 	downloads[31] 	11742
scalar tree_4_3_u09_r2_network.client[31] 	avg_time[31] 	0.00506808526
scalar tree_4_3_u09_r2_network.client[32] 	hdistance[32] 	3.3938785750125
scalar tree_4_3_u09_r2_network.client[32] 	downloads[32] 	11958
scalar tree_4_3_u09_r2_network.client[32] 	avg_time[32] 	0.00509049331
scalar tree_4_3_u09_r2_network.client[33] 	hdistance[33] 	3.4012834402867
scalar tree_4_3_u09_r2_network.client[33] 	downloads[33] 	11999
scalar tree_4_3_u09_r2_network.client[33] 	avg_time[33] 	0.005101405882
scalar tree_4_3_u09_r2_network.client[34] 	hdistance[34] 	3.3601070950469
scalar tree_4_3_u09_r2_network.client[34] 	downloads[34] 	11952
scalar tree_4_3_u09_r2_network.client[34] 	avg_time[34] 	0.00503976293
scalar tree_4_3_u09_r2_network.client[35] 	hdistance[35] 	3.3775408197268
scalar tree_4_3_u09_r2_network.client[35] 	downloads[35] 	12004
scalar tree_4_3_u09_r2_network.client[35] 	avg_time[35] 	0.005066139519
scalar tree_4_3_u09_r2_network.client[36] 	hdistance[36] 	3.3664420597288
scalar tree_4_3_u09_r2_network.client[36] 	downloads[36] 	12021
scalar tree_4_3_u09_r2_network.client[36] 	avg_time[36] 	0.005049291329
scalar tree_4_3_u09_r2_network.client[37] 	hdistance[37] 	3.3514411495971
scalar tree_4_3_u09_r2_network.client[37] 	downloads[37] 	12039
scalar tree_4_3_u09_r2_network.client[37] 	avg_time[37] 	0.005026387357
scalar tree_4_3_u09_r2_network.client[38] 	hdistance[38] 	3.3789923715316
scalar tree_4_3_u09_r2_network.client[38] 	downloads[38] 	11929
scalar tree_4_3_u09_r2_network.client[38] 	avg_time[38] 	0.005068485565
scalar tree_4_3_u09_r2_network.client[39] 	hdistance[39] 	3.3726784977301
scalar tree_4_3_u09_r2_network.client[39] 	downloads[39] 	12115
scalar tree_4_3_u09_r2_network.client[39] 	avg_time[39] 	0.005058690915
