version 2
run General-198-20160818-23:40:46-32642
attr a 0.9
attr cd lce
attr configname General
attr cr lru
attr datetime 20160818-23:40:46
attr experiment General
attr fsize 1
attr inifile hw5115/scenario_A/Edge.ini
attr iterationvars "$name=tree_4_3, $un=09, $rep=19, $scenario=Edge, $cd=lce, $cr=lru, $fsize=1, $a=0.9, $sl=spr, $ttl=1000, $variance=0.05"
attr iterationvars2 "$name=tree_4_3, $un=09, $rep=19, $scenario=Edge, $cd=lce, $cr=lru, $fsize=1, $a=0.9, $sl=spr, $ttl=1000, $variance=0.05, $repetition=0"
attr measurement "$name=tree_4_3, $un=09, $rep=19, $scenario=Edge, $cd=lce, $cr=lru, $fsize=1, $a=0.9, $sl=spr, $ttl=1000, $variance=0.05"
attr name tree_4_3
attr network networks.${name}_u${un}_r${rep}_network
attr processid 32642
attr rep 19
attr repetition 0
attr replication #0
attr resultdir results
attr runnumber 198
attr scenario Edge
attr seedset 19
attr sl spr
attr ttl 1000
attr un 09
attr variance 0.05

scalar . 	a 	0.9
scalar . 	fsize 	1
scalar . 	rep 	19
scalar . 	ttl 	1000
scalar . 	un 	09
scalar . 	variance 	0.05
scalar tree_4_3_u09_r19_network.content_distribution 	repo-0 	0
scalar tree_4_3_u09_r19_network.content_distribution 	client-0 	13
scalar tree_4_3_u09_r19_network.content_distribution 	client-1 	14
scalar tree_4_3_u09_r19_network.content_distribution 	client-2 	15
scalar tree_4_3_u09_r19_network.content_distribution 	client-3 	16
scalar tree_4_3_u09_r19_network.content_distribution 	client-4 	17
scalar tree_4_3_u09_r19_network.content_distribution 	client-5 	18
scalar tree_4_3_u09_r19_network.content_distribution 	client-6 	19
scalar tree_4_3_u09_r19_network.content_distribution 	client-7 	20
scalar tree_4_3_u09_r19_network.content_distribution 	client-8 	21
scalar tree_4_3_u09_r19_network.content_distribution 	client-9 	22
scalar tree_4_3_u09_r19_network.content_distribution 	client-10 	23
scalar tree_4_3_u09_r19_network.content_distribution 	client-11 	24
scalar tree_4_3_u09_r19_network.content_distribution 	client-12 	25
scalar tree_4_3_u09_r19_network.content_distribution 	client-13 	26
scalar tree_4_3_u09_r19_network.content_distribution 	client-14 	27
scalar tree_4_3_u09_r19_network.content_distribution 	client-15 	28
scalar tree_4_3_u09_r19_network.content_distribution 	client-16 	29
scalar tree_4_3_u09_r19_network.content_distribution 	client-17 	30
scalar tree_4_3_u09_r19_network.content_distribution 	client-18 	31
scalar tree_4_3_u09_r19_network.content_distribution 	client-19 	32
scalar tree_4_3_u09_r19_network.content_distribution 	client-20 	33
scalar tree_4_3_u09_r19_network.content_distribution 	client-21 	34
scalar tree_4_3_u09_r19_network.content_distribution 	client-22 	35
scalar tree_4_3_u09_r19_network.content_distribution 	client-23 	36
scalar tree_4_3_u09_r19_network.content_distribution 	client-24 	37
scalar tree_4_3_u09_r19_network.content_distribution 	client-25 	38
scalar tree_4_3_u09_r19_network.content_distribution 	client-26 	39
scalar tree_4_3_u09_r19_network.content_distribution 	repo-0_card 	100000
scalar tree_4_3_u09_r19_network.content_distribution 	repo-0_price 	0
scalar tree_4_3_u09_r19_network.statistics 	stabilization_time 	418.7
scalar tree_4_3_u09_r19_network.statistics 	p_hit 	0.10426908848796
scalar tree_4_3_u09_r19_network.statistics 	interests 	28566.925
scalar tree_4_3_u09_r19_network.statistics 	data 	20488.275
scalar tree_4_3_u09_r19_network.statistics 	hdistance 	3.3820675192473
scalar tree_4_3_u09_r19_network.statistics 	avg_time 	0.005072671111
scalar tree_4_3_u09_r19_network.statistics 	downloads 	323124
scalar tree_4_3_u09_r19_network.statistics 	total_cost 	0
scalar tree_4_3_u09_r19_network.statistics 	total_replicas 	100000
scalar tree_4_3_u09_r19_network.statistics 	inner_hit 	0.15470840915562
scalar tree_4_3_u09_r19_network.node[0].core_layer 	interests[0] 	273134
scalar tree_4_3_u09_r19_network.node[0].core_layer 	repo_load[0] 	273134
scalar tree_4_3_u09_r19_network.node[0].core_layer 	data[0] 	0
scalar tree_4_3_u09_r19_network.node[0].core_layer 	repo_int[0] 	273134
scalar tree_4_3_u09_r19_network.node[0].content_store 	p_hit[0] 	0
scalar tree_4_3_u09_r19_network.node[0].content_store 	hits[0] 	0
scalar tree_4_3_u09_r19_network.node[0].content_store 	misses[0] 	273134
scalar tree_4_3_u09_r19_network.node[0].content_store 	decision_yes[0] 	0
scalar tree_4_3_u09_r19_network.node[0].content_store 	decision_no[0] 	273134
scalar tree_4_3_u09_r19_network.node[0].content_store 	decision_ratio[0] 	0
scalar tree_4_3_u09_r19_network.node[1].core_layer 	interests[1] 	192368
scalar tree_4_3_u09_r19_network.node[1].core_layer 	data[1] 	192320
scalar tree_4_3_u09_r19_network.node[1].content_store 	p_hit[1] 	0
scalar tree_4_3_u09_r19_network.node[1].content_store 	hits[1] 	0
scalar tree_4_3_u09_r19_network.node[1].content_store 	misses[1] 	192368
scalar tree_4_3_u09_r19_network.node[1].content_store 	decision_yes[1] 	0
scalar tree_4_3_u09_r19_network.node[1].content_store 	decision_no[1] 	192320
scalar tree_4_3_u09_r19_network.node[1].content_store 	decision_ratio[1] 	0
scalar tree_4_3_u09_r19_network.node[2].core_layer 	interests[2] 	70926
scalar tree_4_3_u09_r19_network.node[2].core_layer 	data[2] 	70918
scalar tree_4_3_u09_r19_network.node[2].content_store 	p_hit[2] 	0
scalar tree_4_3_u09_r19_network.node[2].content_store 	hits[2] 	0
scalar tree_4_3_u09_r19_network.node[2].content_store 	misses[2] 	70926
scalar tree_4_3_u09_r19_network.node[2].content_store 	decision_yes[2] 	0
scalar tree_4_3_u09_r19_network.node[2].content_store 	decision_no[2] 	70918
scalar tree_4_3_u09_r19_network.node[2].content_store 	decision_ratio[2] 	0
scalar tree_4_3_u09_r19_network.node[3].core_layer 	interests[3] 	9895
scalar tree_4_3_u09_r19_network.node[3].core_layer 	data[3] 	9895
scalar tree_4_3_u09_r19_network.node[3].content_store 	p_hit[3] 	0
scalar tree_4_3_u09_r19_network.node[3].content_store 	hits[3] 	0
scalar tree_4_3_u09_r19_network.node[3].content_store 	misses[3] 	9895
scalar tree_4_3_u09_r19_network.node[3].content_store 	decision_yes[3] 	0
scalar tree_4_3_u09_r19_network.node[3].content_store 	decision_no[3] 	9895
scalar tree_4_3_u09_r19_network.node[3].content_store 	decision_ratio[3] 	0
scalar tree_4_3_u09_r19_network.node[4].core_layer 	interests[4] 	50443
scalar tree_4_3_u09_r19_network.node[4].core_layer 	data[4] 	50437
scalar tree_4_3_u09_r19_network.node[4].content_store 	p_hit[4] 	0
scalar tree_4_3_u09_r19_network.node[4].content_store 	hits[4] 	0
scalar tree_4_3_u09_r19_network.node[4].content_store 	misses[4] 	50443
scalar tree_4_3_u09_r19_network.node[4].content_store 	decision_yes[4] 	0
scalar tree_4_3_u09_r19_network.node[4].content_store 	decision_no[4] 	50437
scalar tree_4_3_u09_r19_network.node[4].content_store 	decision_ratio[4] 	0
scalar tree_4_3_u09_r19_network.node[5].core_layer 	interests[5] 	20476
scalar tree_4_3_u09_r19_network.node[5].core_layer 	data[5] 	20475
scalar tree_4_3_u09_r19_network.node[5].content_store 	p_hit[5] 	0
scalar tree_4_3_u09_r19_network.node[5].content_store 	hits[5] 	0
scalar tree_4_3_u09_r19_network.node[5].content_store 	misses[5] 	20476
scalar tree_4_3_u09_r19_network.node[5].content_store 	decision_yes[5] 	0
scalar tree_4_3_u09_r19_network.node[5].content_store 	decision_no[5] 	20475
scalar tree_4_3_u09_r19_network.node[5].content_store 	decision_ratio[5] 	0
scalar tree_4_3_u09_r19_network.node[6].core_layer 	interests[6] 	20286
scalar tree_4_3_u09_r19_network.node[6].core_layer 	data[6] 	20286
scalar tree_4_3_u09_r19_network.node[6].content_store 	p_hit[6] 	0
scalar tree_4_3_u09_r19_network.node[6].content_store 	hits[6] 	0
scalar tree_4_3_u09_r19_network.node[6].content_store 	misses[6] 	20286
scalar tree_4_3_u09_r19_network.node[6].content_store 	decision_yes[6] 	0
scalar tree_4_3_u09_r19_network.node[6].content_store 	decision_no[6] 	20286
scalar tree_4_3_u09_r19_network.node[6].content_store 	decision_ratio[6] 	0
scalar tree_4_3_u09_r19_network.node[7].core_layer 	interests[7] 	50690
scalar tree_4_3_u09_r19_network.node[7].core_layer 	data[7] 	50684
scalar tree_4_3_u09_r19_network.node[7].content_store 	p_hit[7] 	0
scalar tree_4_3_u09_r19_network.node[7].content_store 	hits[7] 	0
scalar tree_4_3_u09_r19_network.node[7].content_store 	misses[7] 	50690
scalar tree_4_3_u09_r19_network.node[7].content_store 	decision_yes[7] 	0
scalar tree_4_3_u09_r19_network.node[7].content_store 	decision_no[7] 	50684
scalar tree_4_3_u09_r19_network.node[7].content_store 	decision_ratio[7] 	0
scalar tree_4_3_u09_r19_network.node[8].core_layer 	interests[8] 	30179
scalar tree_4_3_u09_r19_network.node[8].core_layer 	data[8] 	30178
scalar tree_4_3_u09_r19_network.node[8].content_store 	p_hit[8] 	0
scalar tree_4_3_u09_r19_network.node[8].content_store 	hits[8] 	0
scalar tree_4_3_u09_r19_network.node[8].content_store 	misses[8] 	30179
scalar tree_4_3_u09_r19_network.node[8].content_store 	decision_yes[8] 	0
scalar tree_4_3_u09_r19_network.node[8].content_store 	decision_no[8] 	30178
scalar tree_4_3_u09_r19_network.node[8].content_store 	decision_ratio[8] 	0
scalar tree_4_3_u09_r19_network.node[9].core_layer 	interests[9] 	9998
scalar tree_4_3_u09_r19_network.node[9].core_layer 	data[9] 	9998
scalar tree_4_3_u09_r19_network.node[9].content_store 	p_hit[9] 	0
scalar tree_4_3_u09_r19_network.node[9].content_store 	hits[9] 	0
scalar tree_4_3_u09_r19_network.node[9].content_store 	misses[9] 	9998
scalar tree_4_3_u09_r19_network.node[9].content_store 	decision_yes[9] 	0
scalar tree_4_3_u09_r19_network.node[9].content_store 	decision_no[9] 	9998
scalar tree_4_3_u09_r19_network.node[9].content_store 	decision_ratio[9] 	0
scalar tree_4_3_u09_r19_network.node[10].core_layer 	interests[10] 	50490
scalar tree_4_3_u09_r19_network.node[10].core_layer 	data[10] 	50488
scalar tree_4_3_u09_r19_network.node[10].content_store 	p_hit[10] 	0
scalar tree_4_3_u09_r19_network.node[10].content_store 	hits[10] 	0
scalar tree_4_3_u09_r19_network.node[10].content_store 	misses[10] 	50490
scalar tree_4_3_u09_r19_network.node[10].content_store 	decision_yes[10] 	0
scalar tree_4_3_u09_r19_network.node[10].content_store 	decision_no[10] 	50488
scalar tree_4_3_u09_r19_network.node[10].content_store 	decision_ratio[10] 	0
scalar tree_4_3_u09_r19_network.node[11].core_layer 	interests[11] 	30751
scalar tree_4_3_u09_r19_network.node[11].core_layer 	data[11] 	30749
scalar tree_4_3_u09_r19_network.node[11].content_store 	p_hit[11] 	0
scalar tree_4_3_u09_r19_network.node[11].content_store 	hits[11] 	0
scalar tree_4_3_u09_r19_network.node[11].content_store 	misses[11] 	30751
scalar tree_4_3_u09_r19_network.node[11].content_store 	decision_yes[11] 	0
scalar tree_4_3_u09_r19_network.node[11].content_store 	decision_no[11] 	30749
scalar tree_4_3_u09_r19_network.node[11].content_store 	decision_ratio[11] 	0
scalar tree_4_3_u09_r19_network.node[12].core_layer 	interests[12] 	9895
scalar tree_4_3_u09_r19_network.node[12].core_layer 	data[12] 	9895
scalar tree_4_3_u09_r19_network.node[12].content_store 	p_hit[12] 	0
scalar tree_4_3_u09_r19_network.node[12].content_store 	hits[12] 	0
scalar tree_4_3_u09_r19_network.node[12].content_store 	misses[12] 	9895
scalar tree_4_3_u09_r19_network.node[12].content_store 	decision_yes[12] 	0
scalar tree_4_3_u09_r19_network.node[12].content_store 	decision_no[12] 	9895
scalar tree_4_3_u09_r19_network.node[12].content_store 	decision_ratio[12] 	0
scalar tree_4_3_u09_r19_network.node[13].core_layer 	interests[13] 	11889
scalar tree_4_3_u09_r19_network.node[13].core_layer 	data[13] 	10031
scalar tree_4_3_u09_r19_network.node[13].content_store 	p_hit[13] 	0.15627891328118
scalar tree_4_3_u09_r19_network.node[13].content_store 	hits[13] 	1858
scalar tree_4_3_u09_r19_network.node[13].content_store 	misses[13] 	10031
scalar tree_4_3_u09_r19_network.node[13].content_store 	decision_yes[13] 	10031
scalar tree_4_3_u09_r19_network.node[13].content_store 	decision_no[13] 	0
scalar tree_4_3_u09_r19_network.node[13].content_store 	decision_ratio[13] 	1
scalar tree_4_3_u09_r19_network.node[14].core_layer 	interests[14] 	12086
scalar tree_4_3_u09_r19_network.node[14].core_layer 	data[14] 	10167
scalar tree_4_3_u09_r19_network.node[14].content_store 	p_hit[14] 	0.15853053119312
scalar tree_4_3_u09_r19_network.node[14].content_store 	hits[14] 	1916
scalar tree_4_3_u09_r19_network.node[14].content_store 	misses[14] 	10170
scalar tree_4_3_u09_r19_network.node[14].content_store 	decision_yes[14] 	10167
scalar tree_4_3_u09_r19_network.node[14].content_store 	decision_no[14] 	0
scalar tree_4_3_u09_r19_network.node[14].content_store 	decision_ratio[14] 	1
scalar tree_4_3_u09_r19_network.node[15].core_layer 	interests[15] 	11959
scalar tree_4_3_u09_r19_network.node[15].core_layer 	data[15] 	10058
scalar tree_4_3_u09_r19_network.node[15].content_store 	p_hit[15] 	0.15895977924576
scalar tree_4_3_u09_r19_network.node[15].content_store 	hits[15] 	1901
scalar tree_4_3_u09_r19_network.node[15].content_store 	misses[15] 	10058
scalar tree_4_3_u09_r19_network.node[15].content_store 	decision_yes[15] 	10058
scalar tree_4_3_u09_r19_network.node[15].content_store 	decision_no[15] 	0
scalar tree_4_3_u09_r19_network.node[15].content_store 	decision_ratio[15] 	1
scalar tree_4_3_u09_r19_network.node[16].core_layer 	interests[16] 	11953
scalar tree_4_3_u09_r19_network.node[16].core_layer 	data[16] 	10096
scalar tree_4_3_u09_r19_network.node[16].content_store 	p_hit[16] 	0.15527482640341
scalar tree_4_3_u09_r19_network.node[16].content_store 	hits[16] 	1856
scalar tree_4_3_u09_r19_network.node[16].content_store 	misses[16] 	10097
scalar tree_4_3_u09_r19_network.node[16].content_store 	decision_yes[16] 	10096
scalar tree_4_3_u09_r19_network.node[16].content_store 	decision_no[16] 	0
scalar tree_4_3_u09_r19_network.node[16].content_store 	decision_ratio[16] 	1
scalar tree_4_3_u09_r19_network.node[17].core_layer 	interests[17] 	12001
scalar tree_4_3_u09_r19_network.node[17].core_layer 	data[17] 	10140
scalar tree_4_3_u09_r19_network.node[17].content_store 	p_hit[17] 	0.15498708440963
scalar tree_4_3_u09_r19_network.node[17].content_store 	hits[17] 	1860
scalar tree_4_3_u09_r19_network.node[17].content_store 	misses[17] 	10141
scalar tree_4_3_u09_r19_network.node[17].content_store 	decision_yes[17] 	10140
scalar tree_4_3_u09_r19_network.node[17].content_store 	decision_no[17] 	0
scalar tree_4_3_u09_r19_network.node[17].content_store 	decision_ratio[17] 	1
scalar tree_4_3_u09_r19_network.node[18].core_layer 	interests[18] 	12231
scalar tree_4_3_u09_r19_network.node[18].core_layer 	data[18] 	10336
scalar tree_4_3_u09_r19_network.node[18].content_store 	p_hit[18] 	0.15493418363176
scalar tree_4_3_u09_r19_network.node[18].content_store 	hits[18] 	1895
scalar tree_4_3_u09_r19_network.node[18].content_store 	misses[18] 	10336
scalar tree_4_3_u09_r19_network.node[18].content_store 	decision_yes[18] 	10336
scalar tree_4_3_u09_r19_network.node[18].content_store 	decision_no[18] 	0
scalar tree_4_3_u09_r19_network.node[18].content_store 	decision_ratio[18] 	1
scalar tree_4_3_u09_r19_network.node[19].core_layer 	interests[19] 	11996
scalar tree_4_3_u09_r19_network.node[19].core_layer 	data[19] 	10092
scalar tree_4_3_u09_r19_network.node[19].content_store 	p_hit[19] 	0.15871957319106
scalar tree_4_3_u09_r19_network.node[19].content_store 	hits[19] 	1904
scalar tree_4_3_u09_r19_network.node[19].content_store 	misses[19] 	10092
scalar tree_4_3_u09_r19_network.node[19].content_store 	decision_yes[19] 	10092
scalar tree_4_3_u09_r19_network.node[19].content_store 	decision_no[19] 	0
scalar tree_4_3_u09_r19_network.node[19].content_store 	decision_ratio[19] 	1
scalar tree_4_3_u09_r19_network.node[20].core_layer 	interests[20] 	12072
scalar tree_4_3_u09_r19_network.node[20].core_layer 	data[20] 	10213
scalar tree_4_3_u09_r19_network.node[20].content_store 	p_hit[20] 	0.15399271040424
scalar tree_4_3_u09_r19_network.node[20].content_store 	hits[20] 	1859
scalar tree_4_3_u09_r19_network.node[20].content_store 	misses[20] 	10213
scalar tree_4_3_u09_r19_network.node[20].content_store 	decision_yes[20] 	10213
scalar tree_4_3_u09_r19_network.node[20].content_store 	decision_no[20] 	0
scalar tree_4_3_u09_r19_network.node[20].content_store 	decision_ratio[20] 	1
scalar tree_4_3_u09_r19_network.node[21].core_layer 	interests[21] 	11929
scalar tree_4_3_u09_r19_network.node[21].core_layer 	data[21] 	10074
scalar tree_4_3_u09_r19_network.node[21].content_store 	p_hit[21] 	0.1555033950876
scalar tree_4_3_u09_r19_network.node[21].content_store 	hits[21] 	1855
scalar tree_4_3_u09_r19_network.node[21].content_store 	misses[21] 	10074
scalar tree_4_3_u09_r19_network.node[21].content_store 	decision_yes[21] 	10074
scalar tree_4_3_u09_r19_network.node[21].content_store 	decision_no[21] 	0
scalar tree_4_3_u09_r19_network.node[21].content_store 	decision_ratio[21] 	1
scalar tree_4_3_u09_r19_network.node[22].core_layer 	interests[22] 	12244
scalar tree_4_3_u09_r19_network.node[22].core_layer 	data[22] 	10387
scalar tree_4_3_u09_r19_network.node[22].content_store 	p_hit[22] 	0.1515844495263
scalar tree_4_3_u09_r19_network.node[22].content_store 	hits[22] 	1856
scalar tree_4_3_u09_r19_network.node[22].content_store 	misses[22] 	10388
scalar tree_4_3_u09_r19_network.node[22].content_store 	decision_yes[22] 	10387
scalar tree_4_3_u09_r19_network.node[22].content_store 	decision_no[22] 	0
scalar tree_4_3_u09_r19_network.node[22].content_store 	decision_ratio[22] 	1
scalar tree_4_3_u09_r19_network.node[23].core_layer 	interests[23] 	11971
scalar tree_4_3_u09_r19_network.node[23].core_layer 	data[23] 	10148
scalar tree_4_3_u09_r19_network.node[23].content_store 	p_hit[23] 	0.15211761757581
scalar tree_4_3_u09_r19_network.node[23].content_store 	hits[23] 	1821
scalar tree_4_3_u09_r19_network.node[23].content_store 	misses[23] 	10150
scalar tree_4_3_u09_r19_network.node[23].content_store 	decision_yes[23] 	10148
scalar tree_4_3_u09_r19_network.node[23].content_store 	decision_no[23] 	0
scalar tree_4_3_u09_r19_network.node[23].content_store 	decision_ratio[23] 	1
scalar tree_4_3_u09_r19_network.node[24].core_layer 	interests[24] 	11803
scalar tree_4_3_u09_r19_network.node[24].core_layer 	data[24] 	9956
scalar tree_4_3_u09_r19_network.node[24].content_store 	p_hit[24] 	0.1564009150216
scalar tree_4_3_u09_r19_network.node[24].content_store 	hits[24] 	1846
scalar tree_4_3_u09_r19_network.node[24].content_store 	misses[24] 	9957
scalar tree_4_3_u09_r19_network.node[24].content_store 	decision_yes[24] 	9956
scalar tree_4_3_u09_r19_network.node[24].content_store 	decision_no[24] 	0
scalar tree_4_3_u09_r19_network.node[24].content_store 	decision_ratio[24] 	1
scalar tree_4_3_u09_r19_network.node[25].core_layer 	interests[25] 	11840
scalar tree_4_3_u09_r19_network.node[25].core_layer 	data[25] 	9979
scalar tree_4_3_u09_r19_network.node[25].content_store 	p_hit[25] 	0.15701013513514
scalar tree_4_3_u09_r19_network.node[25].content_store 	hits[25] 	1859
scalar tree_4_3_u09_r19_network.node[25].content_store 	misses[25] 	9981
scalar tree_4_3_u09_r19_network.node[25].content_store 	decision_yes[25] 	9979
scalar tree_4_3_u09_r19_network.node[25].content_store 	decision_no[25] 	0
scalar tree_4_3_u09_r19_network.node[25].content_store 	decision_ratio[25] 	1
scalar tree_4_3_u09_r19_network.node[26].core_layer 	interests[26] 	11875
scalar tree_4_3_u09_r19_network.node[26].core_layer 	data[26] 	10054
scalar tree_4_3_u09_r19_network.node[26].content_store 	p_hit[26] 	0.15334736842105
scalar tree_4_3_u09_r19_network.node[26].content_store 	hits[26] 	1821
scalar tree_4_3_u09_r19_network.node[26].content_store 	misses[26] 	10054
scalar tree_4_3_u09_r19_network.node[26].content_store 	decision_yes[26] 	10054
scalar tree_4_3_u09_r19_network.node[26].content_store 	decision_no[26] 	0
scalar tree_4_3_u09_r19_network.node[26].content_store 	decision_ratio[26] 	1
scalar tree_4_3_u09_r19_network.node[27].core_layer 	interests[27] 	11860
scalar tree_4_3_u09_r19_network.node[27].core_layer 	data[27] 	10041
scalar tree_4_3_u09_r19_network.node[27].content_store 	p_hit[27] 	0.15337268128162
scalar tree_4_3_u09_r19_network.node[27].content_store 	hits[27] 	1819
scalar tree_4_3_u09_r19_network.node[27].content_store 	misses[27] 	10041
scalar tree_4_3_u09_r19_network.node[27].content_store 	decision_yes[27] 	10041
scalar tree_4_3_u09_r19_network.node[27].content_store 	decision_no[27] 	0
scalar tree_4_3_u09_r19_network.node[27].content_store 	decision_ratio[27] 	1
scalar tree_4_3_u09_r19_network.node[28].core_layer 	interests[28] 	12081
scalar tree_4_3_u09_r19_network.node[28].core_layer 	data[28] 	10220
scalar tree_4_3_u09_r19_network.node[28].content_store 	p_hit[28] 	0.15396076483735
scalar tree_4_3_u09_r19_network.node[28].content_store 	hits[28] 	1860
scalar tree_4_3_u09_r19_network.node[28].content_store 	misses[28] 	10221
scalar tree_4_3_u09_r19_network.node[28].content_store 	decision_yes[28] 	10220
scalar tree_4_3_u09_r19_network.node[28].content_store 	decision_no[28] 	0
scalar tree_4_3_u09_r19_network.node[28].content_store 	decision_ratio[28] 	1
scalar tree_4_3_u09_r19_network.node[29].core_layer 	interests[29] 	11951
scalar tree_4_3_u09_r19_network.node[29].core_layer 	data[29] 	10084
scalar tree_4_3_u09_r19_network.node[29].content_store 	p_hit[29] 	0.15622123671659
scalar tree_4_3_u09_r19_network.node[29].content_store 	hits[29] 	1867
scalar tree_4_3_u09_r19_network.node[29].content_store 	misses[29] 	10084
scalar tree_4_3_u09_r19_network.node[29].content_store 	decision_yes[29] 	10084
scalar tree_4_3_u09_r19_network.node[29].content_store 	decision_no[29] 	0
scalar tree_4_3_u09_r19_network.node[29].content_store 	decision_ratio[29] 	1
scalar tree_4_3_u09_r19_network.node[30].core_layer 	interests[30] 	11749
scalar tree_4_3_u09_r19_network.node[30].core_layer 	data[30] 	9998
scalar tree_4_3_u09_r19_network.node[30].content_store 	p_hit[30] 	0.14903396033705
scalar tree_4_3_u09_r19_network.node[30].content_store 	hits[30] 	1751
scalar tree_4_3_u09_r19_network.node[30].content_store 	misses[30] 	9998
scalar tree_4_3_u09_r19_network.node[30].content_store 	decision_yes[30] 	9998
scalar tree_4_3_u09_r19_network.node[30].content_store 	decision_no[30] 	0
scalar tree_4_3_u09_r19_network.node[30].content_store 	decision_ratio[30] 	1
scalar tree_4_3_u09_r19_network.node[31].core_layer 	interests[31] 	11843
scalar tree_4_3_u09_r19_network.node[31].core_layer 	data[31] 	10008
scalar tree_4_3_u09_r19_network.node[31].content_store 	p_hit[31] 	0.15477497255763
scalar tree_4_3_u09_r19_network.node[31].content_store 	hits[31] 	1833
scalar tree_4_3_u09_r19_network.node[31].content_store 	misses[31] 	10010
scalar tree_4_3_u09_r19_network.node[31].content_store 	decision_yes[31] 	10008
scalar tree_4_3_u09_r19_network.node[31].content_store 	decision_no[31] 	0
scalar tree_4_3_u09_r19_network.node[31].content_store 	decision_ratio[31] 	1
scalar tree_4_3_u09_r19_network.node[32].core_layer 	interests[32] 	11967
scalar tree_4_3_u09_r19_network.node[32].core_layer 	data[32] 	10207
scalar tree_4_3_u09_r19_network.node[32].content_store 	p_hit[32] 	0.14707111222529
scalar tree_4_3_u09_r19_network.node[32].content_store 	hits[32] 	1760
scalar tree_4_3_u09_r19_network.node[32].content_store 	misses[32] 	10207
scalar tree_4_3_u09_r19_network.node[32].content_store 	decision_yes[32] 	10207
scalar tree_4_3_u09_r19_network.node[32].content_store 	decision_no[32] 	0
scalar tree_4_3_u09_r19_network.node[32].content_store 	decision_ratio[32] 	1
scalar tree_4_3_u09_r19_network.node[33].core_layer 	interests[33] 	11930
scalar tree_4_3_u09_r19_network.node[33].core_layer 	data[33] 	10039
scalar tree_4_3_u09_r19_network.node[33].content_store 	p_hit[33] 	0.15850796311819
scalar tree_4_3_u09_r19_network.node[33].content_store 	hits[33] 	1891
scalar tree_4_3_u09_r19_network.node[33].content_store 	misses[33] 	10039
scalar tree_4_3_u09_r19_network.node[33].content_store 	decision_yes[33] 	10039
scalar tree_4_3_u09_r19_network.node[33].content_store 	decision_no[33] 	0
scalar tree_4_3_u09_r19_network.node[33].content_store 	decision_ratio[33] 	1
scalar tree_4_3_u09_r19_network.node[34].core_layer 	interests[34] 	11964
scalar tree_4_3_u09_r19_network.node[34].core_layer 	data[34] 	10076
scalar tree_4_3_u09_r19_network.node[34].content_store 	p_hit[34] 	0.15772316950853
scalar tree_4_3_u09_r19_network.node[34].content_store 	hits[34] 	1887
scalar tree_4_3_u09_r19_network.node[34].content_store 	misses[34] 	10077
scalar tree_4_3_u09_r19_network.node[34].content_store 	decision_yes[34] 	10076
scalar tree_4_3_u09_r19_network.node[34].content_store 	decision_no[34] 	0
scalar tree_4_3_u09_r19_network.node[34].content_store 	decision_ratio[34] 	1
scalar tree_4_3_u09_r19_network.node[35].core_layer 	interests[35] 	11892
scalar tree_4_3_u09_r19_network.node[35].core_layer 	data[35] 	10182
scalar tree_4_3_u09_r19_network.node[35].content_store 	p_hit[35] 	0.1437100571813
scalar tree_4_3_u09_r19_network.node[35].content_store 	hits[35] 	1709
scalar tree_4_3_u09_r19_network.node[35].content_store 	misses[35] 	10183
scalar tree_4_3_u09_r19_network.node[35].content_store 	decision_yes[35] 	10182
scalar tree_4_3_u09_r19_network.node[35].content_store 	decision_no[35] 	0
scalar tree_4_3_u09_r19_network.node[35].content_store 	decision_ratio[35] 	1
scalar tree_4_3_u09_r19_network.node[36].core_layer 	interests[36] 	12068
scalar tree_4_3_u09_r19_network.node[36].core_layer 	data[36] 	10286
scalar tree_4_3_u09_r19_network.node[36].content_store 	p_hit[36] 	0.14741465031488
scalar tree_4_3_u09_r19_network.node[36].content_store 	hits[36] 	1779
scalar tree_4_3_u09_r19_network.node[36].content_store 	misses[36] 	10289
scalar tree_4_3_u09_r19_network.node[36].content_store 	decision_yes[36] 	10286
scalar tree_4_3_u09_r19_network.node[36].content_store 	decision_no[36] 	0
scalar tree_4_3_u09_r19_network.node[36].content_store 	decision_ratio[36] 	1
scalar tree_4_3_u09_r19_network.node[37].core_layer 	interests[37] 	12071
scalar tree_4_3_u09_r19_network.node[37].core_layer 	data[37] 	10160
scalar tree_4_3_u09_r19_network.node[37].content_store 	p_hit[37] 	0.15831331289868
scalar tree_4_3_u09_r19_network.node[37].content_store 	hits[37] 	1911
scalar tree_4_3_u09_r19_network.node[37].content_store 	misses[37] 	10160
scalar tree_4_3_u09_r19_network.node[37].content_store 	decision_yes[37] 	10160
scalar tree_4_3_u09_r19_network.node[37].content_store 	decision_no[37] 	0
scalar tree_4_3_u09_r19_network.node[37].content_store 	decision_ratio[37] 	1
scalar tree_4_3_u09_r19_network.node[38].core_layer 	interests[38] 	12088
scalar tree_4_3_u09_r19_network.node[38].core_layer 	data[38] 	10281
scalar tree_4_3_u09_r19_network.node[38].content_store 	p_hit[38] 	0.14923891462608
scalar tree_4_3_u09_r19_network.node[38].content_store 	hits[38] 	1804
scalar tree_4_3_u09_r19_network.node[38].content_store 	misses[38] 	10284
scalar tree_4_3_u09_r19_network.node[38].content_store 	decision_yes[38] 	10281
scalar tree_4_3_u09_r19_network.node[38].content_store 	decision_no[38] 	0
scalar tree_4_3_u09_r19_network.node[38].content_store 	decision_ratio[38] 	1
scalar tree_4_3_u09_r19_network.node[39].core_layer 	interests[39] 	11833
scalar tree_4_3_u09_r19_network.node[39].core_layer 	data[39] 	9895
scalar tree_4_3_u09_r19_network.node[39].content_store 	p_hit[39] 	0.16377926138764
scalar tree_4_3_u09_r19_network.node[39].content_store 	hits[39] 	1938
scalar tree_4_3_u09_r19_network.node[39].content_store 	misses[39] 	9895
scalar tree_4_3_u09_r19_network.node[39].content_store 	decision_yes[39] 	9895
scalar tree_4_3_u09_r19_network.node[39].content_store 	decision_no[39] 	0
scalar tree_4_3_u09_r19_network.node[39].content_store 	decision_ratio[39] 	1
scalar tree_4_3_u09_r19_network.client[13] 	hdistance[13] 	3.3748843468753
scalar tree_4_3_u09_r19_network.client[13] 	downloads[13] 	11889
scalar tree_4_3_u09_r19_network.client[13] 	avg_time[13] 	0.005061645523
scalar tree_4_3_u09_r19_network.client[14] 	hdistance[14] 	3.3657204336671
scalar tree_4_3_u09_r19_network.client[14] 	downloads[14] 	12083
scalar tree_4_3_u09_r19_network.client[14] 	avg_time[14] 	0.005047648822
scalar tree_4_3_u09_r19_network.client[15] 	hdistance[15] 	3.364160883017
scalar tree_4_3_u09_r19_network.client[15] 	downloads[15] 	11959
scalar tree_4_3_u09_r19_network.client[15] 	avg_time[15] 	0.005045939922
scalar tree_4_3_u09_r19_network.client[16] 	hdistance[16] 	3.3788487282463
scalar tree_4_3_u09_r19_network.client[16] 	downloads[16] 	11952
scalar tree_4_3_u09_r19_network.client[16] 	avg_time[16] 	0.005067791768
scalar tree_4_3_u09_r19_network.client[17] 	hdistance[17] 	3.38
scalar tree_4_3_u09_r19_network.client[17] 	downloads[17] 	12000
scalar tree_4_3_u09_r19_network.client[17] 	avg_time[17] 	0.005069318232
scalar tree_4_3_u09_r19_network.client[18] 	hdistance[18] 	3.380263265473
scalar tree_4_3_u09_r19_network.client[18] 	downloads[18] 	12231
scalar tree_4_3_u09_r19_network.client[18] 	avg_time[18] 	0.005069658204
scalar tree_4_3_u09_r19_network.client[19] 	hdistance[19] 	3.3651217072357
scalar tree_4_3_u09_r19_network.client[19] 	downloads[19] 	11996
scalar tree_4_3_u09_r19_network.client[19] 	avg_time[19] 	0.005047297746
scalar tree_4_3_u09_r19_network.client[20] 	hdistance[20] 	3.384029158383
scalar tree_4_3_u09_r19_network.client[20] 	downloads[20] 	12072
scalar tree_4_3_u09_r19_network.client[20] 	avg_time[20] 	0.00507589191
scalar tree_4_3_u09_r19_network.client[21] 	hdistance[21] 	3.3779864196496
scalar tree_4_3_u09_r19_network.client[21] 	downloads[21] 	11929
scalar tree_4_3_u09_r19_network.client[21] 	avg_time[21] 	0.005066321102
scalar tree_4_3_u09_r19_network.client[22] 	hdistance[22] 	3.3936126766315
scalar tree_4_3_u09_r19_network.client[22] 	downloads[22] 	12243
scalar tree_4_3_u09_r19_network.client[22] 	avg_time[22] 	0.005090071319
scalar tree_4_3_u09_r19_network.client[23] 	hdistance[23] 	3.3914278552928
scalar tree_4_3_u09_r19_network.client[23] 	downloads[23] 	11969
scalar tree_4_3_u09_r19_network.client[23] 	avg_time[23] 	0.005086495095
scalar tree_4_3_u09_r19_network.client[24] 	hdistance[24] 	3.3743433316387
scalar tree_4_3_u09_r19_network.client[24] 	downloads[24] 	11802
scalar tree_4_3_u09_r19_network.client[24] 	avg_time[24] 	0.005060689205
scalar tree_4_3_u09_r19_network.client[25] 	hdistance[25] 	3.371853353607
scalar tree_4_3_u09_r19_network.client[25] 	downloads[25] 	11838
scalar tree_4_3_u09_r19_network.client[25] 	avg_time[25] 	0.00505708074
scalar tree_4_3_u09_r19_network.client[26] 	hdistance[26] 	3.3866105263158
scalar tree_4_3_u09_r19_network.client[26] 	downloads[26] 	11875
scalar tree_4_3_u09_r19_network.client[26] 	avg_time[26] 	0.005079807397
scalar tree_4_3_u09_r19_network.client[27] 	hdistance[27] 	3.3865092748735
scalar tree_4_3_u09_r19_network.client[27] 	downloads[27] 	11860
scalar tree_4_3_u09_r19_network.client[27] 	avg_time[27] 	0.00507951982
scalar tree_4_3_u09_r19_network.client[28] 	hdistance[28] 	3.3841059602649
scalar tree_4_3_u09_r19_network.client[28] 	downloads[28] 	12080
scalar tree_4_3_u09_r19_network.client[28] 	avg_time[28] 	0.00507594432
scalar tree_4_3_u09_r19_network.client[29] 	hdistance[29] 	3.3751150531336
scalar tree_4_3_u09_r19_network.client[29] 	downloads[29] 	11951
scalar tree_4_3_u09_r19_network.client[29] 	avg_time[29] 	0.005062520236
scalar tree_4_3_u09_r19_network.client[30] 	hdistance[30] 	3.4038641586518
scalar tree_4_3_u09_r19_network.client[30] 	downloads[30] 	11749
scalar tree_4_3_u09_r19_network.client[30] 	avg_time[30] 	0.005105793279
scalar tree_4_3_u09_r19_network.client[31] 	hdistance[31] 	3.3807955409172
scalar tree_4_3_u09_r19_network.client[31] 	downloads[31] 	11841
scalar tree_4_3_u09_r19_network.client[31] 	avg_time[31] 	0.005070411289
scalar tree_4_3_u09_r19_network.client[32] 	hdistance[32] 	3.4117155510989
scalar tree_4_3_u09_r19_network.client[32] 	downloads[32] 	11967
scalar tree_4_3_u09_r19_network.client[32] 	avg_time[32] 	0.00511735685
scalar tree_4_3_u09_r19_network.client[33] 	hdistance[33] 	3.3659681475272
scalar tree_4_3_u09_r19_network.client[33] 	downloads[33] 	11930
scalar tree_4_3_u09_r19_network.client[33] 	avg_time[33] 	0.005048929447
scalar tree_4_3_u09_r19_network.client[34] 	hdistance[34] 	3.3690545849703
scalar tree_4_3_u09_r19_network.client[34] 	downloads[34] 	11963
scalar tree_4_3_u09_r19_network.client[34] 	avg_time[34] 	0.005053222386
scalar tree_4_3_u09_r19_network.client[35] 	hdistance[35] 	3.4251114288117
scalar tree_4_3_u09_r19_network.client[35] 	downloads[35] 	11891
scalar tree_4_3_u09_r19_network.client[35] 	avg_time[35] 	0.005137409978
scalar tree_4_3_u09_r19_network.client[36] 	hdistance[36] 	3.4101947782843
scalar tree_4_3_u09_r19_network.client[36] 	downloads[36] 	12065
scalar tree_4_3_u09_r19_network.client[36] 	avg_time[36] 	0.00511472173
scalar tree_4_3_u09_r19_network.client[37] 	hdistance[37] 	3.3667467484053
scalar tree_4_3_u09_r19_network.client[37] 	downloads[37] 	12071
scalar tree_4_3_u09_r19_network.client[37] 	avg_time[37] 	0.005049624319
scalar tree_4_3_u09_r19_network.client[38] 	hdistance[38] 	3.4028961522549
scalar tree_4_3_u09_r19_network.client[38] 	downloads[38] 	12085
scalar tree_4_3_u09_r19_network.client[38] 	avg_time[38] 	0.005103687873
scalar tree_4_3_u09_r19_network.client[39] 	hdistance[39] 	3.3448829544494
scalar tree_4_3_u09_r19_network.client[39] 	downloads[39] 	11833
scalar tree_4_3_u09_r19_network.client[39] 	avg_time[39] 	0.005017321498
