version 2
run General-180-20160818-23:26:15-32642
attr a 0.9
attr cd lce
attr configname General
attr cr lru
attr datetime 20160818-23:26:15
attr experiment General
attr fsize 1
attr inifile hw5115/scenario_A/Edge.ini
attr iterationvars "$name=tree_4_3, $un=09, $rep=1, $scenario=Edge, $cd=lce, $cr=lru, $fsize=1, $a=0.9, $sl=spr, $ttl=1000, $variance=0.05"
attr iterationvars2 "$name=tree_4_3, $un=09, $rep=1, $scenario=Edge, $cd=lce, $cr=lru, $fsize=1, $a=0.9, $sl=spr, $ttl=1000, $variance=0.05, $repetition=0"
attr measurement "$name=tree_4_3, $un=09, $rep=1, $scenario=Edge, $cd=lce, $cr=lru, $fsize=1, $a=0.9, $sl=spr, $ttl=1000, $variance=0.05"
attr name tree_4_3
attr network networks.${name}_u${un}_r${rep}_network
attr processid 32642
attr rep 1
attr repetition 0
attr replication #0
attr resultdir results
attr runnumber 180
attr scenario Edge
attr seedset 1
attr sl spr
attr ttl 1000
attr un 09
attr variance 0.05

scalar . 	a 	0.9
scalar . 	fsize 	1
scalar . 	rep 	1
scalar . 	ttl 	1000
scalar . 	un 	09
scalar . 	variance 	0.05
scalar tree_4_3_u09_r1_network.content_distribution 	repo-0 	0
scalar tree_4_3_u09_r1_network.content_distribution 	client-0 	13
scalar tree_4_3_u09_r1_network.content_distribution 	client-1 	14
scalar tree_4_3_u09_r1_network.content_distribution 	client-2 	15
scalar tree_4_3_u09_r1_network.content_distribution 	client-3 	16
scalar tree_4_3_u09_r1_network.content_distribution 	client-4 	17
scalar tree_4_3_u09_r1_network.content_distribution 	client-5 	18
scalar tree_4_3_u09_r1_network.content_distribution 	client-6 	19
scalar tree_4_3_u09_r1_network.content_distribution 	client-7 	20
scalar tree_4_3_u09_r1_network.content_distribution 	client-8 	21
scalar tree_4_3_u09_r1_network.content_distribution 	client-9 	22
scalar tree_4_3_u09_r1_network.content_distribution 	client-10 	23
scalar tree_4_3_u09_r1_network.content_distribution 	client-11 	24
scalar tree_4_3_u09_r1_network.content_distribution 	client-12 	25
scalar tree_4_3_u09_r1_network.content_distribution 	client-13 	26
scalar tree_4_3_u09_r1_network.content_distribution 	client-14 	27
scalar tree_4_3_u09_r1_network.content_distribution 	client-15 	28
scalar tree_4_3_u09_r1_network.content_distribution 	client-16 	29
scalar tree_4_3_u09_r1_network.content_distribution 	client-17 	30
scalar tree_4_3_u09_r1_network.content_distribution 	client-18 	31
scalar tree_4_3_u09_r1_network.content_distribution 	client-19 	32
scalar tree_4_3_u09_r1_network.content_distribution 	client-20 	33
scalar tree_4_3_u09_r1_network.content_distribution 	client-21 	34
scalar tree_4_3_u09_r1_network.content_distribution 	client-22 	35
scalar tree_4_3_u09_r1_network.content_distribution 	client-23 	36
scalar tree_4_3_u09_r1_network.content_distribution 	client-24 	37
scalar tree_4_3_u09_r1_network.content_distribution 	client-25 	38
scalar tree_4_3_u09_r1_network.content_distribution 	client-26 	39
scalar tree_4_3_u09_r1_network.content_distribution 	repo-0_card 	100000
scalar tree_4_3_u09_r1_network.content_distribution 	repo-0_price 	0
scalar tree_4_3_u09_r1_network.statistics 	stabilization_time 	422.1
scalar tree_4_3_u09_r1_network.statistics 	p_hit 	0.10472817385894
scalar tree_4_3_u09_r1_network.statistics 	interests 	28577.6
scalar tree_4_3_u09_r1_network.statistics 	data 	20491.15
scalar tree_4_3_u09_r1_network.statistics 	hdistance 	3.3793412189352
scalar tree_4_3_u09_r1_network.statistics 	avg_time 	0.005068603682
scalar tree_4_3_u09_r1_network.statistics 	downloads 	323430
scalar tree_4_3_u09_r1_network.statistics 	total_cost 	0
scalar tree_4_3_u09_r1_network.statistics 	total_replicas 	100000
scalar tree_4_3_u09_r1_network.statistics 	inner_hit 	0.15537519710602
scalar tree_4_3_u09_r1_network.node[0].core_layer 	interests[0] 	273177
scalar tree_4_3_u09_r1_network.node[0].core_layer 	repo_load[0] 	273177
scalar tree_4_3_u09_r1_network.node[0].core_layer 	data[0] 	0
scalar tree_4_3_u09_r1_network.node[0].core_layer 	repo_int[0] 	273177
scalar tree_4_3_u09_r1_network.node[0].content_store 	p_hit[0] 	0
scalar tree_4_3_u09_r1_network.node[0].content_store 	hits[0] 	0
scalar tree_4_3_u09_r1_network.node[0].content_store 	misses[0] 	273177
scalar tree_4_3_u09_r1_network.node[0].content_store 	decision_yes[0] 	0
scalar tree_4_3_u09_r1_network.node[0].content_store 	decision_no[0] 	273177
scalar tree_4_3_u09_r1_network.node[0].content_store 	decision_ratio[0] 	0
scalar tree_4_3_u09_r1_network.node[1].core_layer 	interests[1] 	192097
scalar tree_4_3_u09_r1_network.node[1].core_layer 	data[1] 	192054
scalar tree_4_3_u09_r1_network.node[1].content_store 	p_hit[1] 	0
scalar tree_4_3_u09_r1_network.node[1].content_store 	hits[1] 	0
scalar tree_4_3_u09_r1_network.node[1].content_store 	misses[1] 	192097
scalar tree_4_3_u09_r1_network.node[1].content_store 	decision_yes[1] 	0
scalar tree_4_3_u09_r1_network.node[1].content_store 	decision_no[1] 	192054
scalar tree_4_3_u09_r1_network.node[1].content_store 	decision_ratio[1] 	0
scalar tree_4_3_u09_r1_network.node[2].core_layer 	interests[2] 	71036
scalar tree_4_3_u09_r1_network.node[2].core_layer 	data[2] 	71033
scalar tree_4_3_u09_r1_network.node[2].content_store 	p_hit[2] 	0
scalar tree_4_3_u09_r1_network.node[2].content_store 	hits[2] 	0
scalar tree_4_3_u09_r1_network.node[2].content_store 	misses[2] 	71036
scalar tree_4_3_u09_r1_network.node[2].content_store 	decision_yes[2] 	0
scalar tree_4_3_u09_r1_network.node[2].content_store 	decision_no[2] 	71033
scalar tree_4_3_u09_r1_network.node[2].content_store 	decision_ratio[2] 	0
scalar tree_4_3_u09_r1_network.node[3].core_layer 	interests[3] 	10090
scalar tree_4_3_u09_r1_network.node[3].core_layer 	data[3] 	10090
scalar tree_4_3_u09_r1_network.node[3].content_store 	p_hit[3] 	0
scalar tree_4_3_u09_r1_network.node[3].content_store 	hits[3] 	0
scalar tree_4_3_u09_r1_network.node[3].content_store 	misses[3] 	10090
scalar tree_4_3_u09_r1_network.node[3].content_store 	decision_yes[3] 	0
scalar tree_4_3_u09_r1_network.node[3].content_store 	decision_no[3] 	10090
scalar tree_4_3_u09_r1_network.node[3].content_store 	decision_ratio[3] 	0
scalar tree_4_3_u09_r1_network.node[4].core_layer 	interests[4] 	40524
scalar tree_4_3_u09_r1_network.node[4].core_layer 	data[4] 	40522
scalar tree_4_3_u09_r1_network.node[4].content_store 	p_hit[4] 	0
scalar tree_4_3_u09_r1_network.node[4].content_store 	hits[4] 	0
scalar tree_4_3_u09_r1_network.node[4].content_store 	misses[4] 	40524
scalar tree_4_3_u09_r1_network.node[4].content_store 	decision_yes[4] 	0
scalar tree_4_3_u09_r1_network.node[4].content_store 	decision_no[4] 	40522
scalar tree_4_3_u09_r1_network.node[4].content_store 	decision_ratio[4] 	0
scalar tree_4_3_u09_r1_network.node[5].core_layer 	interests[5] 	30299
scalar tree_4_3_u09_r1_network.node[5].core_layer 	data[5] 	30294
scalar tree_4_3_u09_r1_network.node[5].content_store 	p_hit[5] 	0
scalar tree_4_3_u09_r1_network.node[5].content_store 	hits[5] 	0
scalar tree_4_3_u09_r1_network.node[5].content_store 	misses[5] 	30299
scalar tree_4_3_u09_r1_network.node[5].content_store 	decision_yes[5] 	0
scalar tree_4_3_u09_r1_network.node[5].content_store 	decision_no[5] 	30294
scalar tree_4_3_u09_r1_network.node[5].content_store 	decision_ratio[5] 	0
scalar tree_4_3_u09_r1_network.node[6].core_layer 	interests[6] 	20299
scalar tree_4_3_u09_r1_network.node[6].core_layer 	data[6] 	20299
scalar tree_4_3_u09_r1_network.node[6].content_store 	p_hit[6] 	0
scalar tree_4_3_u09_r1_network.node[6].content_store 	hits[6] 	0
scalar tree_4_3_u09_r1_network.node[6].content_store 	misses[6] 	20299
scalar tree_4_3_u09_r1_network.node[6].content_store 	decision_yes[6] 	0
scalar tree_4_3_u09_r1_network.node[6].content_store 	decision_no[6] 	20299
scalar tree_4_3_u09_r1_network.node[6].content_store 	decision_ratio[6] 	0
scalar tree_4_3_u09_r1_network.node[7].core_layer 	interests[7] 	50297
scalar tree_4_3_u09_r1_network.node[7].core_layer 	data[7] 	50285
scalar tree_4_3_u09_r1_network.node[7].content_store 	p_hit[7] 	0
scalar tree_4_3_u09_r1_network.node[7].content_store 	hits[7] 	0
scalar tree_4_3_u09_r1_network.node[7].content_store 	misses[7] 	50297
scalar tree_4_3_u09_r1_network.node[7].content_store 	decision_yes[7] 	0
scalar tree_4_3_u09_r1_network.node[7].content_store 	decision_no[7] 	50285
scalar tree_4_3_u09_r1_network.node[7].content_store 	decision_ratio[7] 	0
scalar tree_4_3_u09_r1_network.node[8].core_layer 	interests[8] 	30403
scalar tree_4_3_u09_r1_network.node[8].core_layer 	data[8] 	30399
scalar tree_4_3_u09_r1_network.node[8].content_store 	p_hit[8] 	0
scalar tree_4_3_u09_r1_network.node[8].content_store 	hits[8] 	0
scalar tree_4_3_u09_r1_network.node[8].content_store 	misses[8] 	30403
scalar tree_4_3_u09_r1_network.node[8].content_store 	decision_yes[8] 	0
scalar tree_4_3_u09_r1_network.node[8].content_store 	decision_no[8] 	30399
scalar tree_4_3_u09_r1_network.node[8].content_store 	decision_ratio[8] 	0
scalar tree_4_3_u09_r1_network.node[9].core_layer 	interests[9] 	10277
scalar tree_4_3_u09_r1_network.node[9].core_layer 	data[9] 	10277
scalar tree_4_3_u09_r1_network.node[9].content_store 	p_hit[9] 	0
scalar tree_4_3_u09_r1_network.node[9].content_store 	hits[9] 	0
scalar tree_4_3_u09_r1_network.node[9].content_store 	misses[9] 	10277
scalar tree_4_3_u09_r1_network.node[9].content_store 	decision_yes[9] 	0
scalar tree_4_3_u09_r1_network.node[9].content_store 	decision_no[9] 	10277
scalar tree_4_3_u09_r1_network.node[9].content_store 	decision_ratio[9] 	0
scalar tree_4_3_u09_r1_network.node[10].core_layer 	interests[10] 	50699
scalar tree_4_3_u09_r1_network.node[10].core_layer 	data[10] 	50697
scalar tree_4_3_u09_r1_network.node[10].content_store 	p_hit[10] 	0
scalar tree_4_3_u09_r1_network.node[10].content_store 	hits[10] 	0
scalar tree_4_3_u09_r1_network.node[10].content_store 	misses[10] 	50699
scalar tree_4_3_u09_r1_network.node[10].content_store 	decision_yes[10] 	0
scalar tree_4_3_u09_r1_network.node[10].content_store 	decision_no[10] 	50697
scalar tree_4_3_u09_r1_network.node[10].content_store 	decision_ratio[10] 	0
scalar tree_4_3_u09_r1_network.node[11].core_layer 	interests[11] 	30361
scalar tree_4_3_u09_r1_network.node[11].core_layer 	data[11] 	30359
scalar tree_4_3_u09_r1_network.node[11].content_store 	p_hit[11] 	0
scalar tree_4_3_u09_r1_network.node[11].content_store 	hits[11] 	0
scalar tree_4_3_u09_r1_network.node[11].content_store 	misses[11] 	30361
scalar tree_4_3_u09_r1_network.node[11].content_store 	decision_yes[11] 	0
scalar tree_4_3_u09_r1_network.node[11].content_store 	decision_no[11] 	30359
scalar tree_4_3_u09_r1_network.node[11].content_store 	decision_ratio[11] 	0
scalar tree_4_3_u09_r1_network.node[12].core_layer 	interests[12] 	10090
scalar tree_4_3_u09_r1_network.node[12].core_layer 	data[12] 	10090
scalar tree_4_3_u09_r1_network.node[12].content_store 	p_hit[12] 	0
scalar tree_4_3_u09_r1_network.node[12].content_store 	hits[12] 	0
scalar tree_4_3_u09_r1_network.node[12].content_store 	misses[12] 	10090
scalar tree_4_3_u09_r1_network.node[12].content_store 	decision_yes[12] 	0
scalar tree_4_3_u09_r1_network.node[12].content_store 	decision_no[12] 	10090
scalar tree_4_3_u09_r1_network.node[12].content_store 	decision_ratio[12] 	0
scalar tree_4_3_u09_r1_network.node[13].core_layer 	interests[13] 	12044
scalar tree_4_3_u09_r1_network.node[13].core_layer 	data[13] 	10297
scalar tree_4_3_u09_r1_network.node[13].content_store 	p_hit[13] 	0.14496844902026
scalar tree_4_3_u09_r1_network.node[13].content_store 	hits[13] 	1746
scalar tree_4_3_u09_r1_network.node[13].content_store 	misses[13] 	10298
scalar tree_4_3_u09_r1_network.node[13].content_store 	decision_yes[13] 	10297
scalar tree_4_3_u09_r1_network.node[13].content_store 	decision_no[13] 	0
scalar tree_4_3_u09_r1_network.node[13].content_store 	decision_ratio[13] 	1
scalar tree_4_3_u09_r1_network.node[14].core_layer 	interests[14] 	11859
scalar tree_4_3_u09_r1_network.node[14].core_layer 	data[14] 	9979
scalar tree_4_3_u09_r1_network.node[14].content_store 	p_hit[14] 	0.15852938696349
scalar tree_4_3_u09_r1_network.node[14].content_store 	hits[14] 	1880
scalar tree_4_3_u09_r1_network.node[14].content_store 	misses[14] 	9979
scalar tree_4_3_u09_r1_network.node[14].content_store 	decision_yes[14] 	9979
scalar tree_4_3_u09_r1_network.node[14].content_store 	decision_no[14] 	0
scalar tree_4_3_u09_r1_network.node[14].content_store 	decision_ratio[14] 	1
scalar tree_4_3_u09_r1_network.node[15].core_layer 	interests[15] 	12113
scalar tree_4_3_u09_r1_network.node[15].core_layer 	data[15] 	10290
scalar tree_4_3_u09_r1_network.node[15].content_store 	p_hit[15] 	0.15049946338644
scalar tree_4_3_u09_r1_network.node[15].content_store 	hits[15] 	1823
scalar tree_4_3_u09_r1_network.node[15].content_store 	misses[15] 	10290
scalar tree_4_3_u09_r1_network.node[15].content_store 	decision_yes[15] 	10290
scalar tree_4_3_u09_r1_network.node[15].content_store 	decision_no[15] 	0
scalar tree_4_3_u09_r1_network.node[15].content_store 	decision_ratio[15] 	1
scalar tree_4_3_u09_r1_network.node[16].core_layer 	interests[16] 	11802
scalar tree_4_3_u09_r1_network.node[16].core_layer 	data[16] 	9957
scalar tree_4_3_u09_r1_network.node[16].content_store 	p_hit[16] 	0.15632943568887
scalar tree_4_3_u09_r1_network.node[16].content_store 	hits[16] 	1845
scalar tree_4_3_u09_r1_network.node[16].content_store 	misses[16] 	9957
scalar tree_4_3_u09_r1_network.node[16].content_store 	decision_yes[16] 	9957
scalar tree_4_3_u09_r1_network.node[16].content_store 	decision_no[16] 	0
scalar tree_4_3_u09_r1_network.node[16].content_store 	decision_ratio[16] 	1
scalar tree_4_3_u09_r1_network.node[17].core_layer 	interests[17] 	11946
scalar tree_4_3_u09_r1_network.node[17].core_layer 	data[17] 	10067
scalar tree_4_3_u09_r1_network.node[17].content_store 	p_hit[17] 	0.15729114347899
scalar tree_4_3_u09_r1_network.node[17].content_store 	hits[17] 	1879
scalar tree_4_3_u09_r1_network.node[17].content_store 	misses[17] 	10067
scalar tree_4_3_u09_r1_network.node[17].content_store 	decision_yes[17] 	10067
scalar tree_4_3_u09_r1_network.node[17].content_store 	decision_no[17] 	0
scalar tree_4_3_u09_r1_network.node[17].content_store 	decision_ratio[17] 	1
scalar tree_4_3_u09_r1_network.node[18].core_layer 	interests[18] 	11959
scalar tree_4_3_u09_r1_network.node[18].core_layer 	data[18] 	10093
scalar tree_4_3_u09_r1_network.node[18].content_store 	p_hit[18] 	0.15569863700978
scalar tree_4_3_u09_r1_network.node[18].content_store 	hits[18] 	1862
scalar tree_4_3_u09_r1_network.node[18].content_store 	misses[18] 	10097
scalar tree_4_3_u09_r1_network.node[18].content_store 	decision_yes[18] 	10093
scalar tree_4_3_u09_r1_network.node[18].content_store 	decision_no[18] 	0
scalar tree_4_3_u09_r1_network.node[18].content_store 	decision_ratio[18] 	1
scalar tree_4_3_u09_r1_network.node[19].core_layer 	interests[19] 	12003
scalar tree_4_3_u09_r1_network.node[19].core_layer 	data[19] 	10192
scalar tree_4_3_u09_r1_network.node[19].content_store 	p_hit[19] 	0.15071232191952
scalar tree_4_3_u09_r1_network.node[19].content_store 	hits[19] 	1809
scalar tree_4_3_u09_r1_network.node[19].content_store 	misses[19] 	10194
scalar tree_4_3_u09_r1_network.node[19].content_store 	decision_yes[19] 	10192
scalar tree_4_3_u09_r1_network.node[19].content_store 	decision_no[19] 	0
scalar tree_4_3_u09_r1_network.node[19].content_store 	decision_ratio[19] 	1
scalar tree_4_3_u09_r1_network.node[20].core_layer 	interests[20] 	12062
scalar tree_4_3_u09_r1_network.node[20].core_layer 	data[20] 	10139
scalar tree_4_3_u09_r1_network.node[20].content_store 	p_hit[20] 	0.15942629746311
scalar tree_4_3_u09_r1_network.node[20].content_store 	hits[20] 	1923
scalar tree_4_3_u09_r1_network.node[20].content_store 	misses[20] 	10139
scalar tree_4_3_u09_r1_network.node[20].content_store 	decision_yes[20] 	10139
scalar tree_4_3_u09_r1_network.node[20].content_store 	decision_no[20] 	0
scalar tree_4_3_u09_r1_network.node[20].content_store 	decision_ratio[20] 	1
scalar tree_4_3_u09_r1_network.node[21].core_layer 	interests[21] 	11952
scalar tree_4_3_u09_r1_network.node[21].core_layer 	data[21] 	10107
scalar tree_4_3_u09_r1_network.node[21].content_store 	p_hit[21] 	0.15428380187416
scalar tree_4_3_u09_r1_network.node[21].content_store 	hits[21] 	1844
scalar tree_4_3_u09_r1_network.node[21].content_store 	misses[21] 	10108
scalar tree_4_3_u09_r1_network.node[21].content_store 	decision_yes[21] 	10107
scalar tree_4_3_u09_r1_network.node[21].content_store 	decision_no[21] 	0
scalar tree_4_3_u09_r1_network.node[21].content_store 	decision_ratio[21] 	1
scalar tree_4_3_u09_r1_network.node[22].core_layer 	interests[22] 	11963
scalar tree_4_3_u09_r1_network.node[22].core_layer 	data[22] 	10041
scalar tree_4_3_u09_r1_network.node[22].content_store 	p_hit[22] 	0.16066204129399
scalar tree_4_3_u09_r1_network.node[22].content_store 	hits[22] 	1922
scalar tree_4_3_u09_r1_network.node[22].content_store 	misses[22] 	10041
scalar tree_4_3_u09_r1_network.node[22].content_store 	decision_yes[22] 	10041
scalar tree_4_3_u09_r1_network.node[22].content_store 	decision_no[22] 	0
scalar tree_4_3_u09_r1_network.node[22].content_store 	decision_ratio[22] 	1
scalar tree_4_3_u09_r1_network.node[23].core_layer 	interests[23] 	11843
scalar tree_4_3_u09_r1_network.node[23].core_layer 	data[23] 	10058
scalar tree_4_3_u09_r1_network.node[23].content_store 	p_hit[23] 	0.15055306932365
scalar tree_4_3_u09_r1_network.node[23].content_store 	hits[23] 	1783
scalar tree_4_3_u09_r1_network.node[23].content_store 	misses[23] 	10060
scalar tree_4_3_u09_r1_network.node[23].content_store 	decision_yes[23] 	10058
scalar tree_4_3_u09_r1_network.node[23].content_store 	decision_no[23] 	0
scalar tree_4_3_u09_r1_network.node[23].content_store 	decision_ratio[23] 	1
scalar tree_4_3_u09_r1_network.node[24].core_layer 	interests[24] 	11856
scalar tree_4_3_u09_r1_network.node[24].core_layer 	data[24] 	10019
scalar tree_4_3_u09_r1_network.node[24].content_store 	p_hit[24] 	0.15494264507422
scalar tree_4_3_u09_r1_network.node[24].content_store 	hits[24] 	1837
scalar tree_4_3_u09_r1_network.node[24].content_store 	misses[24] 	10019
scalar tree_4_3_u09_r1_network.node[24].content_store 	decision_yes[24] 	10019
scalar tree_4_3_u09_r1_network.node[24].content_store 	decision_no[24] 	0
scalar tree_4_3_u09_r1_network.node[24].content_store 	decision_ratio[24] 	1
scalar tree_4_3_u09_r1_network.node[25].core_layer 	interests[25] 	12000
scalar tree_4_3_u09_r1_network.node[25].core_layer 	data[25] 	10160
scalar tree_4_3_u09_r1_network.node[25].content_store 	p_hit[25] 	0.15333333333333
scalar tree_4_3_u09_r1_network.node[25].content_store 	hits[25] 	1840
scalar tree_4_3_u09_r1_network.node[25].content_store 	misses[25] 	10160
scalar tree_4_3_u09_r1_network.node[25].content_store 	decision_yes[25] 	10160
scalar tree_4_3_u09_r1_network.node[25].content_store 	decision_no[25] 	0
scalar tree_4_3_u09_r1_network.node[25].content_store 	decision_ratio[25] 	1
scalar tree_4_3_u09_r1_network.node[26].core_layer 	interests[26] 	12050
scalar tree_4_3_u09_r1_network.node[26].core_layer 	data[26] 	10168
scalar tree_4_3_u09_r1_network.node[26].content_store 	p_hit[26] 	0.15601659751037
scalar tree_4_3_u09_r1_network.node[26].content_store 	hits[26] 	1880
scalar tree_4_3_u09_r1_network.node[26].content_store 	misses[26] 	10170
scalar tree_4_3_u09_r1_network.node[26].content_store 	decision_yes[26] 	10168
scalar tree_4_3_u09_r1_network.node[26].content_store 	decision_no[26] 	0
scalar tree_4_3_u09_r1_network.node[26].content_store 	decision_ratio[26] 	1
scalar tree_4_3_u09_r1_network.node[27].core_layer 	interests[27] 	11989
scalar tree_4_3_u09_r1_network.node[27].core_layer 	data[27] 	10195
scalar tree_4_3_u09_r1_network.node[27].content_store 	p_hit[27] 	0.14955375761114
scalar tree_4_3_u09_r1_network.node[27].content_store 	hits[27] 	1793
scalar tree_4_3_u09_r1_network.node[27].content_store 	misses[27] 	10196
scalar tree_4_3_u09_r1_network.node[27].content_store 	decision_yes[27] 	10195
scalar tree_4_3_u09_r1_network.node[27].content_store 	decision_no[27] 	0
scalar tree_4_3_u09_r1_network.node[27].content_store 	decision_ratio[27] 	1
scalar tree_4_3_u09_r1_network.node[28].core_layer 	interests[28] 	11933
scalar tree_4_3_u09_r1_network.node[28].core_layer 	data[28] 	10020
scalar tree_4_3_u09_r1_network.node[28].content_store 	p_hit[28] 	0.16031174055141
scalar tree_4_3_u09_r1_network.node[28].content_store 	hits[28] 	1913
scalar tree_4_3_u09_r1_network.node[28].content_store 	misses[28] 	10020
scalar tree_4_3_u09_r1_network.node[28].content_store 	decision_yes[28] 	10020
scalar tree_4_3_u09_r1_network.node[28].content_store 	decision_no[28] 	0
scalar tree_4_3_u09_r1_network.node[28].content_store 	decision_ratio[28] 	1
scalar tree_4_3_u09_r1_network.node[29].core_layer 	interests[29] 	11856
scalar tree_4_3_u09_r1_network.node[29].core_layer 	data[29] 	10038
scalar tree_4_3_u09_r1_network.node[29].content_store 	p_hit[29] 	0.1531713900135
scalar tree_4_3_u09_r1_network.node[29].content_store 	hits[29] 	1816
scalar tree_4_3_u09_r1_network.node[29].content_store 	misses[29] 	10040
scalar tree_4_3_u09_r1_network.node[29].content_store 	decision_yes[29] 	10038
scalar tree_4_3_u09_r1_network.node[29].content_store 	decision_no[29] 	0
scalar tree_4_3_u09_r1_network.node[29].content_store 	decision_ratio[29] 	1
scalar tree_4_3_u09_r1_network.node[30].core_layer 	interests[30] 	12154
scalar tree_4_3_u09_r1_network.node[30].core_layer 	data[30] 	10277
scalar tree_4_3_u09_r1_network.node[30].content_store 	p_hit[30] 	0.15435247655093
scalar tree_4_3_u09_r1_network.node[30].content_store 	hits[30] 	1876
scalar tree_4_3_u09_r1_network.node[30].content_store 	misses[30] 	10278
scalar tree_4_3_u09_r1_network.node[30].content_store 	decision_yes[30] 	10277
scalar tree_4_3_u09_r1_network.node[30].content_store 	decision_no[30] 	0
scalar tree_4_3_u09_r1_network.node[30].content_store 	decision_ratio[30] 	1
scalar tree_4_3_u09_r1_network.node[31].core_layer 	interests[31] 	12028
scalar tree_4_3_u09_r1_network.node[31].core_layer 	data[31] 	10236
scalar tree_4_3_u09_r1_network.node[31].content_store 	p_hit[31] 	0.14881942135018
scalar tree_4_3_u09_r1_network.node[31].content_store 	hits[31] 	1790
scalar tree_4_3_u09_r1_network.node[31].content_store 	misses[31] 	10238
scalar tree_4_3_u09_r1_network.node[31].content_store 	decision_yes[31] 	10236
scalar tree_4_3_u09_r1_network.node[31].content_store 	decision_no[31] 	0
scalar tree_4_3_u09_r1_network.node[31].content_store 	decision_ratio[31] 	1
scalar tree_4_3_u09_r1_network.node[32].core_layer 	interests[32] 	11948
scalar tree_4_3_u09_r1_network.node[32].core_layer 	data[32] 	10033
scalar tree_4_3_u09_r1_network.node[32].content_store 	p_hit[32] 	0.16027787077335
scalar tree_4_3_u09_r1_network.node[32].content_store 	hits[32] 	1915
scalar tree_4_3_u09_r1_network.node[32].content_store 	misses[32] 	10033
scalar tree_4_3_u09_r1_network.node[32].content_store 	decision_yes[32] 	10033
scalar tree_4_3_u09_r1_network.node[32].content_store 	decision_no[32] 	0
scalar tree_4_3_u09_r1_network.node[32].content_store 	decision_ratio[32] 	1
scalar tree_4_3_u09_r1_network.node[33].core_layer 	interests[33] 	11956
scalar tree_4_3_u09_r1_network.node[33].core_layer 	data[33] 	10005
scalar tree_4_3_u09_r1_network.node[33].content_store 	p_hit[33] 	0.16318166610907
scalar tree_4_3_u09_r1_network.node[33].content_store 	hits[33] 	1951
scalar tree_4_3_u09_r1_network.node[33].content_store 	misses[33] 	10005
scalar tree_4_3_u09_r1_network.node[33].content_store 	decision_yes[33] 	10005
scalar tree_4_3_u09_r1_network.node[33].content_store 	decision_no[33] 	0
scalar tree_4_3_u09_r1_network.node[33].content_store 	decision_ratio[33] 	1
scalar tree_4_3_u09_r1_network.node[34].core_layer 	interests[34] 	12031
scalar tree_4_3_u09_r1_network.node[34].core_layer 	data[34] 	10116
scalar tree_4_3_u09_r1_network.node[34].content_store 	p_hit[34] 	0.15908902003159
scalar tree_4_3_u09_r1_network.node[34].content_store 	hits[34] 	1914
scalar tree_4_3_u09_r1_network.node[34].content_store 	misses[34] 	10117
scalar tree_4_3_u09_r1_network.node[34].content_store 	decision_yes[34] 	10116
scalar tree_4_3_u09_r1_network.node[34].content_store 	decision_no[34] 	0
scalar tree_4_3_u09_r1_network.node[34].content_store 	decision_ratio[34] 	1
scalar tree_4_3_u09_r1_network.node[35].core_layer 	interests[35] 	12007
scalar tree_4_3_u09_r1_network.node[35].core_layer 	data[35] 	10124
scalar tree_4_3_u09_r1_network.node[35].content_store 	p_hit[35] 	0.15682518530857
scalar tree_4_3_u09_r1_network.node[35].content_store 	hits[35] 	1883
scalar tree_4_3_u09_r1_network.node[35].content_store 	misses[35] 	10124
scalar tree_4_3_u09_r1_network.node[35].content_store 	decision_yes[35] 	10124
scalar tree_4_3_u09_r1_network.node[35].content_store 	decision_no[35] 	0
scalar tree_4_3_u09_r1_network.node[35].content_store 	decision_ratio[35] 	1
scalar tree_4_3_u09_r1_network.node[36].core_layer 	interests[36] 	11954
scalar tree_4_3_u09_r1_network.node[36].core_layer 	data[36] 	10144
scalar tree_4_3_u09_r1_network.node[36].content_store 	p_hit[36] 	0.1512464447047
scalar tree_4_3_u09_r1_network.node[36].content_store 	hits[36] 	1808
scalar tree_4_3_u09_r1_network.node[36].content_store 	misses[36] 	10146
scalar tree_4_3_u09_r1_network.node[36].content_store 	decision_yes[36] 	10144
scalar tree_4_3_u09_r1_network.node[36].content_store 	decision_no[36] 	0
scalar tree_4_3_u09_r1_network.node[36].content_store 	decision_ratio[36] 	1
scalar tree_4_3_u09_r1_network.node[37].core_layer 	interests[37] 	12149
scalar tree_4_3_u09_r1_network.node[37].core_layer 	data[37] 	10309
scalar tree_4_3_u09_r1_network.node[37].content_store 	p_hit[37] 	0.15137048316734
scalar tree_4_3_u09_r1_network.node[37].content_store 	hits[37] 	1839
scalar tree_4_3_u09_r1_network.node[37].content_store 	misses[37] 	10310
scalar tree_4_3_u09_r1_network.node[37].content_store 	decision_yes[37] 	10309
scalar tree_4_3_u09_r1_network.node[37].content_store 	decision_no[37] 	0
scalar tree_4_3_u09_r1_network.node[37].content_store 	decision_ratio[37] 	1
scalar tree_4_3_u09_r1_network.node[38].core_layer 	interests[38] 	12032
scalar tree_4_3_u09_r1_network.node[38].core_layer 	data[38] 	10093
scalar tree_4_3_u09_r1_network.node[38].content_store 	p_hit[38] 	0.1610704787234
scalar tree_4_3_u09_r1_network.node[38].content_store 	hits[38] 	1938
scalar tree_4_3_u09_r1_network.node[38].content_store 	misses[38] 	10094
scalar tree_4_3_u09_r1_network.node[38].content_store 	decision_yes[38] 	10093
scalar tree_4_3_u09_r1_network.node[38].content_store 	decision_no[38] 	0
scalar tree_4_3_u09_r1_network.node[38].content_store 	decision_ratio[38] 	1
scalar tree_4_3_u09_r1_network.node[39].core_layer 	interests[39] 	11966
scalar tree_4_3_u09_r1_network.node[39].core_layer 	data[39] 	10090
scalar tree_4_3_u09_r1_network.node[39].content_store 	p_hit[39] 	0.15661039612235
scalar tree_4_3_u09_r1_network.node[39].content_store 	hits[39] 	1874
scalar tree_4_3_u09_r1_network.node[39].content_store 	misses[39] 	10092
scalar tree_4_3_u09_r1_network.node[39].content_store 	decision_yes[39] 	10090
scalar tree_4_3_u09_r1_network.node[39].content_store 	decision_no[39] 	0
scalar tree_4_3_u09_r1_network.node[39].content_store 	decision_ratio[39] 	1
scalar tree_4_3_u09_r1_network.client[13] 	hdistance[13] 	3.4200780536411
scalar tree_4_3_u09_r1_network.client[13] 	downloads[13] 	12043
scalar tree_4_3_u09_r1_network.client[13] 	avg_time[13] 	0.005129650374
scalar tree_4_3_u09_r1_network.client[14] 	hdistance[14] 	3.3658824521461
scalar tree_4_3_u09_r1_network.client[14] 	downloads[14] 	11859
scalar tree_4_3_u09_r1_network.client[14] 	avg_time[14] 	0.005048586141
scalar tree_4_3_u09_r1_network.client[15] 	hdistance[15] 	3.3980021464542
scalar tree_4_3_u09_r1_network.client[15] 	downloads[15] 	12113
scalar tree_4_3_u09_r1_network.client[15] 	avg_time[15] 	0.005096537257
scalar tree_4_3_u09_r1_network.client[16] 	hdistance[16] 	3.3746822572445
scalar tree_4_3_u09_r1_network.client[16] 	downloads[16] 	11802
scalar tree_4_3_u09_r1_network.client[16] 	avg_time[16] 	0.005061572265
scalar tree_4_3_u09_r1_network.client[17] 	hdistance[17] 	3.370835426084
scalar tree_4_3_u09_r1_network.client[17] 	downloads[17] 	11946
scalar tree_4_3_u09_r1_network.client[17] 	avg_time[17] 	0.005055672915
scalar tree_4_3_u09_r1_network.client[18] 	hdistance[18] 	3.3769970723547
scalar tree_4_3_u09_r1_network.client[18] 	downloads[18] 	11955
scalar tree_4_3_u09_r1_network.client[18] 	avg_time[18] 	0.005064599248
scalar tree_4_3_u09_r1_network.client[19] 	hdistance[19] 	3.3970502458129
scalar tree_4_3_u09_r1_network.client[19] 	downloads[19] 	12001
scalar tree_4_3_u09_r1_network.client[19] 	avg_time[19] 	0.005095239356
scalar tree_4_3_u09_r1_network.client[20] 	hdistance[20] 	3.3622948101476
scalar tree_4_3_u09_r1_network.client[20] 	downloads[20] 	12062
scalar tree_4_3_u09_r1_network.client[20] 	avg_time[20] 	0.005042889416
scalar tree_4_3_u09_r1_network.client[21] 	hdistance[21] 	3.382813153711
scalar tree_4_3_u09_r1_network.client[21] 	downloads[21] 	11951
scalar tree_4_3_u09_r1_network.client[21] 	avg_time[21] 	0.005074220742
scalar tree_4_3_u09_r1_network.client[22] 	hdistance[22] 	3.357351834824
scalar tree_4_3_u09_r1_network.client[22] 	downloads[22] 	11963
scalar tree_4_3_u09_r1_network.client[22] 	avg_time[22] 	0.005035585385
scalar tree_4_3_u09_r1_network.client[23] 	hdistance[23] 	3.3976860062495
scalar tree_4_3_u09_r1_network.client[23] 	downloads[23] 	11841
scalar tree_4_3_u09_r1_network.client[23] 	avg_time[23] 	0.005094966255
scalar tree_4_3_u09_r1_network.client[24] 	hdistance[24] 	3.3802294197031
scalar tree_4_3_u09_r1_network.client[24] 	downloads[24] 	11856
scalar tree_4_3_u09_r1_network.client[24] 	avg_time[24] 	0.00507005059
scalar tree_4_3_u09_r1_network.client[25] 	hdistance[25] 	3.3866666666667
scalar tree_4_3_u09_r1_network.client[25] 	downloads[25] 	12000
scalar tree_4_3_u09_r1_network.client[25] 	avg_time[25] 	0.005079073286
scalar tree_4_3_u09_r1_network.client[26] 	hdistance[26] 	3.3758300132802
scalar tree_4_3_u09_r1_network.client[26] 	downloads[26] 	12048
scalar tree_4_3_u09_r1_network.client[26] 	avg_time[26] 	0.005063759658
scalar tree_4_3_u09_r1_network.client[27] 	hdistance[27] 	3.4017350684017
scalar tree_4_3_u09_r1_network.client[27] 	downloads[27] 	11988
scalar tree_4_3_u09_r1_network.client[27] 	avg_time[27] 	0.00510242177
scalar tree_4_3_u09_r1_network.client[28] 	hdistance[28] 	3.3587530377943
scalar tree_4_3_u09_r1_network.client[28] 	downloads[28] 	11933
scalar tree_4_3_u09_r1_network.client[28] 	avg_time[28] 	0.005037599014
scalar tree_4_3_u09_r1_network.client[29] 	hdistance[29] 	3.3872110679939
scalar tree_4_3_u09_r1_network.client[29] 	downloads[29] 	11854
scalar tree_4_3_u09_r1_network.client[29] 	avg_time[29] 	0.005080553497
scalar tree_4_3_u09_r1_network.client[30] 	hdistance[30] 	3.3825392907101
scalar tree_4_3_u09_r1_network.client[30] 	downloads[30] 	12153
scalar tree_4_3_u09_r1_network.client[30] 	avg_time[30] 	0.005073629261
scalar tree_4_3_u09_r1_network.client[31] 	hdistance[31] 	3.4046233161483
scalar tree_4_3_u09_r1_network.client[31] 	downloads[31] 	12026
scalar tree_4_3_u09_r1_network.client[31] 	avg_time[31] 	0.005106552794
scalar tree_4_3_u09_r1_network.client[32] 	hdistance[32] 	3.3588885169066
scalar tree_4_3_u09_r1_network.client[32] 	downloads[32] 	11948
scalar tree_4_3_u09_r1_network.client[32] 	avg_time[32] 	0.005038168101
scalar tree_4_3_u09_r1_network.client[33] 	hdistance[33] 	3.3472733355637
scalar tree_4_3_u09_r1_network.client[33] 	downloads[33] 	11956
scalar tree_4_3_u09_r1_network.client[33] 	avg_time[33] 	0.005020725747
scalar tree_4_3_u09_r1_network.client[34] 	hdistance[34] 	3.3635910224439
scalar tree_4_3_u09_r1_network.client[34] 	downloads[34] 	12030
scalar tree_4_3_u09_r1_network.client[34] 	avg_time[34] 	0.005044876643
scalar tree_4_3_u09_r1_network.client[35] 	hdistance[35] 	3.3726992587657
scalar tree_4_3_u09_r1_network.client[35] 	downloads[35] 	12007
scalar tree_4_3_u09_r1_network.client[35] 	avg_time[35] 	0.005058926844
scalar tree_4_3_u09_r1_network.client[36] 	hdistance[36] 	3.3949129852744
scalar tree_4_3_u09_r1_network.client[36] 	downloads[36] 	11952
scalar tree_4_3_u09_r1_network.client[36] 	avg_time[36] 	0.005091987149
scalar tree_4_3_u09_r1_network.client[37] 	hdistance[37] 	3.3944682252223
scalar tree_4_3_u09_r1_network.client[37] 	downloads[37] 	12148
scalar tree_4_3_u09_r1_network.client[37] 	avg_time[37] 	0.005091737572
scalar tree_4_3_u09_r1_network.client[38] 	hdistance[38] 	3.355664533289
scalar tree_4_3_u09_r1_network.client[38] 	downloads[38] 	12031
scalar tree_4_3_u09_r1_network.client[38] 	avg_time[38] 	0.005033116037
scalar tree_4_3_u09_r1_network.client[39] 	hdistance[39] 	3.3734536944166
scalar tree_4_3_u09_r1_network.client[39] 	downloads[39] 	11964
scalar tree_4_3_u09_r1_network.client[39] 	avg_time[39] 	0.005059602103
