version 2
run General-4-20160830-15:22:58-8983
attr a 0.9
attr branch 3
attr cd lcd
attr configname General
attr cr lru
attr datetime 20160830-15:22:58
attr experiment General
attr fsize 1
attr inifile hw5115/scenario_E/omnetp.ini
attr iterationvars "$name=tree, $levels=5, $branch=3, $un=10, $rep=1, $cd=lcd, $cr=lru, $fsize=1, $a=0.9, $sl=nrr, $ttl=1000, $variance=0.05"
attr iterationvars2 "$name=tree, $levels=5, $branch=3, $un=10, $rep=1, $cd=lcd, $cr=lru, $fsize=1, $a=0.9, $sl=nrr, $ttl=1000, $variance=0.05, $repetition=0"
attr levels 5
attr measurement "$name=tree, $levels=5, $branch=3, $un=10, $rep=1, $cd=lcd, $cr=lru, $fsize=1, $a=0.9, $sl=nrr, $ttl=1000, $variance=0.05"
attr name tree
attr network networks.${name}_${levels}_${branch}_u${un}_r${rep}_network
attr processid 8983
attr rep 1
attr repetition 0
attr replication #0
attr resultdir results
attr runnumber 4
attr seedset 1
attr sl nrr
attr ttl 1000
attr un 10
attr variance 0.05

scalar . 	a 	0.9
scalar . 	branch 	3
scalar . 	fsize 	1
scalar . 	levels 	5
scalar . 	rep 	1
scalar . 	ttl 	1000
scalar . 	un 	10
scalar . 	variance 	0.05
scalar tree_5_3_u10_r1_network.content_distribution 	repo-0 	0
scalar tree_5_3_u10_r1_network.content_distribution 	client-0 	120
scalar tree_5_3_u10_r1_network.content_distribution 	client-1 	119
scalar tree_5_3_u10_r1_network.content_distribution 	client-2 	118
scalar tree_5_3_u10_r1_network.content_distribution 	client-3 	117
scalar tree_5_3_u10_r1_network.content_distribution 	client-4 	116
scalar tree_5_3_u10_r1_network.content_distribution 	client-5 	115
scalar tree_5_3_u10_r1_network.content_distribution 	client-6 	114
scalar tree_5_3_u10_r1_network.content_distribution 	client-7 	113
scalar tree_5_3_u10_r1_network.content_distribution 	client-8 	112
scalar tree_5_3_u10_r1_network.content_distribution 	client-9 	111
scalar tree_5_3_u10_r1_network.content_distribution 	client-10 	110
scalar tree_5_3_u10_r1_network.content_distribution 	client-11 	109
scalar tree_5_3_u10_r1_network.content_distribution 	client-12 	108
scalar tree_5_3_u10_r1_network.content_distribution 	client-13 	107
scalar tree_5_3_u10_r1_network.content_distribution 	client-14 	106
scalar tree_5_3_u10_r1_network.content_distribution 	client-15 	105
scalar tree_5_3_u10_r1_network.content_distribution 	client-16 	104
scalar tree_5_3_u10_r1_network.content_distribution 	client-17 	103
scalar tree_5_3_u10_r1_network.content_distribution 	client-18 	102
scalar tree_5_3_u10_r1_network.content_distribution 	client-19 	101
scalar tree_5_3_u10_r1_network.content_distribution 	client-20 	100
scalar tree_5_3_u10_r1_network.content_distribution 	client-21 	99
scalar tree_5_3_u10_r1_network.content_distribution 	client-22 	98
scalar tree_5_3_u10_r1_network.content_distribution 	client-23 	97
scalar tree_5_3_u10_r1_network.content_distribution 	client-24 	96
scalar tree_5_3_u10_r1_network.content_distribution 	client-25 	95
scalar tree_5_3_u10_r1_network.content_distribution 	client-26 	94
scalar tree_5_3_u10_r1_network.content_distribution 	client-27 	93
scalar tree_5_3_u10_r1_network.content_distribution 	client-28 	92
scalar tree_5_3_u10_r1_network.content_distribution 	client-29 	91
scalar tree_5_3_u10_r1_network.content_distribution 	client-30 	90
scalar tree_5_3_u10_r1_network.content_distribution 	client-31 	89
scalar tree_5_3_u10_r1_network.content_distribution 	client-32 	88
scalar tree_5_3_u10_r1_network.content_distribution 	client-33 	87
scalar tree_5_3_u10_r1_network.content_distribution 	client-34 	86
scalar tree_5_3_u10_r1_network.content_distribution 	client-35 	85
scalar tree_5_3_u10_r1_network.content_distribution 	client-36 	84
scalar tree_5_3_u10_r1_network.content_distribution 	client-37 	83
scalar tree_5_3_u10_r1_network.content_distribution 	client-38 	82
scalar tree_5_3_u10_r1_network.content_distribution 	client-39 	81
scalar tree_5_3_u10_r1_network.content_distribution 	client-40 	80
scalar tree_5_3_u10_r1_network.content_distribution 	client-41 	79
scalar tree_5_3_u10_r1_network.content_distribution 	client-42 	78
scalar tree_5_3_u10_r1_network.content_distribution 	client-43 	77
scalar tree_5_3_u10_r1_network.content_distribution 	client-44 	76
scalar tree_5_3_u10_r1_network.content_distribution 	client-45 	75
scalar tree_5_3_u10_r1_network.content_distribution 	client-46 	74
scalar tree_5_3_u10_r1_network.content_distribution 	client-47 	73
scalar tree_5_3_u10_r1_network.content_distribution 	client-48 	72
scalar tree_5_3_u10_r1_network.content_distribution 	client-49 	71
scalar tree_5_3_u10_r1_network.content_distribution 	client-50 	70
scalar tree_5_3_u10_r1_network.content_distribution 	client-51 	69
scalar tree_5_3_u10_r1_network.content_distribution 	client-52 	68
scalar tree_5_3_u10_r1_network.content_distribution 	client-53 	67
scalar tree_5_3_u10_r1_network.content_distribution 	client-54 	66
scalar tree_5_3_u10_r1_network.content_distribution 	client-55 	65
scalar tree_5_3_u10_r1_network.content_distribution 	client-56 	64
scalar tree_5_3_u10_r1_network.content_distribution 	client-57 	63
scalar tree_5_3_u10_r1_network.content_distribution 	client-58 	62
scalar tree_5_3_u10_r1_network.content_distribution 	client-59 	61
scalar tree_5_3_u10_r1_network.content_distribution 	client-60 	60
scalar tree_5_3_u10_r1_network.content_distribution 	client-61 	59
scalar tree_5_3_u10_r1_network.content_distribution 	client-62 	58
scalar tree_5_3_u10_r1_network.content_distribution 	client-63 	57
scalar tree_5_3_u10_r1_network.content_distribution 	client-64 	56
scalar tree_5_3_u10_r1_network.content_distribution 	client-65 	55
scalar tree_5_3_u10_r1_network.content_distribution 	client-66 	54
scalar tree_5_3_u10_r1_network.content_distribution 	client-67 	53
scalar tree_5_3_u10_r1_network.content_distribution 	client-68 	52
scalar tree_5_3_u10_r1_network.content_distribution 	client-69 	51
scalar tree_5_3_u10_r1_network.content_distribution 	client-70 	50
scalar tree_5_3_u10_r1_network.content_distribution 	client-71 	49
scalar tree_5_3_u10_r1_network.content_distribution 	client-72 	48
scalar tree_5_3_u10_r1_network.content_distribution 	client-73 	47
scalar tree_5_3_u10_r1_network.content_distribution 	client-74 	46
scalar tree_5_3_u10_r1_network.content_distribution 	client-75 	45
scalar tree_5_3_u10_r1_network.content_distribution 	client-76 	44
scalar tree_5_3_u10_r1_network.content_distribution 	client-77 	43
scalar tree_5_3_u10_r1_network.content_distribution 	client-78 	42
scalar tree_5_3_u10_r1_network.content_distribution 	client-79 	41
scalar tree_5_3_u10_r1_network.content_distribution 	client-80 	40
scalar tree_5_3_u10_r1_network.content_distribution 	repo-0_card 	100000
scalar tree_5_3_u10_r1_network.content_distribution 	repo-0_price 	0
scalar tree_5_3_u10_r1_network.statistics 	stabilization_time 	793.1
scalar tree_5_3_u10_r1_network.statistics 	p_hit 	0.23385637320416
scalar tree_5_3_u10_r1_network.statistics 	interests 	29242.165289256
scalar tree_5_3_u10_r1_network.statistics 	data 	21210.636363636
scalar tree_5_3_u10_r1_network.statistics 	hdistance 	3.2115444485244
scalar tree_5_3_u10_r1_network.statistics 	avg_time 	0.005281939961
scalar tree_5_3_u10_r1_network.statistics 	downloads 	971791
scalar tree_5_3_u10_r1_network.statistics 	total_cost 	0
scalar tree_5_3_u10_r1_network.statistics 	total_replicas 	100000
scalar tree_5_3_u10_r1_network.statistics 	inner_hit 	0.4295069618879
scalar tree_5_3_u10_r1_network.node[0].core_layer 	interests[0] 	556982
scalar tree_5_3_u10_r1_network.node[0].core_layer 	repo_load[0] 	554400
scalar tree_5_3_u10_r1_network.node[0].core_layer 	data[0] 	0
scalar tree_5_3_u10_r1_network.node[0].core_layer 	repo_int[0] 	554400
scalar tree_5_3_u10_r1_network.node[0].content_store 	p_hit[0] 	0.0046356973833984
scalar tree_5_3_u10_r1_network.node[0].content_store 	hits[0] 	2582
scalar tree_5_3_u10_r1_network.node[0].content_store 	misses[0] 	554400
scalar tree_5_3_u10_r1_network.node[0].content_store 	decision_yes[0] 	554400
scalar tree_5_3_u10_r1_network.node[0].content_store 	decision_no[0] 	0
scalar tree_5_3_u10_r1_network.node[0].content_store 	decision_ratio[0] 	1
scalar tree_5_3_u10_r1_network.node[1].core_layer 	interests[1] 	456736
scalar tree_5_3_u10_r1_network.node[1].core_layer 	data[1] 	451885
scalar tree_5_3_u10_r1_network.node[1].content_store 	p_hit[1] 	0.010548763399425
scalar tree_5_3_u10_r1_network.node[1].content_store 	hits[1] 	4818
scalar tree_5_3_u10_r1_network.node[1].content_store 	misses[1] 	451918
scalar tree_5_3_u10_r1_network.node[1].content_store 	decision_yes[1] 	6050
scalar tree_5_3_u10_r1_network.node[1].content_store 	decision_no[1] 	445833
scalar tree_5_3_u10_r1_network.node[1].content_store 	decision_ratio[1] 	0.013388421339152
scalar tree_5_3_u10_r1_network.node[2].core_layer 	interests[2] 	110858
scalar tree_5_3_u10_r1_network.node[2].core_layer 	data[2] 	106434
scalar tree_5_3_u10_r1_network.node[2].content_store 	p_hit[2] 	0.039906907936279
scalar tree_5_3_u10_r1_network.node[2].content_store 	hits[2] 	4424
scalar tree_5_3_u10_r1_network.node[2].content_store 	misses[2] 	106434
scalar tree_5_3_u10_r1_network.node[2].content_store 	decision_yes[2] 	3062
scalar tree_5_3_u10_r1_network.node[2].content_store 	decision_no[2] 	103370
scalar tree_5_3_u10_r1_network.node[2].content_store 	decision_ratio[2] 	0.028769542994588
scalar tree_5_3_u10_r1_network.node[3].core_layer 	interests[3] 	13524
scalar tree_5_3_u10_r1_network.node[3].core_layer 	data[3] 	9215
scalar tree_5_3_u10_r1_network.node[3].content_store 	p_hit[3] 	0.31861875184857
scalar tree_5_3_u10_r1_network.node[3].content_store 	hits[3] 	4309
scalar tree_5_3_u10_r1_network.node[3].content_store 	misses[3] 	9215
scalar tree_5_3_u10_r1_network.node[3].content_store 	decision_yes[3] 	1889
scalar tree_5_3_u10_r1_network.node[3].content_store 	decision_no[3] 	7326
scalar tree_5_3_u10_r1_network.node[3].content_store 	decision_ratio[3] 	0.20499186109604
scalar tree_5_3_u10_r1_network.node[4].core_layer 	interests[4] 	139995
scalar tree_5_3_u10_r1_network.node[4].core_layer 	data[4] 	136332
scalar tree_5_3_u10_r1_network.node[4].content_store 	p_hit[4] 	0.026122361512911
scalar tree_5_3_u10_r1_network.node[4].content_store 	hits[4] 	3657
scalar tree_5_3_u10_r1_network.node[4].content_store 	misses[4] 	136338
scalar tree_5_3_u10_r1_network.node[4].content_store 	decision_yes[4] 	3968
scalar tree_5_3_u10_r1_network.node[4].content_store 	decision_no[4] 	132362
scalar tree_5_3_u10_r1_network.node[4].content_store 	decision_ratio[4] 	0.029105846108707
scalar tree_5_3_u10_r1_network.node[5].core_layer 	interests[5] 	58058
scalar tree_5_3_u10_r1_network.node[5].core_layer 	data[5] 	53938
scalar tree_5_3_u10_r1_network.node[5].content_store 	p_hit[5] 	0.070911846773916
scalar tree_5_3_u10_r1_network.node[5].content_store 	hits[5] 	4117
scalar tree_5_3_u10_r1_network.node[5].content_store 	misses[5] 	53941
scalar tree_5_3_u10_r1_network.node[5].content_store 	decision_yes[5] 	4362
scalar tree_5_3_u10_r1_network.node[5].content_store 	decision_no[5] 	49576
scalar tree_5_3_u10_r1_network.node[5].content_store 	decision_ratio[5] 	0.08087062924098
scalar tree_5_3_u10_r1_network.node[6].core_layer 	interests[6] 	15174
scalar tree_5_3_u10_r1_network.node[6].core_layer 	data[6] 	11150
scalar tree_5_3_u10_r1_network.node[6].content_store 	p_hit[6] 	0.26519045736128
scalar tree_5_3_u10_r1_network.node[6].content_store 	hits[6] 	4024
scalar tree_5_3_u10_r1_network.node[6].content_store 	misses[6] 	11150
scalar tree_5_3_u10_r1_network.node[6].content_store 	decision_yes[6] 	3176
scalar tree_5_3_u10_r1_network.node[6].content_store 	decision_no[6] 	7974
scalar tree_5_3_u10_r1_network.node[6].content_store 	decision_ratio[6] 	0.28484304932735
scalar tree_5_3_u10_r1_network.node[7].core_layer 	interests[7] 	143129
scalar tree_5_3_u10_r1_network.node[7].core_layer 	data[7] 	138776
scalar tree_5_3_u10_r1_network.node[7].content_store 	p_hit[7] 	0.030399150416757
scalar tree_5_3_u10_r1_network.node[7].content_store 	hits[7] 	4351
scalar tree_5_3_u10_r1_network.node[7].content_store 	misses[7] 	138778
scalar tree_5_3_u10_r1_network.node[7].content_store 	decision_yes[7] 	5622
scalar tree_5_3_u10_r1_network.node[7].content_store 	decision_no[7] 	133153
scalar tree_5_3_u10_r1_network.node[7].content_store 	decision_ratio[7] 	0.040511619528013
scalar tree_5_3_u10_r1_network.node[8].core_layer 	interests[8] 	54918
scalar tree_5_3_u10_r1_network.node[8].core_layer 	data[8] 	51554
scalar tree_5_3_u10_r1_network.node[8].content_store 	p_hit[8] 	0.061254961943261
scalar tree_5_3_u10_r1_network.node[8].content_store 	hits[8] 	3364
scalar tree_5_3_u10_r1_network.node[8].content_store 	misses[8] 	51554
scalar tree_5_3_u10_r1_network.node[8].content_store 	decision_yes[8] 	2356
scalar tree_5_3_u10_r1_network.node[8].content_store 	decision_no[8] 	49198
scalar tree_5_3_u10_r1_network.node[8].content_store 	decision_ratio[8] 	0.045699654730962
scalar tree_5_3_u10_r1_network.node[9].core_layer 	interests[9] 	14970
scalar tree_5_3_u10_r1_network.node[9].core_layer 	data[9] 	11150
scalar tree_5_3_u10_r1_network.node[9].content_store 	p_hit[9] 	0.25517702070808
scalar tree_5_3_u10_r1_network.node[9].content_store 	hits[9] 	3820
scalar tree_5_3_u10_r1_network.node[9].content_store 	misses[9] 	11150
scalar tree_5_3_u10_r1_network.node[9].content_store 	decision_yes[9] 	3158
scalar tree_5_3_u10_r1_network.node[9].content_store 	decision_no[9] 	7992
scalar tree_5_3_u10_r1_network.node[9].content_store 	decision_ratio[9] 	0.28322869955157
scalar tree_5_3_u10_r1_network.node[10].core_layer 	interests[10] 	143272
scalar tree_5_3_u10_r1_network.node[10].core_layer 	data[10] 	139060
scalar tree_5_3_u10_r1_network.node[10].content_store 	p_hit[10] 	0.029356748003797
scalar tree_5_3_u10_r1_network.node[10].content_store 	hits[10] 	4206
scalar tree_5_3_u10_r1_network.node[10].content_store 	misses[10] 	139066
scalar tree_5_3_u10_r1_network.node[10].content_store 	decision_yes[10] 	5522
scalar tree_5_3_u10_r1_network.node[10].content_store 	decision_no[10] 	133536
scalar tree_5_3_u10_r1_network.node[10].content_store 	decision_ratio[10] 	0.039710049044284
scalar tree_5_3_u10_r1_network.node[11].core_layer 	interests[11] 	58007
scalar tree_5_3_u10_r1_network.node[11].core_layer 	data[11] 	54137
scalar tree_5_3_u10_r1_network.node[11].content_store 	p_hit[11] 	0.066698846690917
scalar tree_5_3_u10_r1_network.node[11].content_store 	hits[11] 	3869
scalar tree_5_3_u10_r1_network.node[11].content_store 	misses[11] 	54138
scalar tree_5_3_u10_r1_network.node[11].content_store 	decision_yes[11] 	4032
scalar tree_5_3_u10_r1_network.node[11].content_store 	decision_no[11] 	50105
scalar tree_5_3_u10_r1_network.node[11].content_store 	decision_ratio[11] 	0.074477713947947
scalar tree_5_3_u10_r1_network.node[12].core_layer 	interests[12] 	12370
scalar tree_5_3_u10_r1_network.node[12].core_layer 	data[12] 	9139
scalar tree_5_3_u10_r1_network.node[12].content_store 	p_hit[12] 	0.26119644300728
scalar tree_5_3_u10_r1_network.node[12].content_store 	hits[12] 	3231
scalar tree_5_3_u10_r1_network.node[12].content_store 	misses[12] 	9139
scalar tree_5_3_u10_r1_network.node[12].content_store 	decision_yes[12] 	1589
scalar tree_5_3_u10_r1_network.node[12].content_store 	decision_no[12] 	7550
scalar tree_5_3_u10_r1_network.node[12].content_store 	decision_ratio[12] 	0.17387022650181
scalar tree_5_3_u10_r1_network.node[13].core_layer 	interests[13] 	41113
scalar tree_5_3_u10_r1_network.node[13].core_layer 	data[13] 	38799
scalar tree_5_3_u10_r1_network.node[13].content_store 	p_hit[13] 	0.056259577262666
scalar tree_5_3_u10_r1_network.node[13].content_store 	hits[13] 	2313
scalar tree_5_3_u10_r1_network.node[13].content_store 	misses[13] 	38800
scalar tree_5_3_u10_r1_network.node[13].content_store 	decision_yes[13] 	2290
scalar tree_5_3_u10_r1_network.node[13].content_store 	decision_no[13] 	36508
scalar tree_5_3_u10_r1_network.node[13].content_store 	decision_ratio[13] 	0.059023661013454
scalar tree_5_3_u10_r1_network.node[14].core_layer 	interests[14] 	28018
scalar tree_5_3_u10_r1_network.node[14].core_layer 	data[14] 	25162
scalar tree_5_3_u10_r1_network.node[14].content_store 	p_hit[14] 	0.10193447069741
scalar tree_5_3_u10_r1_network.node[14].content_store 	hits[14] 	2856
scalar tree_5_3_u10_r1_network.node[14].content_store 	misses[14] 	25162
scalar tree_5_3_u10_r1_network.node[14].content_store 	decision_yes[14] 	2982
scalar tree_5_3_u10_r1_network.node[14].content_store 	decision_no[14] 	22179
scalar tree_5_3_u10_r1_network.node[14].content_store 	decision_ratio[14] 	0.11851675211637
scalar tree_5_3_u10_r1_network.node[15].core_layer 	interests[15] 	13362
scalar tree_5_3_u10_r1_network.node[15].core_layer 	data[15] 	10635
scalar tree_5_3_u10_r1_network.node[15].content_store 	p_hit[15] 	0.20408621463853
scalar tree_5_3_u10_r1_network.node[15].content_store 	hits[15] 	2727
scalar tree_5_3_u10_r1_network.node[15].content_store 	misses[15] 	10635
scalar tree_5_3_u10_r1_network.node[15].content_store 	decision_yes[15] 	2543
scalar tree_5_3_u10_r1_network.node[15].content_store 	decision_no[15] 	8092
scalar tree_5_3_u10_r1_network.node[15].content_store 	decision_ratio[15] 	0.23911612599906
scalar tree_5_3_u10_r1_network.node[16].core_layer 	interests[16] 	42908
scalar tree_5_3_u10_r1_network.node[16].core_layer 	data[16] 	40089
scalar tree_5_3_u10_r1_network.node[16].content_store 	p_hit[16] 	0.065582175818029
scalar tree_5_3_u10_r1_network.node[16].content_store 	hits[16] 	2814
scalar tree_5_3_u10_r1_network.node[16].content_store 	misses[16] 	40094
scalar tree_5_3_u10_r1_network.node[16].content_store 	decision_yes[16] 	3459
scalar tree_5_3_u10_r1_network.node[16].content_store 	decision_no[16] 	36630
scalar tree_5_3_u10_r1_network.node[16].content_store 	decision_ratio[16] 	0.086283020279877
scalar tree_5_3_u10_r1_network.node[17].core_layer 	interests[17] 	26363
scalar tree_5_3_u10_r1_network.node[17].core_layer 	data[17] 	24103
scalar tree_5_3_u10_r1_network.node[17].content_store 	p_hit[17] 	0.085726207184311
scalar tree_5_3_u10_r1_network.node[17].content_store 	hits[17] 	2260
scalar tree_5_3_u10_r1_network.node[17].content_store 	misses[17] 	24103
scalar tree_5_3_u10_r1_network.node[17].content_store 	decision_yes[17] 	1913
scalar tree_5_3_u10_r1_network.node[17].content_store 	decision_no[17] 	22190
scalar tree_5_3_u10_r1_network.node[17].content_store 	decision_ratio[17] 	0.079367713562627
scalar tree_5_3_u10_r1_network.node[18].core_layer 	interests[18] 	13428
scalar tree_5_3_u10_r1_network.node[18].core_layer 	data[18] 	10689
scalar tree_5_3_u10_r1_network.node[18].content_store 	p_hit[18] 	0.20390229371463
scalar tree_5_3_u10_r1_network.node[18].content_store 	hits[18] 	2738
scalar tree_5_3_u10_r1_network.node[18].content_store 	misses[18] 	10690
scalar tree_5_3_u10_r1_network.node[18].content_store 	decision_yes[18] 	2598
scalar tree_5_3_u10_r1_network.node[18].content_store 	decision_no[18] 	8091
scalar tree_5_3_u10_r1_network.node[18].content_store 	decision_ratio[18] 	0.24305360651137
scalar tree_5_3_u10_r1_network.node[19].core_layer 	interests[19] 	43130
scalar tree_5_3_u10_r1_network.node[19].core_layer 	data[19] 	40316
scalar tree_5_3_u10_r1_network.node[19].content_store 	p_hit[19] 	0.065244609320658
scalar tree_5_3_u10_r1_network.node[19].content_store 	hits[19] 	2814
scalar tree_5_3_u10_r1_network.node[19].content_store 	misses[19] 	40316
scalar tree_5_3_u10_r1_network.node[19].content_store 	decision_yes[19] 	3605
scalar tree_5_3_u10_r1_network.node[19].content_store 	decision_no[19] 	36711
scalar tree_5_3_u10_r1_network.node[19].content_store 	decision_ratio[19] 	0.089418593114396
scalar tree_5_3_u10_r1_network.node[20].core_layer 	interests[20] 	28262
scalar tree_5_3_u10_r1_network.node[20].core_layer 	data[20] 	25493
scalar tree_5_3_u10_r1_network.node[20].content_store 	p_hit[20] 	0.097940697756705
scalar tree_5_3_u10_r1_network.node[20].content_store 	hits[20] 	2768
scalar tree_5_3_u10_r1_network.node[20].content_store 	misses[20] 	25494
scalar tree_5_3_u10_r1_network.node[20].content_store 	decision_yes[20] 	3017
scalar tree_5_3_u10_r1_network.node[20].content_store 	decision_no[20] 	22476
scalar tree_5_3_u10_r1_network.node[20].content_store 	decision_ratio[20] 	0.11834621268584
scalar tree_5_3_u10_r1_network.node[21].core_layer 	interests[21] 	11563
scalar tree_5_3_u10_r1_network.node[21].core_layer 	data[21] 	9320
scalar tree_5_3_u10_r1_network.node[21].content_store 	p_hit[21] 	0.19398080083023
scalar tree_5_3_u10_r1_network.node[21].content_store 	hits[21] 	2243
scalar tree_5_3_u10_r1_network.node[21].content_store 	misses[21] 	9320
scalar tree_5_3_u10_r1_network.node[21].content_store 	decision_yes[21] 	1518
scalar tree_5_3_u10_r1_network.node[21].content_store 	decision_no[21] 	7802
scalar tree_5_3_u10_r1_network.node[21].content_store 	decision_ratio[21] 	0.16287553648069
scalar tree_5_3_u10_r1_network.node[22].core_layer 	interests[22] 	41558
scalar tree_5_3_u10_r1_network.node[22].core_layer 	data[22] 	39219
scalar tree_5_3_u10_r1_network.node[22].content_store 	p_hit[22] 	0.056282785504596
scalar tree_5_3_u10_r1_network.node[22].content_store 	hits[22] 	2339
scalar tree_5_3_u10_r1_network.node[22].content_store 	misses[22] 	39219
scalar tree_5_3_u10_r1_network.node[22].content_store 	decision_yes[22] 	2426
scalar tree_5_3_u10_r1_network.node[22].content_store 	decision_no[22] 	36793
scalar tree_5_3_u10_r1_network.node[22].content_store 	decision_ratio[22] 	0.06185777301818
scalar tree_5_3_u10_r1_network.node[23].core_layer 	interests[23] 	27890
scalar tree_5_3_u10_r1_network.node[23].core_layer 	data[23] 	25116
scalar tree_5_3_u10_r1_network.node[23].content_store 	p_hit[23] 	0.099390462531373
scalar tree_5_3_u10_r1_network.node[23].content_store 	hits[23] 	2772
scalar tree_5_3_u10_r1_network.node[23].content_store 	misses[23] 	25118
scalar tree_5_3_u10_r1_network.node[23].content_store 	decision_yes[23] 	3123
scalar tree_5_3_u10_r1_network.node[23].content_store 	decision_no[23] 	21993
scalar tree_5_3_u10_r1_network.node[23].content_store 	decision_ratio[23] 	0.12434304825609
scalar tree_5_3_u10_r1_network.node[24].core_layer 	interests[24] 	13567
scalar tree_5_3_u10_r1_network.node[24].core_layer 	data[24] 	10820
scalar tree_5_3_u10_r1_network.node[24].content_store 	p_hit[24] 	0.20247659762659
scalar tree_5_3_u10_r1_network.node[24].content_store 	hits[24] 	2747
scalar tree_5_3_u10_r1_network.node[24].content_store 	misses[24] 	10820
scalar tree_5_3_u10_r1_network.node[24].content_store 	decision_yes[24] 	2544
scalar tree_5_3_u10_r1_network.node[24].content_store 	decision_no[24] 	8276
scalar tree_5_3_u10_r1_network.node[24].content_store 	decision_ratio[24] 	0.23512014787431
scalar tree_5_3_u10_r1_network.node[25].core_layer 	interests[25] 	42727
scalar tree_5_3_u10_r1_network.node[25].core_layer 	data[25] 	39959
scalar tree_5_3_u10_r1_network.node[25].content_store 	p_hit[25] 	0.064806796639127
scalar tree_5_3_u10_r1_network.node[25].content_store 	hits[25] 	2769
scalar tree_5_3_u10_r1_network.node[25].content_store 	misses[25] 	39958
scalar tree_5_3_u10_r1_network.node[25].content_store 	decision_yes[25] 	3313
scalar tree_5_3_u10_r1_network.node[25].content_store 	decision_no[25] 	36646
scalar tree_5_3_u10_r1_network.node[25].content_store 	decision_ratio[25] 	0.082909982732301
scalar tree_5_3_u10_r1_network.node[26].core_layer 	interests[26] 	26071
scalar tree_5_3_u10_r1_network.node[26].core_layer 	data[26] 	23842
scalar tree_5_3_u10_r1_network.node[26].content_store 	p_hit[26] 	0.085497295845959
scalar tree_5_3_u10_r1_network.node[26].content_store 	hits[26] 	2229
scalar tree_5_3_u10_r1_network.node[26].content_store 	misses[26] 	23842
scalar tree_5_3_u10_r1_network.node[26].content_store 	decision_yes[26] 	1836
scalar tree_5_3_u10_r1_network.node[26].content_store 	decision_no[26] 	22006
scalar tree_5_3_u10_r1_network.node[26].content_store 	decision_ratio[26] 	0.077006962503146
scalar tree_5_3_u10_r1_network.node[27].core_layer 	interests[27] 	13420
scalar tree_5_3_u10_r1_network.node[27].core_layer 	data[27] 	10739
scalar tree_5_3_u10_r1_network.node[27].content_store 	p_hit[27] 	0.19977645305514
scalar tree_5_3_u10_r1_network.node[27].content_store 	hits[27] 	2681
scalar tree_5_3_u10_r1_network.node[27].content_store 	misses[27] 	10739
scalar tree_5_3_u10_r1_network.node[27].content_store 	decision_yes[27] 	2539
scalar tree_5_3_u10_r1_network.node[27].content_store 	decision_no[27] 	8200
scalar tree_5_3_u10_r1_network.node[27].content_store 	decision_ratio[27] 	0.23642797280939
scalar tree_5_3_u10_r1_network.node[28].core_layer 	interests[28] 	43137
scalar tree_5_3_u10_r1_network.node[28].core_layer 	data[28] 	40419
scalar tree_5_3_u10_r1_network.node[28].content_store 	p_hit[28] 	0.063008554141456
scalar tree_5_3_u10_r1_network.node[28].content_store 	hits[28] 	2718
scalar tree_5_3_u10_r1_network.node[28].content_store 	misses[28] 	40419
scalar tree_5_3_u10_r1_network.node[28].content_store 	decision_yes[28] 	3593
scalar tree_5_3_u10_r1_network.node[28].content_store 	decision_no[28] 	36826
scalar tree_5_3_u10_r1_network.node[28].content_store 	decision_ratio[28] 	0.08889383705683
scalar tree_5_3_u10_r1_network.node[29].core_layer 	interests[29] 	27784
scalar tree_5_3_u10_r1_network.node[29].core_layer 	data[29] 	25190
scalar tree_5_3_u10_r1_network.node[29].content_store 	p_hit[29] 	0.09332709473078
scalar tree_5_3_u10_r1_network.node[29].content_store 	hits[29] 	2593
scalar tree_5_3_u10_r1_network.node[29].content_store 	misses[29] 	25191
scalar tree_5_3_u10_r1_network.node[29].content_store 	decision_yes[29] 	2901
scalar tree_5_3_u10_r1_network.node[29].content_store 	decision_no[29] 	22289
scalar tree_5_3_u10_r1_network.node[29].content_store 	decision_ratio[29] 	0.11516474791584
scalar tree_5_3_u10_r1_network.node[30].core_layer 	interests[30] 	11348
scalar tree_5_3_u10_r1_network.node[30].core_layer 	data[30] 	9090
scalar tree_5_3_u10_r1_network.node[30].content_store 	p_hit[30] 	0.19888967218893
scalar tree_5_3_u10_r1_network.node[30].content_store 	hits[30] 	2257
scalar tree_5_3_u10_r1_network.node[30].content_store 	misses[30] 	9091
scalar tree_5_3_u10_r1_network.node[30].content_store 	decision_yes[30] 	1352
scalar tree_5_3_u10_r1_network.node[30].content_store 	decision_no[30] 	7738
scalar tree_5_3_u10_r1_network.node[30].content_store 	decision_ratio[30] 	0.14873487348735
scalar tree_5_3_u10_r1_network.node[31].core_layer 	interests[31] 	41413
scalar tree_5_3_u10_r1_network.node[31].core_layer 	data[31] 	39087
scalar tree_5_3_u10_r1_network.node[31].content_store 	p_hit[31] 	0.056165938231956
scalar tree_5_3_u10_r1_network.node[31].content_store 	hits[31] 	2326
scalar tree_5_3_u10_r1_network.node[31].content_store 	misses[31] 	39087
scalar tree_5_3_u10_r1_network.node[31].content_store 	decision_yes[31] 	2502
scalar tree_5_3_u10_r1_network.node[31].content_store 	decision_no[31] 	36585
scalar tree_5_3_u10_r1_network.node[31].content_store 	decision_ratio[31] 	0.064011052268017
scalar tree_5_3_u10_r1_network.node[32].core_layer 	interests[32] 	28729
scalar tree_5_3_u10_r1_network.node[32].core_layer 	data[32] 	25876
scalar tree_5_3_u10_r1_network.node[32].content_store 	p_hit[32] 	0.099307320129486
scalar tree_5_3_u10_r1_network.node[32].content_store 	hits[32] 	2853
scalar tree_5_3_u10_r1_network.node[32].content_store 	misses[32] 	25876
scalar tree_5_3_u10_r1_network.node[32].content_store 	decision_yes[32] 	3082
scalar tree_5_3_u10_r1_network.node[32].content_store 	decision_no[32] 	22793
scalar tree_5_3_u10_r1_network.node[32].content_store 	decision_ratio[32] 	0.11911111111111
scalar tree_5_3_u10_r1_network.node[33].core_layer 	interests[33] 	13076
scalar tree_5_3_u10_r1_network.node[33].core_layer 	data[33] 	10377
scalar tree_5_3_u10_r1_network.node[33].content_store 	p_hit[33] 	0.20640868767207
scalar tree_5_3_u10_r1_network.node[33].content_store 	hits[33] 	2699
scalar tree_5_3_u10_r1_network.node[33].content_store 	misses[33] 	10377
scalar tree_5_3_u10_r1_network.node[33].content_store 	decision_yes[33] 	2369
scalar tree_5_3_u10_r1_network.node[33].content_store 	decision_no[33] 	8008
scalar tree_5_3_u10_r1_network.node[33].content_store 	decision_ratio[33] 	0.22829334104269
scalar tree_5_3_u10_r1_network.node[34].core_layer 	interests[34] 	43253
scalar tree_5_3_u10_r1_network.node[34].core_layer 	data[34] 	40530
scalar tree_5_3_u10_r1_network.node[34].content_store 	p_hit[34] 	0.062932050956003
scalar tree_5_3_u10_r1_network.node[34].content_store 	hits[34] 	2722
scalar tree_5_3_u10_r1_network.node[34].content_store 	misses[34] 	40531
scalar tree_5_3_u10_r1_network.node[34].content_store 	decision_yes[34] 	3552
scalar tree_5_3_u10_r1_network.node[34].content_store 	decision_no[34] 	36977
scalar tree_5_3_u10_r1_network.node[34].content_store 	decision_ratio[34] 	0.087640948456661
scalar tree_5_3_u10_r1_network.node[35].core_layer 	interests[35] 	26750
scalar tree_5_3_u10_r1_network.node[35].core_layer 	data[35] 	24497
scalar tree_5_3_u10_r1_network.node[35].content_store 	p_hit[35] 	0.084224299065421
scalar tree_5_3_u10_r1_network.node[35].content_store 	hits[35] 	2253
scalar tree_5_3_u10_r1_network.node[35].content_store 	misses[35] 	24497
scalar tree_5_3_u10_r1_network.node[35].content_store 	decision_yes[35] 	1926
scalar tree_5_3_u10_r1_network.node[35].content_store 	decision_no[35] 	22571
scalar tree_5_3_u10_r1_network.node[35].content_store 	decision_ratio[35] 	0.078621872065967
scalar tree_5_3_u10_r1_network.node[36].core_layer 	interests[36] 	12848
scalar tree_5_3_u10_r1_network.node[36].core_layer 	data[36] 	10211
scalar tree_5_3_u10_r1_network.node[36].content_store 	p_hit[36] 	0.20524595267746
scalar tree_5_3_u10_r1_network.node[36].content_store 	hits[36] 	2637
scalar tree_5_3_u10_r1_network.node[36].content_store 	misses[36] 	10211
scalar tree_5_3_u10_r1_network.node[36].content_store 	decision_yes[36] 	2380
scalar tree_5_3_u10_r1_network.node[36].content_store 	decision_no[36] 	7831
scalar tree_5_3_u10_r1_network.node[36].content_store 	decision_ratio[36] 	0.23308197042405
scalar tree_5_3_u10_r1_network.node[37].core_layer 	interests[37] 	42710
scalar tree_5_3_u10_r1_network.node[37].core_layer 	data[37] 	40027
scalar tree_5_3_u10_r1_network.node[37].content_store 	p_hit[37] 	0.062795598220557
scalar tree_5_3_u10_r1_network.node[37].content_store 	hits[37] 	2682
scalar tree_5_3_u10_r1_network.node[37].content_store 	misses[37] 	40028
scalar tree_5_3_u10_r1_network.node[37].content_store 	decision_yes[37] 	3466
scalar tree_5_3_u10_r1_network.node[37].content_store 	decision_no[37] 	36561
scalar tree_5_3_u10_r1_network.node[37].content_store 	decision_ratio[37] 	0.086591550703275
scalar tree_5_3_u10_r1_network.node[38].core_layer 	interests[38] 	28018
scalar tree_5_3_u10_r1_network.node[38].core_layer 	data[38] 	25387
scalar tree_5_3_u10_r1_network.node[38].content_store 	p_hit[38] 	0.093903918909273
scalar tree_5_3_u10_r1_network.node[38].content_store 	hits[38] 	2631
scalar tree_5_3_u10_r1_network.node[38].content_store 	misses[38] 	25387
scalar tree_5_3_u10_r1_network.node[38].content_store 	decision_yes[38] 	2828
scalar tree_5_3_u10_r1_network.node[38].content_store 	decision_no[38] 	22559
scalar tree_5_3_u10_r1_network.node[38].content_store 	decision_ratio[38] 	0.11139559617127
scalar tree_5_3_u10_r1_network.node[39].core_layer 	interests[39] 	11268
scalar tree_5_3_u10_r1_network.node[39].core_layer 	data[39] 	9135
scalar tree_5_3_u10_r1_network.node[39].content_store 	p_hit[39] 	0.18920837770678
scalar tree_5_3_u10_r1_network.node[39].content_store 	hits[39] 	2132
scalar tree_5_3_u10_r1_network.node[39].content_store 	misses[39] 	9136
scalar tree_5_3_u10_r1_network.node[39].content_store 	decision_yes[39] 	1348
scalar tree_5_3_u10_r1_network.node[39].content_store 	decision_no[39] 	7787
scalar tree_5_3_u10_r1_network.node[39].content_store 	decision_ratio[39] 	0.14756431308155
scalar tree_5_3_u10_r1_network.node[40].core_layer 	interests[40] 	12126
scalar tree_5_3_u10_r1_network.node[40].core_layer 	data[40] 	8676
scalar tree_5_3_u10_r1_network.node[40].content_store 	p_hit[40] 	0.28459508494145
scalar tree_5_3_u10_r1_network.node[40].content_store 	hits[40] 	3451
scalar tree_5_3_u10_r1_network.node[40].content_store 	misses[40] 	8675
scalar tree_5_3_u10_r1_network.node[40].content_store 	decision_yes[40] 	369
scalar tree_5_3_u10_r1_network.node[40].content_store 	decision_no[40] 	8307
scalar tree_5_3_u10_r1_network.node[40].content_store 	decision_ratio[40] 	0.04253112033195
scalar tree_5_3_u10_r1_network.node[41].core_layer 	interests[41] 	12730
scalar tree_5_3_u10_r1_network.node[41].core_layer 	data[41] 	8878
scalar tree_5_3_u10_r1_network.node[41].content_store 	p_hit[41] 	0.30259230164965
scalar tree_5_3_u10_r1_network.node[41].content_store 	hits[41] 	3852
scalar tree_5_3_u10_r1_network.node[41].content_store 	misses[41] 	8878
scalar tree_5_3_u10_r1_network.node[41].content_store 	decision_yes[41] 	709
scalar tree_5_3_u10_r1_network.node[41].content_store 	decision_no[41] 	8169
scalar tree_5_3_u10_r1_network.node[41].content_store 	decision_ratio[41] 	0.079860328902906
scalar tree_5_3_u10_r1_network.node[42].core_layer 	interests[42] 	12774
scalar tree_5_3_u10_r1_network.node[42].core_layer 	data[42] 	9078
scalar tree_5_3_u10_r1_network.node[42].content_store 	p_hit[42] 	0.28933771723814
scalar tree_5_3_u10_r1_network.node[42].content_store 	hits[42] 	3696
scalar tree_5_3_u10_r1_network.node[42].content_store 	misses[42] 	9078
scalar tree_5_3_u10_r1_network.node[42].content_store 	decision_yes[42] 	739
scalar tree_5_3_u10_r1_network.node[42].content_store 	decision_no[42] 	8339
scalar tree_5_3_u10_r1_network.node[42].content_store 	decision_ratio[42] 	0.081405595946244
scalar tree_5_3_u10_r1_network.node[43].core_layer 	interests[43] 	12698
scalar tree_5_3_u10_r1_network.node[43].core_layer 	data[43] 	8913
scalar tree_5_3_u10_r1_network.node[43].content_store 	p_hit[43] 	0.29799968498976
scalar tree_5_3_u10_r1_network.node[43].content_store 	hits[43] 	3784
scalar tree_5_3_u10_r1_network.node[43].content_store 	misses[43] 	8914
scalar tree_5_3_u10_r1_network.node[43].content_store 	decision_yes[43] 	689
scalar tree_5_3_u10_r1_network.node[43].content_store 	decision_no[43] 	8224
scalar tree_5_3_u10_r1_network.node[43].content_store 	decision_ratio[43] 	0.077302816111298
scalar tree_5_3_u10_r1_network.node[44].core_layer 	interests[44] 	12279
scalar tree_5_3_u10_r1_network.node[44].core_layer 	data[44] 	8743
scalar tree_5_3_u10_r1_network.node[44].content_store 	p_hit[44] 	0.28797133317045
scalar tree_5_3_u10_r1_network.node[44].content_store 	hits[44] 	3536
scalar tree_5_3_u10_r1_network.node[44].content_store 	misses[44] 	8743
scalar tree_5_3_u10_r1_network.node[44].content_store 	decision_yes[44] 	377
scalar tree_5_3_u10_r1_network.node[44].content_store 	decision_no[44] 	8366
scalar tree_5_3_u10_r1_network.node[44].content_store 	decision_ratio[44] 	0.043120210454078
scalar tree_5_3_u10_r1_network.node[45].core_layer 	interests[45] 	12658
scalar tree_5_3_u10_r1_network.node[45].core_layer 	data[45] 	8901
scalar tree_5_3_u10_r1_network.node[45].content_store 	p_hit[45] 	0.29680834255017
scalar tree_5_3_u10_r1_network.node[45].content_store 	hits[45] 	3757
scalar tree_5_3_u10_r1_network.node[45].content_store 	misses[45] 	8901
scalar tree_5_3_u10_r1_network.node[45].content_store 	decision_yes[45] 	776
scalar tree_5_3_u10_r1_network.node[45].content_store 	decision_no[45] 	8125
scalar tree_5_3_u10_r1_network.node[45].content_store 	decision_ratio[45] 	0.087181215593754
scalar tree_5_3_u10_r1_network.node[46].core_layer 	interests[46] 	12760
scalar tree_5_3_u10_r1_network.node[46].core_layer 	data[46] 	9039
scalar tree_5_3_u10_r1_network.node[46].content_store 	p_hit[46] 	0.2916144200627
scalar tree_5_3_u10_r1_network.node[46].content_store 	hits[46] 	3721
scalar tree_5_3_u10_r1_network.node[46].content_store 	misses[46] 	9039
scalar tree_5_3_u10_r1_network.node[46].content_store 	decision_yes[46] 	715
scalar tree_5_3_u10_r1_network.node[46].content_store 	decision_no[46] 	8324
scalar tree_5_3_u10_r1_network.node[46].content_store 	decision_ratio[46] 	0.079101670538776
scalar tree_5_3_u10_r1_network.node[47].core_layer 	interests[47] 	12511
scalar tree_5_3_u10_r1_network.node[47].core_layer 	data[47] 	8790
scalar tree_5_3_u10_r1_network.node[47].content_store 	p_hit[47] 	0.29741827192071
scalar tree_5_3_u10_r1_network.node[47].content_store 	hits[47] 	3721
scalar tree_5_3_u10_r1_network.node[47].content_store 	misses[47] 	8790
scalar tree_5_3_u10_r1_network.node[47].content_store 	decision_yes[47] 	758
scalar tree_5_3_u10_r1_network.node[47].content_store 	decision_no[47] 	8032
scalar tree_5_3_u10_r1_network.node[47].content_store 	decision_ratio[47] 	0.086234357224118
scalar tree_5_3_u10_r1_network.node[48].core_layer 	interests[48] 	12210
scalar tree_5_3_u10_r1_network.node[48].core_layer 	data[48] 	8664
scalar tree_5_3_u10_r1_network.node[48].content_store 	p_hit[48] 	0.29041769041769
scalar tree_5_3_u10_r1_network.node[48].content_store 	hits[48] 	3546
scalar tree_5_3_u10_r1_network.node[48].content_store 	misses[48] 	8664
scalar tree_5_3_u10_r1_network.node[48].content_store 	decision_yes[48] 	372
scalar tree_5_3_u10_r1_network.node[48].content_store 	decision_no[48] 	8292
scalar tree_5_3_u10_r1_network.node[48].content_store 	decision_ratio[48] 	0.042936288088643
scalar tree_5_3_u10_r1_network.node[49].core_layer 	interests[49] 	12298
scalar tree_5_3_u10_r1_network.node[49].core_layer 	data[49] 	8900
scalar tree_5_3_u10_r1_network.node[49].content_store 	p_hit[49] 	0.27630509025858
scalar tree_5_3_u10_r1_network.node[49].content_store 	hits[49] 	3398
scalar tree_5_3_u10_r1_network.node[49].content_store 	misses[49] 	8900
scalar tree_5_3_u10_r1_network.node[49].content_store 	decision_yes[49] 	403
scalar tree_5_3_u10_r1_network.node[49].content_store 	decision_no[49] 	8497
scalar tree_5_3_u10_r1_network.node[49].content_store 	decision_ratio[49] 	0.045280898876404
scalar tree_5_3_u10_r1_network.node[50].core_layer 	interests[50] 	12606
scalar tree_5_3_u10_r1_network.node[50].core_layer 	data[50] 	8756
scalar tree_5_3_u10_r1_network.node[50].content_store 	p_hit[50] 	0.30541012216405
scalar tree_5_3_u10_r1_network.node[50].content_store 	hits[50] 	3850
scalar tree_5_3_u10_r1_network.node[50].content_store 	misses[50] 	8756
scalar tree_5_3_u10_r1_network.node[50].content_store 	decision_yes[50] 	689
scalar tree_5_3_u10_r1_network.node[50].content_store 	decision_no[50] 	8067
scalar tree_5_3_u10_r1_network.node[50].content_store 	decision_ratio[50] 	0.078688899040658
scalar tree_5_3_u10_r1_network.node[51].core_layer 	interests[51] 	12873
scalar tree_5_3_u10_r1_network.node[51].core_layer 	data[51] 	9059
scalar tree_5_3_u10_r1_network.node[51].content_store 	p_hit[51] 	0.29627903363629
scalar tree_5_3_u10_r1_network.node[51].content_store 	hits[51] 	3814
scalar tree_5_3_u10_r1_network.node[51].content_store 	misses[51] 	9059
scalar tree_5_3_u10_r1_network.node[51].content_store 	decision_yes[51] 	726
scalar tree_5_3_u10_r1_network.node[51].content_store 	decision_no[51] 	8333
scalar tree_5_3_u10_r1_network.node[51].content_store 	decision_ratio[51] 	0.08014129594878
scalar tree_5_3_u10_r1_network.node[52].core_layer 	interests[52] 	12652
scalar tree_5_3_u10_r1_network.node[52].core_layer 	data[52] 	8900
scalar tree_5_3_u10_r1_network.node[52].content_store 	p_hit[52] 	0.29655390452102
scalar tree_5_3_u10_r1_network.node[52].content_store 	hits[52] 	3752
scalar tree_5_3_u10_r1_network.node[52].content_store 	misses[52] 	8900
scalar tree_5_3_u10_r1_network.node[52].content_store 	decision_yes[52] 	695
scalar tree_5_3_u10_r1_network.node[52].content_store 	decision_no[52] 	8205
scalar tree_5_3_u10_r1_network.node[52].content_store 	decision_ratio[52] 	0.078089887640449
scalar tree_5_3_u10_r1_network.node[53].core_layer 	interests[53] 	12214
scalar tree_5_3_u10_r1_network.node[53].core_layer 	data[53] 	8738
scalar tree_5_3_u10_r1_network.node[53].content_store 	p_hit[53] 	0.28459145243164
scalar tree_5_3_u10_r1_network.node[53].content_store 	hits[53] 	3476
scalar tree_5_3_u10_r1_network.node[53].content_store 	misses[53] 	8738
scalar tree_5_3_u10_r1_network.node[53].content_store 	decision_yes[53] 	353
scalar tree_5_3_u10_r1_network.node[53].content_store 	decision_no[53] 	8385
scalar tree_5_3_u10_r1_network.node[53].content_store 	decision_ratio[53] 	0.040398260471504
scalar tree_5_3_u10_r1_network.node[54].core_layer 	interests[54] 	12695
scalar tree_5_3_u10_r1_network.node[54].core_layer 	data[54] 	9048
scalar tree_5_3_u10_r1_network.node[54].content_store 	p_hit[54] 	0.28727845608507
scalar tree_5_3_u10_r1_network.node[54].content_store 	hits[54] 	3647
scalar tree_5_3_u10_r1_network.node[54].content_store 	misses[54] 	9048
scalar tree_5_3_u10_r1_network.node[54].content_store 	decision_yes[54] 	746
scalar tree_5_3_u10_r1_network.node[54].content_store 	decision_no[54] 	8302
scalar tree_5_3_u10_r1_network.node[54].content_store 	decision_ratio[54] 	0.082449160035367
scalar tree_5_3_u10_r1_network.node[55].core_layer 	interests[55] 	12537
scalar tree_5_3_u10_r1_network.node[55].core_layer 	data[55] 	8785
scalar tree_5_3_u10_r1_network.node[55].content_store 	p_hit[55] 	0.29919438462152
scalar tree_5_3_u10_r1_network.node[55].content_store 	hits[55] 	3751
scalar tree_5_3_u10_r1_network.node[55].content_store 	misses[55] 	8786
scalar tree_5_3_u10_r1_network.node[55].content_store 	decision_yes[55] 	706
scalar tree_5_3_u10_r1_network.node[55].content_store 	decision_no[55] 	8079
scalar tree_5_3_u10_r1_network.node[55].content_store 	decision_ratio[55] 	0.080364257256688
scalar tree_5_3_u10_r1_network.node[56].core_layer 	interests[56] 	12531
scalar tree_5_3_u10_r1_network.node[56].core_layer 	data[56] 	8805
scalar tree_5_3_u10_r1_network.node[56].content_store 	p_hit[56] 	0.29734259037587
scalar tree_5_3_u10_r1_network.node[56].content_store 	hits[56] 	3726
scalar tree_5_3_u10_r1_network.node[56].content_store 	misses[56] 	8805
scalar tree_5_3_u10_r1_network.node[56].content_store 	decision_yes[56] 	673
scalar tree_5_3_u10_r1_network.node[56].content_store 	decision_no[56] 	8132
scalar tree_5_3_u10_r1_network.node[56].content_store 	decision_ratio[56] 	0.076433844406587
scalar tree_5_3_u10_r1_network.node[57].core_layer 	interests[57] 	12338
scalar tree_5_3_u10_r1_network.node[57].core_layer 	data[57] 	8824
scalar tree_5_3_u10_r1_network.node[57].content_store 	p_hit[57] 	0.28473010212352
scalar tree_5_3_u10_r1_network.node[57].content_store 	hits[57] 	3513
scalar tree_5_3_u10_r1_network.node[57].content_store 	misses[57] 	8825
scalar tree_5_3_u10_r1_network.node[57].content_store 	decision_yes[57] 	401
scalar tree_5_3_u10_r1_network.node[57].content_store 	decision_no[57] 	8423
scalar tree_5_3_u10_r1_network.node[57].content_store 	decision_ratio[57] 	0.045444242973708
scalar tree_5_3_u10_r1_network.node[58].core_layer 	interests[58] 	12566
scalar tree_5_3_u10_r1_network.node[58].core_layer 	data[58] 	9010
scalar tree_5_3_u10_r1_network.node[58].content_store 	p_hit[58] 	0.28290625497374
scalar tree_5_3_u10_r1_network.node[58].content_store 	hits[58] 	3555
scalar tree_5_3_u10_r1_network.node[58].content_store 	misses[58] 	9011
scalar tree_5_3_u10_r1_network.node[58].content_store 	decision_yes[58] 	382
scalar tree_5_3_u10_r1_network.node[58].content_store 	decision_no[58] 	8628
scalar tree_5_3_u10_r1_network.node[58].content_store 	decision_ratio[58] 	0.042397336293008
scalar tree_5_3_u10_r1_network.node[59].core_layer 	interests[59] 	12646
scalar tree_5_3_u10_r1_network.node[59].core_layer 	data[59] 	8871
scalar tree_5_3_u10_r1_network.node[59].content_store 	p_hit[59] 	0.29851336390954
scalar tree_5_3_u10_r1_network.node[59].content_store 	hits[59] 	3775
scalar tree_5_3_u10_r1_network.node[59].content_store 	misses[59] 	8871
scalar tree_5_3_u10_r1_network.node[59].content_store 	decision_yes[59] 	735
scalar tree_5_3_u10_r1_network.node[59].content_store 	decision_no[59] 	8136
scalar tree_5_3_u10_r1_network.node[59].content_store 	decision_ratio[59] 	0.082854244166385
scalar tree_5_3_u10_r1_network.node[60].core_layer 	interests[60] 	12699
scalar tree_5_3_u10_r1_network.node[60].core_layer 	data[60] 	8967
scalar tree_5_3_u10_r1_network.node[60].content_store 	p_hit[60] 	0.29396015434286
scalar tree_5_3_u10_r1_network.node[60].content_store 	hits[60] 	3733
scalar tree_5_3_u10_r1_network.node[60].content_store 	misses[60] 	8966
scalar tree_5_3_u10_r1_network.node[60].content_store 	decision_yes[60] 	765
scalar tree_5_3_u10_r1_network.node[60].content_store 	decision_no[60] 	8202
scalar tree_5_3_u10_r1_network.node[60].content_store 	decision_ratio[60] 	0.08531281365005
scalar tree_5_3_u10_r1_network.node[61].core_layer 	interests[61] 	12921
scalar tree_5_3_u10_r1_network.node[61].core_layer 	data[61] 	9001
scalar tree_5_3_u10_r1_network.node[61].content_store 	p_hit[61] 	0.30345948456002
scalar tree_5_3_u10_r1_network.node[61].content_store 	hits[61] 	3921
scalar tree_5_3_u10_r1_network.node[61].content_store 	misses[61] 	9000
scalar tree_5_3_u10_r1_network.node[61].content_store 	decision_yes[61] 	757
scalar tree_5_3_u10_r1_network.node[61].content_store 	decision_no[61] 	8244
scalar tree_5_3_u10_r1_network.node[61].content_store 	decision_ratio[61] 	0.084101766470392
scalar tree_5_3_u10_r1_network.node[62].core_layer 	interests[62] 	12392
scalar tree_5_3_u10_r1_network.node[62].core_layer 	data[62] 	8889
scalar tree_5_3_u10_r1_network.node[62].content_store 	p_hit[62] 	0.28268237572628
scalar tree_5_3_u10_r1_network.node[62].content_store 	hits[62] 	3503
scalar tree_5_3_u10_r1_network.node[62].content_store 	misses[62] 	8889
scalar tree_5_3_u10_r1_network.node[62].content_store 	decision_yes[62] 	390
scalar tree_5_3_u10_r1_network.node[62].content_store 	decision_no[62] 	8499
scalar tree_5_3_u10_r1_network.node[62].content_store 	decision_ratio[62] 	0.043874451569355
scalar tree_5_3_u10_r1_network.node[63].core_layer 	interests[63] 	12589
scalar tree_5_3_u10_r1_network.node[63].core_layer 	data[63] 	8799
scalar tree_5_3_u10_r1_network.node[63].content_store 	p_hit[63] 	0.30097704345063
scalar tree_5_3_u10_r1_network.node[63].content_store 	hits[63] 	3789
scalar tree_5_3_u10_r1_network.node[63].content_store 	misses[63] 	8800
scalar tree_5_3_u10_r1_network.node[63].content_store 	decision_yes[63] 	719
scalar tree_5_3_u10_r1_network.node[63].content_store 	decision_no[63] 	8080
scalar tree_5_3_u10_r1_network.node[63].content_store 	decision_ratio[63] 	0.081713831117172
scalar tree_5_3_u10_r1_network.node[64].core_layer 	interests[64] 	12792
scalar tree_5_3_u10_r1_network.node[64].core_layer 	data[64] 	8975
scalar tree_5_3_u10_r1_network.node[64].content_store 	p_hit[64] 	0.29838961851157
scalar tree_5_3_u10_r1_network.node[64].content_store 	hits[64] 	3817
scalar tree_5_3_u10_r1_network.node[64].content_store 	misses[64] 	8975
scalar tree_5_3_u10_r1_network.node[64].content_store 	decision_yes[64] 	699
scalar tree_5_3_u10_r1_network.node[64].content_store 	decision_no[64] 	8276
scalar tree_5_3_u10_r1_network.node[64].content_store 	decision_ratio[64] 	0.077883008356546
scalar tree_5_3_u10_r1_network.node[65].core_layer 	interests[65] 	12595
scalar tree_5_3_u10_r1_network.node[65].core_layer 	data[65] 	8851
scalar tree_5_3_u10_r1_network.node[65].content_store 	p_hit[65] 	0.29726081778484
scalar tree_5_3_u10_r1_network.node[65].content_store 	hits[65] 	3744
scalar tree_5_3_u10_r1_network.node[65].content_store 	misses[65] 	8851
scalar tree_5_3_u10_r1_network.node[65].content_store 	decision_yes[65] 	737
scalar tree_5_3_u10_r1_network.node[65].content_store 	decision_no[65] 	8114
scalar tree_5_3_u10_r1_network.node[65].content_store 	decision_ratio[65] 	0.083267427409332
scalar tree_5_3_u10_r1_network.node[66].core_layer 	interests[66] 	12283
scalar tree_5_3_u10_r1_network.node[66].core_layer 	data[66] 	8827
scalar tree_5_3_u10_r1_network.node[66].content_store 	p_hit[66] 	0.28144590083856
scalar tree_5_3_u10_r1_network.node[66].content_store 	hits[66] 	3457
scalar tree_5_3_u10_r1_network.node[66].content_store 	misses[66] 	8826
scalar tree_5_3_u10_r1_network.node[66].content_store 	decision_yes[66] 	365
scalar tree_5_3_u10_r1_network.node[66].content_store 	decision_no[66] 	8462
scalar tree_5_3_u10_r1_network.node[66].content_store 	decision_ratio[66] 	0.041350402175144
scalar tree_5_3_u10_r1_network.node[67].core_layer 	interests[67] 	12346
scalar tree_5_3_u10_r1_network.node[67].core_layer 	data[67] 	8920
scalar tree_5_3_u10_r1_network.node[67].content_store 	p_hit[67] 	0.27749878503159
scalar tree_5_3_u10_r1_network.node[67].content_store 	hits[67] 	3426
scalar tree_5_3_u10_r1_network.node[67].content_store 	misses[67] 	8920
scalar tree_5_3_u10_r1_network.node[67].content_store 	decision_yes[67] 	369
scalar tree_5_3_u10_r1_network.node[67].content_store 	decision_no[67] 	8551
scalar tree_5_3_u10_r1_network.node[67].content_store 	decision_ratio[67] 	0.041367713004484
scalar tree_5_3_u10_r1_network.node[68].core_layer 	interests[68] 	12693
scalar tree_5_3_u10_r1_network.node[68].core_layer 	data[68] 	8970
scalar tree_5_3_u10_r1_network.node[68].content_store 	p_hit[68] 	0.29331127393051
scalar tree_5_3_u10_r1_network.node[68].content_store 	hits[68] 	3723
scalar tree_5_3_u10_r1_network.node[68].content_store 	misses[68] 	8970
scalar tree_5_3_u10_r1_network.node[68].content_store 	decision_yes[68] 	730
scalar tree_5_3_u10_r1_network.node[68].content_store 	decision_no[68] 	8240
scalar tree_5_3_u10_r1_network.node[68].content_store 	decision_ratio[68] 	0.081382385730212
scalar tree_5_3_u10_r1_network.node[69].core_layer 	interests[69] 	12621
scalar tree_5_3_u10_r1_network.node[69].core_layer 	data[69] 	8952
scalar tree_5_3_u10_r1_network.node[69].content_store 	p_hit[69] 	0.29070596624673
scalar tree_5_3_u10_r1_network.node[69].content_store 	hits[69] 	3669
scalar tree_5_3_u10_r1_network.node[69].content_store 	misses[69] 	8952
scalar tree_5_3_u10_r1_network.node[69].content_store 	decision_yes[69] 	697
scalar tree_5_3_u10_r1_network.node[69].content_store 	decision_no[69] 	8255
scalar tree_5_3_u10_r1_network.node[69].content_store 	decision_ratio[69] 	0.077859696157283
scalar tree_5_3_u10_r1_network.node[70].core_layer 	interests[70] 	12767
scalar tree_5_3_u10_r1_network.node[70].core_layer 	data[70] 	8894
scalar tree_5_3_u10_r1_network.node[70].content_store 	p_hit[70] 	0.30336022558158
scalar tree_5_3_u10_r1_network.node[70].content_store 	hits[70] 	3873
scalar tree_5_3_u10_r1_network.node[70].content_store 	misses[70] 	8894
scalar tree_5_3_u10_r1_network.node[70].content_store 	decision_yes[70] 	725
scalar tree_5_3_u10_r1_network.node[70].content_store 	decision_no[70] 	8169
scalar tree_5_3_u10_r1_network.node[70].content_store 	decision_ratio[70] 	0.081515628513605
scalar tree_5_3_u10_r1_network.node[71].core_layer 	interests[71] 	12407
scalar tree_5_3_u10_r1_network.node[71].core_layer 	data[71] 	8886
scalar tree_5_3_u10_r1_network.node[71].content_store 	p_hit[71] 	0.28379140807609
scalar tree_5_3_u10_r1_network.node[71].content_store 	hits[71] 	3521
scalar tree_5_3_u10_r1_network.node[71].content_store 	misses[71] 	8886
scalar tree_5_3_u10_r1_network.node[71].content_store 	decision_yes[71] 	388
scalar tree_5_3_u10_r1_network.node[71].content_store 	decision_no[71] 	8498
scalar tree_5_3_u10_r1_network.node[71].content_store 	decision_ratio[71] 	0.04366419086203
scalar tree_5_3_u10_r1_network.node[72].core_layer 	interests[72] 	12581
scalar tree_5_3_u10_r1_network.node[72].core_layer 	data[72] 	8798
scalar tree_5_3_u10_r1_network.node[72].content_store 	p_hit[72] 	0.30061203401955
scalar tree_5_3_u10_r1_network.node[72].content_store 	hits[72] 	3782
scalar tree_5_3_u10_r1_network.node[72].content_store 	misses[72] 	8799
scalar tree_5_3_u10_r1_network.node[72].content_store 	decision_yes[72] 	742
scalar tree_5_3_u10_r1_network.node[72].content_store 	decision_no[72] 	8056
scalar tree_5_3_u10_r1_network.node[72].content_store 	decision_ratio[72] 	0.08433734939759
scalar tree_5_3_u10_r1_network.node[73].core_layer 	interests[73] 	12431
scalar tree_5_3_u10_r1_network.node[73].core_layer 	data[73] 	8821
scalar tree_5_3_u10_r1_network.node[73].content_store 	p_hit[73] 	0.29040302469632
scalar tree_5_3_u10_r1_network.node[73].content_store 	hits[73] 	3610
scalar tree_5_3_u10_r1_network.node[73].content_store 	misses[73] 	8821
scalar tree_5_3_u10_r1_network.node[73].content_store 	decision_yes[73] 	700
scalar tree_5_3_u10_r1_network.node[73].content_store 	decision_no[73] 	8121
scalar tree_5_3_u10_r1_network.node[73].content_store 	decision_ratio[73] 	0.079356082076862
scalar tree_5_3_u10_r1_network.node[74].core_layer 	interests[74] 	12762
scalar tree_5_3_u10_r1_network.node[74].core_layer 	data[74] 	8877
scalar tree_5_3_u10_r1_network.node[74].content_store 	p_hit[74] 	0.3043410123805
scalar tree_5_3_u10_r1_network.node[74].content_store 	hits[74] 	3884
scalar tree_5_3_u10_r1_network.node[74].content_store 	misses[74] 	8878
scalar tree_5_3_u10_r1_network.node[74].content_store 	decision_yes[74] 	702
scalar tree_5_3_u10_r1_network.node[74].content_store 	decision_no[74] 	8175
scalar tree_5_3_u10_r1_network.node[74].content_store 	decision_ratio[74] 	0.079080770530585
scalar tree_5_3_u10_r1_network.node[75].core_layer 	interests[75] 	12548
scalar tree_5_3_u10_r1_network.node[75].core_layer 	data[75] 	8965
scalar tree_5_3_u10_r1_network.node[75].content_store 	p_hit[75] 	0.28554351291042
scalar tree_5_3_u10_r1_network.node[75].content_store 	hits[75] 	3583
scalar tree_5_3_u10_r1_network.node[75].content_store 	misses[75] 	8965
scalar tree_5_3_u10_r1_network.node[75].content_store 	decision_yes[75] 	348
scalar tree_5_3_u10_r1_network.node[75].content_store 	decision_no[75] 	8617
scalar tree_5_3_u10_r1_network.node[75].content_store 	decision_ratio[75] 	0.038817624093698
scalar tree_5_3_u10_r1_network.node[76].core_layer 	interests[76] 	12367
scalar tree_5_3_u10_r1_network.node[76].core_layer 	data[76] 	8747
scalar tree_5_3_u10_r1_network.node[76].content_store 	p_hit[76] 	0.2927953424436
scalar tree_5_3_u10_r1_network.node[76].content_store 	hits[76] 	3621
scalar tree_5_3_u10_r1_network.node[76].content_store 	misses[76] 	8746
scalar tree_5_3_u10_r1_network.node[76].content_store 	decision_yes[76] 	372
scalar tree_5_3_u10_r1_network.node[76].content_store 	decision_no[76] 	8375
scalar tree_5_3_u10_r1_network.node[76].content_store 	decision_ratio[76] 	0.042528867040128
scalar tree_5_3_u10_r1_network.node[77].core_layer 	interests[77] 	12663
scalar tree_5_3_u10_r1_network.node[77].core_layer 	data[77] 	8920
scalar tree_5_3_u10_r1_network.node[77].content_store 	p_hit[77] 	0.29558556424228
scalar tree_5_3_u10_r1_network.node[77].content_store 	hits[77] 	3743
scalar tree_5_3_u10_r1_network.node[77].content_store 	misses[77] 	8920
scalar tree_5_3_u10_r1_network.node[77].content_store 	decision_yes[77] 	719
scalar tree_5_3_u10_r1_network.node[77].content_store 	decision_no[77] 	8201
scalar tree_5_3_u10_r1_network.node[77].content_store 	decision_ratio[77] 	0.080605381165919
scalar tree_5_3_u10_r1_network.node[78].core_layer 	interests[78] 	12528
scalar tree_5_3_u10_r1_network.node[78].core_layer 	data[78] 	8791
scalar tree_5_3_u10_r1_network.node[78].content_store 	p_hit[78] 	0.29829182630907
scalar tree_5_3_u10_r1_network.node[78].content_store 	hits[78] 	3737
scalar tree_5_3_u10_r1_network.node[78].content_store 	misses[78] 	8791
scalar tree_5_3_u10_r1_network.node[78].content_store 	decision_yes[78] 	792
scalar tree_5_3_u10_r1_network.node[78].content_store 	decision_no[78] 	7999
scalar tree_5_3_u10_r1_network.node[78].content_store 	decision_ratio[78] 	0.090092139688318
scalar tree_5_3_u10_r1_network.node[79].core_layer 	interests[79] 	12627
scalar tree_5_3_u10_r1_network.node[79].core_layer 	data[79] 	8916
scalar tree_5_3_u10_r1_network.node[79].content_store 	p_hit[79] 	0.29389403658826
scalar tree_5_3_u10_r1_network.node[79].content_store 	hits[79] 	3711
scalar tree_5_3_u10_r1_network.node[79].content_store 	misses[79] 	8916
scalar tree_5_3_u10_r1_network.node[79].content_store 	decision_yes[79] 	721
scalar tree_5_3_u10_r1_network.node[79].content_store 	decision_no[79] 	8195
scalar tree_5_3_u10_r1_network.node[79].content_store 	decision_ratio[79] 	0.080865859129655
scalar tree_5_3_u10_r1_network.node[80].core_layer 	interests[80] 	12165
scalar tree_5_3_u10_r1_network.node[80].core_layer 	data[80] 	8714
scalar tree_5_3_u10_r1_network.node[80].content_store 	p_hit[80] 	0.28368269625976
scalar tree_5_3_u10_r1_network.node[80].content_store 	hits[80] 	3451
scalar tree_5_3_u10_r1_network.node[80].content_store 	misses[80] 	8714
scalar tree_5_3_u10_r1_network.node[80].content_store 	decision_yes[80] 	372
scalar tree_5_3_u10_r1_network.node[80].content_store 	decision_no[80] 	8342
scalar tree_5_3_u10_r1_network.node[80].content_store 	decision_ratio[80] 	0.042689924259812
scalar tree_5_3_u10_r1_network.node[81].core_layer 	interests[81] 	12529
scalar tree_5_3_u10_r1_network.node[81].core_layer 	data[81] 	8852
scalar tree_5_3_u10_r1_network.node[81].content_store 	p_hit[81] 	0.29347912842206
scalar tree_5_3_u10_r1_network.node[81].content_store 	hits[81] 	3677
scalar tree_5_3_u10_r1_network.node[81].content_store 	misses[81] 	8852
scalar tree_5_3_u10_r1_network.node[81].content_store 	decision_yes[81] 	755
scalar tree_5_3_u10_r1_network.node[81].content_store 	decision_no[81] 	8097
scalar tree_5_3_u10_r1_network.node[81].content_store 	decision_ratio[81] 	0.085291459557162
scalar tree_5_3_u10_r1_network.node[82].core_layer 	interests[82] 	12756
scalar tree_5_3_u10_r1_network.node[82].core_layer 	data[82] 	9012
scalar tree_5_3_u10_r1_network.node[82].content_store 	p_hit[82] 	0.29350893697084
scalar tree_5_3_u10_r1_network.node[82].content_store 	hits[82] 	3744
scalar tree_5_3_u10_r1_network.node[82].content_store 	misses[82] 	9012
scalar tree_5_3_u10_r1_network.node[82].content_store 	decision_yes[82] 	735
scalar tree_5_3_u10_r1_network.node[82].content_store 	decision_no[82] 	8277
scalar tree_5_3_u10_r1_network.node[82].content_store 	decision_ratio[82] 	0.08155792276964
scalar tree_5_3_u10_r1_network.node[83].core_layer 	interests[83] 	12809
scalar tree_5_3_u10_r1_network.node[83].core_layer 	data[83] 	9083
scalar tree_5_3_u10_r1_network.node[83].content_store 	p_hit[83] 	0.29088921851823
scalar tree_5_3_u10_r1_network.node[83].content_store 	hits[83] 	3726
scalar tree_5_3_u10_r1_network.node[83].content_store 	misses[83] 	9083
scalar tree_5_3_u10_r1_network.node[83].content_store 	decision_yes[83] 	768
scalar tree_5_3_u10_r1_network.node[83].content_store 	decision_no[83] 	8315
scalar tree_5_3_u10_r1_network.node[83].content_store 	decision_ratio[83] 	0.084553561598591
scalar tree_5_3_u10_r1_network.node[84].core_layer 	interests[84] 	12228
scalar tree_5_3_u10_r1_network.node[84].core_layer 	data[84] 	8701
scalar tree_5_3_u10_r1_network.node[84].content_store 	p_hit[84] 	0.28843637553157
scalar tree_5_3_u10_r1_network.node[84].content_store 	hits[84] 	3527
scalar tree_5_3_u10_r1_network.node[84].content_store 	misses[84] 	8701
scalar tree_5_3_u10_r1_network.node[84].content_store 	decision_yes[84] 	369
scalar tree_5_3_u10_r1_network.node[84].content_store 	decision_no[84] 	8332
scalar tree_5_3_u10_r1_network.node[84].content_store 	decision_ratio[84] 	0.042408918515113
scalar tree_5_3_u10_r1_network.node[85].core_layer 	interests[85] 	12275
scalar tree_5_3_u10_r1_network.node[85].core_layer 	data[85] 	8720
scalar tree_5_3_u10_r1_network.node[85].content_store 	p_hit[85] 	0.28961303462322
scalar tree_5_3_u10_r1_network.node[85].content_store 	hits[85] 	3555
scalar tree_5_3_u10_r1_network.node[85].content_store 	misses[85] 	8720
scalar tree_5_3_u10_r1_network.node[85].content_store 	decision_yes[85] 	362
scalar tree_5_3_u10_r1_network.node[85].content_store 	decision_no[85] 	8358
scalar tree_5_3_u10_r1_network.node[85].content_store 	decision_ratio[85] 	0.04151376146789
scalar tree_5_3_u10_r1_network.node[86].core_layer 	interests[86] 	12820
scalar tree_5_3_u10_r1_network.node[86].core_layer 	data[86] 	9124
scalar tree_5_3_u10_r1_network.node[86].content_store 	p_hit[86] 	0.28829953198128
scalar tree_5_3_u10_r1_network.node[86].content_store 	hits[86] 	3696
scalar tree_5_3_u10_r1_network.node[86].content_store 	misses[86] 	9124
scalar tree_5_3_u10_r1_network.node[86].content_store 	decision_yes[86] 	761
scalar tree_5_3_u10_r1_network.node[86].content_store 	decision_no[86] 	8363
scalar tree_5_3_u10_r1_network.node[86].content_store 	decision_ratio[86] 	0.083406400701447
scalar tree_5_3_u10_r1_network.node[87].core_layer 	interests[87] 	12903
scalar tree_5_3_u10_r1_network.node[87].core_layer 	data[87] 	9130
scalar tree_5_3_u10_r1_network.node[87].content_store 	p_hit[87] 	0.2924126172208
scalar tree_5_3_u10_r1_network.node[87].content_store 	hits[87] 	3773
scalar tree_5_3_u10_r1_network.node[87].content_store 	misses[87] 	9130
scalar tree_5_3_u10_r1_network.node[87].content_store 	decision_yes[87] 	718
scalar tree_5_3_u10_r1_network.node[87].content_store 	decision_no[87] 	8412
scalar tree_5_3_u10_r1_network.node[87].content_store 	decision_ratio[87] 	0.078641840087623
scalar tree_5_3_u10_r1_network.node[88].core_layer 	interests[88] 	12640
scalar tree_5_3_u10_r1_network.node[88].core_layer 	data[88] 	8888
scalar tree_5_3_u10_r1_network.node[88].content_store 	p_hit[88] 	0.29667721518987
scalar tree_5_3_u10_r1_network.node[88].content_store 	hits[88] 	3750
scalar tree_5_3_u10_r1_network.node[88].content_store 	misses[88] 	8890
scalar tree_5_3_u10_r1_network.node[88].content_store 	decision_yes[88] 	684
scalar tree_5_3_u10_r1_network.node[88].content_store 	decision_no[88] 	8204
scalar tree_5_3_u10_r1_network.node[88].content_store 	decision_ratio[88] 	0.076957695769577
scalar tree_5_3_u10_r1_network.node[89].core_layer 	interests[89] 	12277
scalar tree_5_3_u10_r1_network.node[89].core_layer 	data[89] 	8803
scalar tree_5_3_u10_r1_network.node[89].content_store 	p_hit[89] 	0.28296815182862
scalar tree_5_3_u10_r1_network.node[89].content_store 	hits[89] 	3474
scalar tree_5_3_u10_r1_network.node[89].content_store 	misses[89] 	8803
scalar tree_5_3_u10_r1_network.node[89].content_store 	decision_yes[89] 	381
scalar tree_5_3_u10_r1_network.node[89].content_store 	decision_no[89] 	8422
scalar tree_5_3_u10_r1_network.node[89].content_store 	decision_ratio[89] 	0.043280699761445
scalar tree_5_3_u10_r1_network.node[90].core_layer 	interests[90] 	12432
scalar tree_5_3_u10_r1_network.node[90].core_layer 	data[90] 	8759
scalar tree_5_3_u10_r1_network.node[90].content_store 	p_hit[90] 	0.2953667953668
scalar tree_5_3_u10_r1_network.node[90].content_store 	hits[90] 	3672
scalar tree_5_3_u10_r1_network.node[90].content_store 	misses[90] 	8760
scalar tree_5_3_u10_r1_network.node[90].content_store 	decision_yes[90] 	713
scalar tree_5_3_u10_r1_network.node[90].content_store 	decision_no[90] 	8046
scalar tree_5_3_u10_r1_network.node[90].content_store 	decision_ratio[90] 	0.081401986528142
scalar tree_5_3_u10_r1_network.node[91].core_layer 	interests[91] 	12483
scalar tree_5_3_u10_r1_network.node[91].core_layer 	data[91] 	8677
scalar tree_5_3_u10_r1_network.node[91].content_store 	p_hit[91] 	0.30489465673316
scalar tree_5_3_u10_r1_network.node[91].content_store 	hits[91] 	3806
scalar tree_5_3_u10_r1_network.node[91].content_store 	misses[91] 	8677
scalar tree_5_3_u10_r1_network.node[91].content_store 	decision_yes[91] 	690
scalar tree_5_3_u10_r1_network.node[91].content_store 	decision_no[91] 	7987
scalar tree_5_3_u10_r1_network.node[91].content_store 	decision_ratio[91] 	0.079520571626138
scalar tree_5_3_u10_r1_network.node[92].core_layer 	interests[92] 	12617
scalar tree_5_3_u10_r1_network.node[92].core_layer 	data[92] 	8895
scalar tree_5_3_u10_r1_network.node[92].content_store 	p_hit[92] 	0.29499881112784
scalar tree_5_3_u10_r1_network.node[92].content_store 	hits[92] 	3722
scalar tree_5_3_u10_r1_network.node[92].content_store 	misses[92] 	8895
scalar tree_5_3_u10_r1_network.node[92].content_store 	decision_yes[92] 	737
scalar tree_5_3_u10_r1_network.node[92].content_store 	decision_no[92] 	8158
scalar tree_5_3_u10_r1_network.node[92].content_store 	decision_ratio[92] 	0.082855536818437
scalar tree_5_3_u10_r1_network.node[93].core_layer 	interests[93] 	12135
scalar tree_5_3_u10_r1_network.node[93].core_layer 	data[93] 	8723
scalar tree_5_3_u10_r1_network.node[93].content_store 	p_hit[93] 	0.28117016893284
scalar tree_5_3_u10_r1_network.node[93].content_store 	hits[93] 	3412
scalar tree_5_3_u10_r1_network.node[93].content_store 	misses[93] 	8723
scalar tree_5_3_u10_r1_network.node[93].content_store 	decision_yes[93] 	385
scalar tree_5_3_u10_r1_network.node[93].content_store 	decision_no[93] 	8338
scalar tree_5_3_u10_r1_network.node[93].content_store 	decision_ratio[93] 	0.044136191677175
scalar tree_5_3_u10_r1_network.node[94].core_layer 	interests[94] 	12296
scalar tree_5_3_u10_r1_network.node[94].core_layer 	data[94] 	8741
scalar tree_5_3_u10_r1_network.node[94].content_store 	p_hit[94] 	0.28903708523097
scalar tree_5_3_u10_r1_network.node[94].content_store 	hits[94] 	3554
scalar tree_5_3_u10_r1_network.node[94].content_store 	misses[94] 	8742
scalar tree_5_3_u10_r1_network.node[94].content_store 	decision_yes[94] 	362
scalar tree_5_3_u10_r1_network.node[94].content_store 	decision_no[94] 	8379
scalar tree_5_3_u10_r1_network.node[94].content_store 	decision_ratio[94] 	0.041414025855165
scalar tree_5_3_u10_r1_network.node[95].core_layer 	interests[95] 	12599
scalar tree_5_3_u10_r1_network.node[95].core_layer 	data[95] 	8788
scalar tree_5_3_u10_r1_network.node[95].content_store 	p_hit[95] 	0.30248432415271
scalar tree_5_3_u10_r1_network.node[95].content_store 	hits[95] 	3811
scalar tree_5_3_u10_r1_network.node[95].content_store 	misses[95] 	8788
scalar tree_5_3_u10_r1_network.node[95].content_store 	decision_yes[95] 	704
scalar tree_5_3_u10_r1_network.node[95].content_store 	decision_no[95] 	8084
scalar tree_5_3_u10_r1_network.node[95].content_store 	decision_ratio[95] 	0.080109239872553
scalar tree_5_3_u10_r1_network.node[96].core_layer 	interests[96] 	12861
scalar tree_5_3_u10_r1_network.node[96].core_layer 	data[96] 	9040
scalar tree_5_3_u10_r1_network.node[96].content_store 	p_hit[96] 	0.2970997589612
scalar tree_5_3_u10_r1_network.node[96].content_store 	hits[96] 	3821
scalar tree_5_3_u10_r1_network.node[96].content_store 	misses[96] 	9040
scalar tree_5_3_u10_r1_network.node[96].content_store 	decision_yes[96] 	778
scalar tree_5_3_u10_r1_network.node[96].content_store 	decision_no[96] 	8262
scalar tree_5_3_u10_r1_network.node[96].content_store 	decision_ratio[96] 	0.086061946902655
scalar tree_5_3_u10_r1_network.node[97].core_layer 	interests[97] 	12533
scalar tree_5_3_u10_r1_network.node[97].core_layer 	data[97] 	8847
scalar tree_5_3_u10_r1_network.node[97].content_store 	p_hit[97] 	0.29410356658422
scalar tree_5_3_u10_r1_network.node[97].content_store 	hits[97] 	3686
scalar tree_5_3_u10_r1_network.node[97].content_store 	misses[97] 	8847
scalar tree_5_3_u10_r1_network.node[97].content_store 	decision_yes[97] 	670
scalar tree_5_3_u10_r1_network.node[97].content_store 	decision_no[97] 	8177
scalar tree_5_3_u10_r1_network.node[97].content_store 	decision_ratio[97] 	0.075731886515203
scalar tree_5_3_u10_r1_network.node[98].core_layer 	interests[98] 	12566
scalar tree_5_3_u10_r1_network.node[98].core_layer 	data[98] 	9056
scalar tree_5_3_u10_r1_network.node[98].content_store 	p_hit[98] 	0.27932516313863
scalar tree_5_3_u10_r1_network.node[98].content_store 	hits[98] 	3510
scalar tree_5_3_u10_r1_network.node[98].content_store 	misses[98] 	9056
scalar tree_5_3_u10_r1_network.node[98].content_store 	decision_yes[98] 	421
scalar tree_5_3_u10_r1_network.node[98].content_store 	decision_no[98] 	8635
scalar tree_5_3_u10_r1_network.node[98].content_store 	decision_ratio[98] 	0.04648851590106
scalar tree_5_3_u10_r1_network.node[99].core_layer 	interests[99] 	12766
scalar tree_5_3_u10_r1_network.node[99].core_layer 	data[99] 	9038
scalar tree_5_3_u10_r1_network.node[99].content_store 	p_hit[99] 	0.29202569324769
scalar tree_5_3_u10_r1_network.node[99].content_store 	hits[99] 	3728
scalar tree_5_3_u10_r1_network.node[99].content_store 	misses[99] 	9038
scalar tree_5_3_u10_r1_network.node[99].content_store 	decision_yes[99] 	712
scalar tree_5_3_u10_r1_network.node[99].content_store 	decision_no[99] 	8326
scalar tree_5_3_u10_r1_network.node[99].content_store 	decision_ratio[99] 	0.078778490816552
scalar tree_5_3_u10_r1_network.node[100].core_layer 	interests[100] 	12634
scalar tree_5_3_u10_r1_network.node[100].core_layer 	data[100] 	8889
scalar tree_5_3_u10_r1_network.node[100].content_store 	p_hit[100] 	0.29642235238246
scalar tree_5_3_u10_r1_network.node[100].content_store 	hits[100] 	3745
scalar tree_5_3_u10_r1_network.node[100].content_store 	misses[100] 	8889
scalar tree_5_3_u10_r1_network.node[100].content_store 	decision_yes[100] 	710
scalar tree_5_3_u10_r1_network.node[100].content_store 	decision_no[100] 	8179
scalar tree_5_3_u10_r1_network.node[100].content_store 	decision_ratio[100] 	0.07987400157498
scalar tree_5_3_u10_r1_network.node[101].core_layer 	interests[101] 	12717
scalar tree_5_3_u10_r1_network.node[101].core_layer 	data[101] 	9046
scalar tree_5_3_u10_r1_network.node[101].content_store 	p_hit[101] 	0.28851144137768
scalar tree_5_3_u10_r1_network.node[101].content_store 	hits[101] 	3669
scalar tree_5_3_u10_r1_network.node[101].content_store 	misses[101] 	9048
scalar tree_5_3_u10_r1_network.node[101].content_store 	decision_yes[101] 	773
scalar tree_5_3_u10_r1_network.node[101].content_store 	decision_no[101] 	8273
scalar tree_5_3_u10_r1_network.node[101].content_store 	decision_ratio[101] 	0.085452133539686
scalar tree_5_3_u10_r1_network.node[102].core_layer 	interests[102] 	12493
scalar tree_5_3_u10_r1_network.node[102].core_layer 	data[102] 	8990
scalar tree_5_3_u10_r1_network.node[102].content_store 	p_hit[102] 	0.28039702233251
scalar tree_5_3_u10_r1_network.node[102].content_store 	hits[102] 	3503
scalar tree_5_3_u10_r1_network.node[102].content_store 	misses[102] 	8990
scalar tree_5_3_u10_r1_network.node[102].content_store 	decision_yes[102] 	383
scalar tree_5_3_u10_r1_network.node[102].content_store 	decision_no[102] 	8607
scalar tree_5_3_u10_r1_network.node[102].content_store 	decision_ratio[102] 	0.042602892102336
scalar tree_5_3_u10_r1_network.node[103].core_layer 	interests[103] 	12396
scalar tree_5_3_u10_r1_network.node[103].core_layer 	data[103] 	8897
scalar tree_5_3_u10_r1_network.node[103].content_store 	p_hit[103] 	0.28210713133269
scalar tree_5_3_u10_r1_network.node[103].content_store 	hits[103] 	3497
scalar tree_5_3_u10_r1_network.node[103].content_store 	misses[103] 	8899
scalar tree_5_3_u10_r1_network.node[103].content_store 	decision_yes[103] 	361
scalar tree_5_3_u10_r1_network.node[103].content_store 	decision_no[103] 	8536
scalar tree_5_3_u10_r1_network.node[103].content_store 	decision_ratio[103] 	0.040575474879173
scalar tree_5_3_u10_r1_network.node[104].core_layer 	interests[104] 	12723
scalar tree_5_3_u10_r1_network.node[104].core_layer 	data[104] 	8958
scalar tree_5_3_u10_r1_network.node[104].content_store 	p_hit[104] 	0.2959207734025
scalar tree_5_3_u10_r1_network.node[104].content_store 	hits[104] 	3765
scalar tree_5_3_u10_r1_network.node[104].content_store 	misses[104] 	8958
scalar tree_5_3_u10_r1_network.node[104].content_store 	decision_yes[104] 	694
scalar tree_5_3_u10_r1_network.node[104].content_store 	decision_no[104] 	8264
scalar tree_5_3_u10_r1_network.node[104].content_store 	decision_ratio[104] 	0.077472650145122
scalar tree_5_3_u10_r1_network.node[105].core_layer 	interests[105] 	12622
scalar tree_5_3_u10_r1_network.node[105].core_layer 	data[105] 	8916
scalar tree_5_3_u10_r1_network.node[105].content_store 	p_hit[105] 	0.29361432419585
scalar tree_5_3_u10_r1_network.node[105].content_store 	hits[105] 	3706
scalar tree_5_3_u10_r1_network.node[105].content_store 	misses[105] 	8916
scalar tree_5_3_u10_r1_network.node[105].content_store 	decision_yes[105] 	724
scalar tree_5_3_u10_r1_network.node[105].content_store 	decision_no[105] 	8192
scalar tree_5_3_u10_r1_network.node[105].content_store 	decision_ratio[105] 	0.081202332884702
scalar tree_5_3_u10_r1_network.node[106].core_layer 	interests[106] 	12828
scalar tree_5_3_u10_r1_network.node[106].core_layer 	data[106] 	9054
scalar tree_5_3_u10_r1_network.node[106].content_store 	p_hit[106] 	0.29420018709074
scalar tree_5_3_u10_r1_network.node[106].content_store 	hits[106] 	3774
scalar tree_5_3_u10_r1_network.node[106].content_store 	misses[106] 	9054
scalar tree_5_3_u10_r1_network.node[106].content_store 	decision_yes[106] 	759
scalar tree_5_3_u10_r1_network.node[106].content_store 	decision_no[106] 	8295
scalar tree_5_3_u10_r1_network.node[106].content_store 	decision_ratio[106] 	0.083830351225977
scalar tree_5_3_u10_r1_network.node[107].core_layer 	interests[107] 	12577
scalar tree_5_3_u10_r1_network.node[107].core_layer 	data[107] 	9050
scalar tree_5_3_u10_r1_network.node[107].content_store 	p_hit[107] 	0.28043253558082
scalar tree_5_3_u10_r1_network.node[107].content_store 	hits[107] 	3527
scalar tree_5_3_u10_r1_network.node[107].content_store 	misses[107] 	9050
scalar tree_5_3_u10_r1_network.node[107].content_store 	decision_yes[107] 	337
scalar tree_5_3_u10_r1_network.node[107].content_store 	decision_no[107] 	8713
scalar tree_5_3_u10_r1_network.node[107].content_store 	decision_ratio[107] 	0.037237569060773
scalar tree_5_3_u10_r1_network.node[108].core_layer 	interests[108] 	12555
scalar tree_5_3_u10_r1_network.node[108].core_layer 	data[108] 	8852
scalar tree_5_3_u10_r1_network.node[108].content_store 	p_hit[108] 	0.29486260454002
scalar tree_5_3_u10_r1_network.node[108].content_store 	hits[108] 	3702
scalar tree_5_3_u10_r1_network.node[108].content_store 	misses[108] 	8853
scalar tree_5_3_u10_r1_network.node[108].content_store 	decision_yes[108] 	730
scalar tree_5_3_u10_r1_network.node[108].content_store 	decision_no[108] 	8122
scalar tree_5_3_u10_r1_network.node[108].content_store 	decision_ratio[108] 	0.082467239042024
scalar tree_5_3_u10_r1_network.node[109].core_layer 	interests[109] 	12702
scalar tree_5_3_u10_r1_network.node[109].core_layer 	data[109] 	8839
scalar tree_5_3_u10_r1_network.node[109].content_store 	p_hit[109] 	0.30404660683357
scalar tree_5_3_u10_r1_network.node[109].content_store 	hits[109] 	3862
scalar tree_5_3_u10_r1_network.node[109].content_store 	misses[109] 	8840
scalar tree_5_3_u10_r1_network.node[109].content_store 	decision_yes[109] 	746
scalar tree_5_3_u10_r1_network.node[109].content_store 	decision_no[109] 	8093
scalar tree_5_3_u10_r1_network.node[109].content_store 	decision_ratio[109] 	0.084398687634348
scalar tree_5_3_u10_r1_network.node[110].core_layer 	interests[110] 	12538
scalar tree_5_3_u10_r1_network.node[110].core_layer 	data[110] 	8870
scalar tree_5_3_u10_r1_network.node[110].content_store 	p_hit[110] 	0.29255064603605
scalar tree_5_3_u10_r1_network.node[110].content_store 	hits[110] 	3668
scalar tree_5_3_u10_r1_network.node[110].content_store 	misses[110] 	8870
scalar tree_5_3_u10_r1_network.node[110].content_store 	decision_yes[110] 	703
scalar tree_5_3_u10_r1_network.node[110].content_store 	decision_no[110] 	8167
scalar tree_5_3_u10_r1_network.node[110].content_store 	decision_ratio[110] 	0.079255918827508
scalar tree_5_3_u10_r1_network.node[111].core_layer 	interests[111] 	12336
scalar tree_5_3_u10_r1_network.node[111].core_layer 	data[111] 	8827
scalar tree_5_3_u10_r1_network.node[111].content_store 	p_hit[111] 	0.28445201037613
scalar tree_5_3_u10_r1_network.node[111].content_store 	hits[111] 	3509
scalar tree_5_3_u10_r1_network.node[111].content_store 	misses[111] 	8827
scalar tree_5_3_u10_r1_network.node[111].content_store 	decision_yes[111] 	392
scalar tree_5_3_u10_r1_network.node[111].content_store 	decision_no[111] 	8435
scalar tree_5_3_u10_r1_network.node[111].content_store 	decision_ratio[111] 	0.044409199048374
scalar tree_5_3_u10_r1_network.node[112].core_layer 	interests[112] 	12306
scalar tree_5_3_u10_r1_network.node[112].core_layer 	data[112] 	8728
scalar tree_5_3_u10_r1_network.node[112].content_store 	p_hit[112] 	0.29067121729238
scalar tree_5_3_u10_r1_network.node[112].content_store 	hits[112] 	3577
scalar tree_5_3_u10_r1_network.node[112].content_store 	misses[112] 	8729
scalar tree_5_3_u10_r1_network.node[112].content_store 	decision_yes[112] 	366
scalar tree_5_3_u10_r1_network.node[112].content_store 	decision_no[112] 	8362
scalar tree_5_3_u10_r1_network.node[112].content_store 	decision_ratio[112] 	0.041934005499542
scalar tree_5_3_u10_r1_network.node[113].core_layer 	interests[113] 	12738
scalar tree_5_3_u10_r1_network.node[113].core_layer 	data[113] 	8977
scalar tree_5_3_u10_r1_network.node[113].content_store 	p_hit[113] 	0.29525828230491
scalar tree_5_3_u10_r1_network.node[113].content_store 	hits[113] 	3761
scalar tree_5_3_u10_r1_network.node[113].content_store 	misses[113] 	8977
scalar tree_5_3_u10_r1_network.node[113].content_store 	decision_yes[113] 	735
scalar tree_5_3_u10_r1_network.node[113].content_store 	decision_no[113] 	8242
scalar tree_5_3_u10_r1_network.node[113].content_store 	decision_ratio[113] 	0.081875905090788
scalar tree_5_3_u10_r1_network.node[114].core_layer 	interests[114] 	12610
scalar tree_5_3_u10_r1_network.node[114].core_layer 	data[114] 	8840
scalar tree_5_3_u10_r1_network.node[114].content_store 	p_hit[114] 	0.29888977002379
scalar tree_5_3_u10_r1_network.node[114].content_store 	hits[114] 	3769
scalar tree_5_3_u10_r1_network.node[114].content_store 	misses[114] 	8841
scalar tree_5_3_u10_r1_network.node[114].content_store 	decision_yes[114] 	690
scalar tree_5_3_u10_r1_network.node[114].content_store 	decision_no[114] 	8150
scalar tree_5_3_u10_r1_network.node[114].content_store 	decision_ratio[114] 	0.078054298642534
scalar tree_5_3_u10_r1_network.node[115].core_layer 	interests[115] 	12627
scalar tree_5_3_u10_r1_network.node[115].core_layer 	data[115] 	8839
scalar tree_5_3_u10_r1_network.node[115].content_store 	p_hit[115] 	0.2999920804625
scalar tree_5_3_u10_r1_network.node[115].content_store 	hits[115] 	3788
scalar tree_5_3_u10_r1_network.node[115].content_store 	misses[115] 	8839
scalar tree_5_3_u10_r1_network.node[115].content_store 	decision_yes[115] 	728
scalar tree_5_3_u10_r1_network.node[115].content_store 	decision_no[115] 	8111
scalar tree_5_3_u10_r1_network.node[115].content_store 	decision_ratio[115] 	0.082362258174002
scalar tree_5_3_u10_r1_network.node[116].core_layer 	interests[116] 	12229
scalar tree_5_3_u10_r1_network.node[116].core_layer 	data[116] 	8705
scalar tree_5_3_u10_r1_network.node[116].content_store 	p_hit[116] 	0.28816747076621
scalar tree_5_3_u10_r1_network.node[116].content_store 	hits[116] 	3524
scalar tree_5_3_u10_r1_network.node[116].content_store 	misses[116] 	8705
scalar tree_5_3_u10_r1_network.node[116].content_store 	decision_yes[116] 	364
scalar tree_5_3_u10_r1_network.node[116].content_store 	decision_no[116] 	8341
scalar tree_5_3_u10_r1_network.node[116].content_store 	decision_ratio[116] 	0.041815048822516
scalar tree_5_3_u10_r1_network.node[117].core_layer 	interests[117] 	12584
scalar tree_5_3_u10_r1_network.node[117].core_layer 	data[117] 	8890
scalar tree_5_3_u10_r1_network.node[117].content_store 	p_hit[117] 	0.29354736172918
scalar tree_5_3_u10_r1_network.node[117].content_store 	hits[117] 	3694
scalar tree_5_3_u10_r1_network.node[117].content_store 	misses[117] 	8890
scalar tree_5_3_u10_r1_network.node[117].content_store 	decision_yes[117] 	746
scalar tree_5_3_u10_r1_network.node[117].content_store 	decision_no[117] 	8144
scalar tree_5_3_u10_r1_network.node[117].content_store 	decision_ratio[117] 	0.083914510686164
scalar tree_5_3_u10_r1_network.node[118].core_layer 	interests[118] 	12732
scalar tree_5_3_u10_r1_network.node[118].core_layer 	data[118] 	9001
scalar tree_5_3_u10_r1_network.node[118].content_store 	p_hit[118] 	0.293041156142
scalar tree_5_3_u10_r1_network.node[118].content_store 	hits[118] 	3731
scalar tree_5_3_u10_r1_network.node[118].content_store 	misses[118] 	9001
scalar tree_5_3_u10_r1_network.node[118].content_store 	decision_yes[118] 	743
scalar tree_5_3_u10_r1_network.node[118].content_store 	decision_no[118] 	8258
scalar tree_5_3_u10_r1_network.node[118].content_store 	decision_ratio[118] 	0.082546383735141
scalar tree_5_3_u10_r1_network.node[119].core_layer 	interests[119] 	12481
scalar tree_5_3_u10_r1_network.node[119].core_layer 	data[119] 	8944
scalar tree_5_3_u10_r1_network.node[119].content_store 	p_hit[119] 	0.283390753946
scalar tree_5_3_u10_r1_network.node[119].content_store 	hits[119] 	3537
scalar tree_5_3_u10_r1_network.node[119].content_store 	misses[119] 	8944
scalar tree_5_3_u10_r1_network.node[119].content_store 	decision_yes[119] 	775
scalar tree_5_3_u10_r1_network.node[119].content_store 	decision_no[119] 	8169
scalar tree_5_3_u10_r1_network.node[119].content_store 	decision_ratio[119] 	0.086650268336315
scalar tree_5_3_u10_r1_network.node[120].core_layer 	interests[120] 	12163
scalar tree_5_3_u10_r1_network.node[120].core_layer 	data[120] 	8743
scalar tree_5_3_u10_r1_network.node[120].content_store 	p_hit[120] 	0.28118062977884
scalar tree_5_3_u10_r1_network.node[120].content_store 	hits[120] 	3420
scalar tree_5_3_u10_r1_network.node[120].content_store 	misses[120] 	8743
scalar tree_5_3_u10_r1_network.node[120].content_store 	decision_yes[120] 	353
scalar tree_5_3_u10_r1_network.node[120].content_store 	decision_no[120] 	8390
scalar tree_5_3_u10_r1_network.node[120].content_store 	decision_ratio[120] 	0.040375157268672
scalar tree_5_3_u10_r1_network.client[40] 	hdistance[40] 	3.2743871513102
scalar tree_5_3_u10_r1_network.client[40] 	downloads[40] 	11830
scalar tree_5_3_u10_r1_network.client[40] 	avg_time[40] 	0.005399223492
scalar tree_5_3_u10_r1_network.client[41] 	hdistance[41] 	3.1863045458309
scalar tree_5_3_u10_r1_network.client[41] 	downloads[41] 	12077
scalar tree_5_3_u10_r1_network.client[41] 	avg_time[41] 	0.005229225153
scalar tree_5_3_u10_r1_network.client[42] 	hdistance[42] 	3.2126049037354
scalar tree_5_3_u10_r1_network.client[42] 	downloads[42] 	12154
scalar tree_5_3_u10_r1_network.client[42] 	avg_time[42] 	0.005281223134
scalar tree_5_3_u10_r1_network.client[43] 	hdistance[43] 	3.2010142156455
scalar tree_5_3_u10_r1_network.client[43] 	downloads[43] 	12029
scalar tree_5_3_u10_r1_network.client[43] 	avg_time[43] 	0.005261947282
scalar tree_5_3_u10_r1_network.client[44] 	hdistance[44] 	3.2175626939529
scalar tree_5_3_u10_r1_network.client[44] 	downloads[44] 	11923
scalar tree_5_3_u10_r1_network.client[44] 	avg_time[44] 	0.005301850567
scalar tree_5_3_u10_r1_network.client[45] 	hdistance[45] 	3.1711372942258
scalar tree_5_3_u10_r1_network.client[45] 	downloads[45] 	11967
scalar tree_5_3_u10_r1_network.client[45] 	avg_time[45] 	0.005209489809
scalar tree_5_3_u10_r1_network.client[46] 	hdistance[46] 	3.2369789517128
scalar tree_5_3_u10_r1_network.client[46] 	downloads[46] 	12115
scalar tree_5_3_u10_r1_network.client[46] 	avg_time[46] 	0.005316708194
scalar tree_5_3_u10_r1_network.client[47] 	hdistance[47] 	3.1678085088387
scalar tree_5_3_u10_r1_network.client[47] 	downloads[47] 	11823
scalar tree_5_3_u10_r1_network.client[47] 	avg_time[47] 	0.005202737465
scalar tree_5_3_u10_r1_network.client[48] 	hdistance[48] 	3.2026606045298
scalar tree_5_3_u10_r1_network.client[48] 	downloads[48] 	11877
scalar tree_5_3_u10_r1_network.client[48] 	avg_time[48] 	0.00527539186
scalar tree_5_3_u10_r1_network.client[49] 	hdistance[49] 	3.255527638191
scalar tree_5_3_u10_r1_network.client[49] 	downloads[49] 	11940
scalar tree_5_3_u10_r1_network.client[49] 	avg_time[49] 	0.00536694585
scalar tree_5_3_u10_r1_network.client[50] 	hdistance[50] 	3.1697654941374
scalar tree_5_3_u10_r1_network.client[50] 	downloads[50] 	11940
scalar tree_5_3_u10_r1_network.client[50] 	avg_time[50] 	0.005207754049
scalar tree_5_3_u10_r1_network.client[51] 	hdistance[51] 	3.1913651315789
scalar tree_5_3_u10_r1_network.client[51] 	downloads[51] 	12160
scalar tree_5_3_u10_r1_network.client[51] 	avg_time[51] 	0.005241698049
scalar tree_5_3_u10_r1_network.client[52] 	hdistance[52] 	3.2172748577168
scalar tree_5_3_u10_r1_network.client[52] 	downloads[52] 	11948
scalar tree_5_3_u10_r1_network.client[52] 	avg_time[52] 	0.00529010783
scalar tree_5_3_u10_r1_network.client[53] 	hdistance[53] 	3.2606369639723
scalar tree_5_3_u10_r1_network.client[53] 	downloads[53] 	11963
scalar tree_5_3_u10_r1_network.client[53] 	avg_time[53] 	0.005378413779
scalar tree_5_3_u10_r1_network.client[54] 	hdistance[54] 	3.2307053941909
scalar tree_5_3_u10_r1_network.client[54] 	downloads[54] 	12050
scalar tree_5_3_u10_r1_network.client[54] 	avg_time[54] 	0.005310499559
scalar tree_5_3_u10_r1_network.client[55] 	hdistance[55] 	3.1714841108857
scalar tree_5_3_u10_r1_network.client[55] 	downloads[55] 	11832
scalar tree_5_3_u10_r1_network.client[55] 	avg_time[55] 	0.005208155782
scalar tree_5_3_u10_r1_network.client[56] 	hdistance[56] 	3.197943877981
scalar tree_5_3_u10_r1_network.client[56] 	downloads[56] 	11867
scalar tree_5_3_u10_r1_network.client[56] 	avg_time[56] 	0.005254568531
scalar tree_5_3_u10_r1_network.client[57] 	hdistance[57] 	3.2164440734558
scalar tree_5_3_u10_r1_network.client[57] 	downloads[57] 	11980
scalar tree_5_3_u10_r1_network.client[57] 	avg_time[57] 	0.005297835656
scalar tree_5_3_u10_r1_network.client[58] 	hdistance[58] 	3.2509668394635
scalar tree_5_3_u10_r1_network.client[58] 	downloads[58] 	12153
scalar tree_5_3_u10_r1_network.client[58] 	avg_time[58] 	0.005355504585
scalar tree_5_3_u10_r1_network.client[59] 	hdistance[59] 	3.1784935413521
scalar tree_5_3_u10_r1_network.client[59] 	downloads[59] 	11922
scalar tree_5_3_u10_r1_network.client[59] 	avg_time[59] 	0.005220765359
scalar tree_5_3_u10_r1_network.client[60] 	hdistance[60] 	3.1761825726141
scalar tree_5_3_u10_r1_network.client[60] 	downloads[60] 	12050
scalar tree_5_3_u10_r1_network.client[60] 	avg_time[60] 	0.00523142487
scalar tree_5_3_u10_r1_network.client[61] 	hdistance[61] 	3.1584280771132
scalar tree_5_3_u10_r1_network.client[61] 	downloads[61] 	12138
scalar tree_5_3_u10_r1_network.client[61] 	avg_time[61] 	0.005191502673
scalar tree_5_3_u10_r1_network.client[62] 	hdistance[62] 	3.2299883508071
scalar tree_5_3_u10_r1_network.client[62] 	downloads[62] 	12018
scalar tree_5_3_u10_r1_network.client[62] 	avg_time[62] 	0.005319876794
scalar tree_5_3_u10_r1_network.client[63] 	hdistance[63] 	3.1691225720027
scalar tree_5_3_u10_r1_network.client[63] 	downloads[63] 	11944
scalar tree_5_3_u10_r1_network.client[63] 	avg_time[63] 	0.005205767851
scalar tree_5_3_u10_r1_network.client[64] 	hdistance[64] 	3.2069876930701
scalar tree_5_3_u10_r1_network.client[64] 	downloads[64] 	12107
scalar tree_5_3_u10_r1_network.client[64] 	avg_time[64] 	0.005270666869
scalar tree_5_3_u10_r1_network.client[65] 	hdistance[65] 	3.1771729147533
scalar tree_5_3_u10_r1_network.client[65] 	downloads[65] 	11977
scalar tree_5_3_u10_r1_network.client[65] 	avg_time[65] 	0.005222172847
scalar tree_5_3_u10_r1_network.client[66] 	hdistance[66] 	3.2768154563624
scalar tree_5_3_u10_r1_network.client[66] 	downloads[66] 	12008
scalar tree_5_3_u10_r1_network.client[66] 	avg_time[66] 	0.005403242224
scalar tree_5_3_u10_r1_network.client[67] 	hdistance[67] 	3.2867940199335
scalar tree_5_3_u10_r1_network.client[67] 	downloads[67] 	12040
scalar tree_5_3_u10_r1_network.client[67] 	avg_time[67] 	0.00542341891
scalar tree_5_3_u10_r1_network.client[68] 	hdistance[68] 	3.2083471898903
scalar tree_5_3_u10_r1_network.client[68] 	downloads[68] 	12028
scalar tree_5_3_u10_r1_network.client[68] 	avg_time[68] 	0.005278554628
scalar tree_5_3_u10_r1_network.client[69] 	hdistance[69] 	3.2352153910498
scalar tree_5_3_u10_r1_network.client[69] 	downloads[69] 	11955
scalar tree_5_3_u10_r1_network.client[69] 	avg_time[69] 	0.005315429882
scalar tree_5_3_u10_r1_network.client[70] 	hdistance[70] 	3.1812525922854
scalar tree_5_3_u10_r1_network.client[70] 	downloads[70] 	12055
scalar tree_5_3_u10_r1_network.client[70] 	avg_time[70] 	0.005229438266
scalar tree_5_3_u10_r1_network.client[71] 	hdistance[71] 	3.2352256670268
scalar tree_5_3_u10_r1_network.client[71] 	downloads[71] 	12031
scalar tree_5_3_u10_r1_network.client[71] 	avg_time[71] 	0.005329229802
scalar tree_5_3_u10_r1_network.client[72] 	hdistance[72] 	3.1753957561468
scalar tree_5_3_u10_r1_network.client[72] 	downloads[72] 	11876
scalar tree_5_3_u10_r1_network.client[72] 	avg_time[72] 	0.005212212407
scalar tree_5_3_u10_r1_network.client[73] 	hdistance[73] 	3.2188560760353
scalar tree_5_3_u10_r1_network.client[73] 	downloads[73] 	11784
scalar tree_5_3_u10_r1_network.client[73] 	avg_time[73] 	0.005292071221
scalar tree_5_3_u10_r1_network.client[74] 	hdistance[74] 	3.1620451328171
scalar tree_5_3_u10_r1_network.client[74] 	downloads[74] 	12009
scalar tree_5_3_u10_r1_network.client[74] 	avg_time[74] 	0.005195909332
scalar tree_5_3_u10_r1_network.client[75] 	hdistance[75] 	3.2307313469589
scalar tree_5_3_u10_r1_network.client[75] 	downloads[75] 	12183
scalar tree_5_3_u10_r1_network.client[75] 	avg_time[75] 	0.005322331357
scalar tree_5_3_u10_r1_network.client[76] 	hdistance[76] 	3.2039796852885
scalar tree_5_3_u10_r1_network.client[76] 	downloads[76] 	12011
scalar tree_5_3_u10_r1_network.client[76] 	avg_time[76] 	0.005275158085
scalar tree_5_3_u10_r1_network.client[77] 	hdistance[77] 	3.2026556016597
scalar tree_5_3_u10_r1_network.client[77] 	downloads[77] 	12050
scalar tree_5_3_u10_r1_network.client[77] 	avg_time[77] 	0.005261241809
scalar tree_5_3_u10_r1_network.client[78] 	hdistance[78] 	3.1539693241193
scalar tree_5_3_u10_r1_network.client[78] 	downloads[78] 	11866
scalar tree_5_3_u10_r1_network.client[78] 	avg_time[78] 	0.005181813989
scalar tree_5_3_u10_r1_network.client[79] 	hdistance[79] 	3.2077954526526
scalar tree_5_3_u10_r1_network.client[79] 	downloads[79] 	12007
scalar tree_5_3_u10_r1_network.client[79] 	avg_time[79] 	0.005273753952
scalar tree_5_3_u10_r1_network.client[80] 	hdistance[80] 	3.2887205387205
scalar tree_5_3_u10_r1_network.client[80] 	downloads[80] 	11880
scalar tree_5_3_u10_r1_network.client[80] 	avg_time[80] 	0.005416158668
scalar tree_5_3_u10_r1_network.client[81] 	hdistance[81] 	3.2026993042166
scalar tree_5_3_u10_r1_network.client[81] 	downloads[81] 	11929
scalar tree_5_3_u10_r1_network.client[81] 	avg_time[81] 	0.005260790028
scalar tree_5_3_u10_r1_network.client[82] 	hdistance[82] 	3.1921929388364
scalar tree_5_3_u10_r1_network.client[82] 	downloads[82] 	12066
scalar tree_5_3_u10_r1_network.client[82] 	avg_time[82] 	0.005245977441
scalar tree_5_3_u10_r1_network.client[83] 	hdistance[83] 	3.2074402562207
scalar tree_5_3_u10_r1_network.client[83] 	downloads[83] 	12177
scalar tree_5_3_u10_r1_network.client[83] 	avg_time[83] 	0.00527617332
scalar tree_5_3_u10_r1_network.client[84] 	hdistance[84] 	3.2228489644721
scalar tree_5_3_u10_r1_network.client[84] 	downloads[84] 	11878
scalar tree_5_3_u10_r1_network.client[84] 	avg_time[84] 	0.005305772424
scalar tree_5_3_u10_r1_network.client[85] 	hdistance[85] 	3.2128820960699
scalar tree_5_3_u10_r1_network.client[85] 	downloads[85] 	11908
scalar tree_5_3_u10_r1_network.client[85] 	avg_time[85] 	0.005288878428
scalar tree_5_3_u10_r1_network.client[86] 	hdistance[86] 	3.2259158190689
scalar tree_5_3_u10_r1_network.client[86] 	downloads[86] 	12093
scalar tree_5_3_u10_r1_network.client[86] 	avg_time[86] 	0.005297579695
scalar tree_5_3_u10_r1_network.client[87] 	hdistance[87] 	3.2011564459647
scalar tree_5_3_u10_r1_network.client[87] 	downloads[87] 	12279
scalar tree_5_3_u10_r1_network.client[87] 	avg_time[87] 	0.005265091675
scalar tree_5_3_u10_r1_network.client[88] 	hdistance[88] 	3.2003696547089
scalar tree_5_3_u10_r1_network.client[88] 	downloads[88] 	11903
scalar tree_5_3_u10_r1_network.client[88] 	avg_time[88] 	0.005258685723
scalar tree_5_3_u10_r1_network.client[89] 	hdistance[89] 	3.2475736278447
scalar tree_5_3_u10_r1_network.client[89] 	downloads[89] 	11952
scalar tree_5_3_u10_r1_network.client[89] 	avg_time[89] 	0.005341529803
scalar tree_5_3_u10_r1_network.client[90] 	hdistance[90] 	3.2062404870624
scalar tree_5_3_u10_r1_network.client[90] 	downloads[90] 	11826
scalar tree_5_3_u10_r1_network.client[90] 	avg_time[90] 	0.005267451948
scalar tree_5_3_u10_r1_network.client[91] 	hdistance[91] 	3.1459176788124
scalar tree_5_3_u10_r1_network.client[91] 	downloads[91] 	11856
scalar tree_5_3_u10_r1_network.client[91] 	avg_time[91] 	0.005173917408
scalar tree_5_3_u10_r1_network.client[92] 	hdistance[92] 	3.1833861023163
scalar tree_5_3_u10_r1_network.client[92] 	downloads[92] 	12002
scalar tree_5_3_u10_r1_network.client[92] 	avg_time[92] 	0.005235957653
scalar tree_5_3_u10_r1_network.client[93] 	hdistance[93] 	3.2616610738255
scalar tree_5_3_u10_r1_network.client[93] 	downloads[93] 	11920
scalar tree_5_3_u10_r1_network.client[93] 	avg_time[93] 	0.005376674856
scalar tree_5_3_u10_r1_network.client[94] 	hdistance[94] 	3.2324630911669
scalar tree_5_3_u10_r1_network.client[94] 	downloads[94] 	11989
scalar tree_5_3_u10_r1_network.client[94] 	avg_time[94] 	0.00533255186
scalar tree_5_3_u10_r1_network.client[95] 	hdistance[95] 	3.1783284334313
scalar tree_5_3_u10_r1_network.client[95] 	downloads[95] 	11905
scalar tree_5_3_u10_r1_network.client[95] 	avg_time[95] 	0.005222617422
scalar tree_5_3_u10_r1_network.client[96] 	hdistance[96] 	3.186304294277
scalar tree_5_3_u10_r1_network.client[96] 	downloads[96] 	12179
scalar tree_5_3_u10_r1_network.client[96] 	avg_time[96] 	0.005241271234
scalar tree_5_3_u10_r1_network.client[97] 	hdistance[97] 	3.2417442845047
scalar tree_5_3_u10_r1_network.client[97] 	downloads[97] 	11810
scalar tree_5_3_u10_r1_network.client[97] 	avg_time[97] 	0.005320064808
scalar tree_5_3_u10_r1_network.client[98] 	hdistance[98] 	3.2321092663777
scalar tree_5_3_u10_r1_network.client[98] 	downloads[98] 	12227
scalar tree_5_3_u10_r1_network.client[98] 	avg_time[98] 	0.005322743649
scalar tree_5_3_u10_r1_network.client[99] 	hdistance[99] 	3.2250207125104
scalar tree_5_3_u10_r1_network.client[99] 	downloads[99] 	12070
scalar tree_5_3_u10_r1_network.client[99] 	avg_time[99] 	0.005292909552
scalar tree_5_3_u10_r1_network.client[100] 	hdistance[100] 	3.2021702838063
scalar tree_5_3_u10_r1_network.client[100] 	downloads[100] 	11980
scalar tree_5_3_u10_r1_network.client[100] 	avg_time[100] 	0.005262223312
scalar tree_5_3_u10_r1_network.client[101] 	hdistance[101] 	3.2128898128898
scalar tree_5_3_u10_r1_network.client[101] 	downloads[101] 	12025
scalar tree_5_3_u10_r1_network.client[101] 	avg_time[101] 	0.005274816075
scalar tree_5_3_u10_r1_network.client[102] 	hdistance[102] 	3.2591498440834
scalar tree_5_3_u10_r1_network.client[102] 	downloads[102] 	12186
scalar tree_5_3_u10_r1_network.client[102] 	avg_time[102] 	0.00536057466
scalar tree_5_3_u10_r1_network.client[103] 	hdistance[103] 	3.240777666999
scalar tree_5_3_u10_r1_network.client[103] 	downloads[103] 	12036
scalar tree_5_3_u10_r1_network.client[103] 	avg_time[103] 	0.005335639422
scalar tree_5_3_u10_r1_network.client[104] 	hdistance[104] 	3.203104249668
scalar tree_5_3_u10_r1_network.client[104] 	downloads[104] 	12048
scalar tree_5_3_u10_r1_network.client[104] 	avg_time[104] 	0.005264886868
scalar tree_5_3_u10_r1_network.client[105] 	hdistance[105] 	3.200922045264
scalar tree_5_3_u10_r1_network.client[105] 	downloads[105] 	11930
scalar tree_5_3_u10_r1_network.client[105] 	avg_time[105] 	0.005259343203
scalar tree_5_3_u10_r1_network.client[106] 	hdistance[106] 	3.2025326864567
scalar tree_5_3_u10_r1_network.client[106] 	downloads[106] 	12161
scalar tree_5_3_u10_r1_network.client[106] 	avg_time[106] 	0.005262228702
scalar tree_5_3_u10_r1_network.client[107] 	hdistance[107] 	3.2927762847137
scalar tree_5_3_u10_r1_network.client[107] 	downloads[107] 	12279
scalar tree_5_3_u10_r1_network.client[107] 	avg_time[107] 	0.005426986112
scalar tree_5_3_u10_r1_network.client[108] 	hdistance[108] 	3.195845200201
scalar tree_5_3_u10_r1_network.client[108] 	downloads[108] 	11938
scalar tree_5_3_u10_r1_network.client[108] 	avg_time[108] 	0.005253640848
scalar tree_5_3_u10_r1_network.client[109] 	hdistance[109] 	3.1535318155283
scalar tree_5_3_u10_r1_network.client[109] 	downloads[109] 	11991
scalar tree_5_3_u10_r1_network.client[109] 	avg_time[109] 	0.005181060861
scalar tree_5_3_u10_r1_network.client[110] 	hdistance[110] 	3.2224643755239
scalar tree_5_3_u10_r1_network.client[110] 	downloads[110] 	11930
scalar tree_5_3_u10_r1_network.client[110] 	avg_time[110] 	0.00529438092
scalar tree_5_3_u10_r1_network.client[111] 	hdistance[111] 	3.2261469414894
scalar tree_5_3_u10_r1_network.client[111] 	downloads[111] 	12032
scalar tree_5_3_u10_r1_network.client[111] 	avg_time[111] 	0.005312330765
scalar tree_5_3_u10_r1_network.client[112] 	hdistance[112] 	3.205033557047
scalar tree_5_3_u10_r1_network.client[112] 	downloads[112] 	11920
scalar tree_5_3_u10_r1_network.client[112] 	avg_time[112] 	0.005283218503
scalar tree_5_3_u10_r1_network.client[113] 	hdistance[113] 	3.1934518863221
scalar tree_5_3_u10_r1_network.client[113] 	downloads[113] 	12034
scalar tree_5_3_u10_r1_network.client[113] 	avg_time[113] 	0.005245468198
scalar tree_5_3_u10_r1_network.client[114] 	hdistance[114] 	3.1920767306088
scalar tree_5_3_u10_r1_network.client[114] 	downloads[114] 	11990
scalar tree_5_3_u10_r1_network.client[114] 	avg_time[114] 	0.005247036188
scalar tree_5_3_u10_r1_network.client[115] 	hdistance[115] 	3.1620195930671
scalar tree_5_3_u10_r1_network.client[115] 	downloads[115] 	11943
scalar tree_5_3_u10_r1_network.client[115] 	avg_time[115] 	0.005198020962
scalar tree_5_3_u10_r1_network.client[116] 	hdistance[116] 	3.223016139879
scalar tree_5_3_u10_r1_network.client[116] 	downloads[116] 	11896
scalar tree_5_3_u10_r1_network.client[116] 	avg_time[116] 	0.005305645985
scalar tree_5_3_u10_r1_network.client[117] 	hdistance[117] 	3.2005169251292
scalar tree_5_3_u10_r1_network.client[117] 	downloads[117] 	11994
scalar tree_5_3_u10_r1_network.client[117] 	avg_time[117] 	0.005257611223
scalar tree_5_3_u10_r1_network.client[118] 	hdistance[118] 	3.2085742606972
scalar tree_5_3_u10_r1_network.client[118] 	downloads[118] 	12106
scalar tree_5_3_u10_r1_network.client[118] 	avg_time[118] 	0.005275777828
scalar tree_5_3_u10_r1_network.client[119] 	hdistance[119] 	3.2379472534856
scalar tree_5_3_u10_r1_network.client[119] 	downloads[119] 	11906
scalar tree_5_3_u10_r1_network.client[119] 	avg_time[119] 	0.005322538217
scalar tree_5_3_u10_r1_network.client[120] 	hdistance[120] 	3.2971500419111
scalar tree_5_3_u10_r1_network.client[120] 	downloads[120] 	11930
scalar tree_5_3_u10_r1_network.client[120] 	avg_time[120] 	0.005425646644
