version 2
run General-125-20160818-19:49:05-19481
attr a 0.9
attr cd lce
attr configname General
attr cr lru
attr datetime 20160818-19:49:05
attr experiment General
attr fsize 1
attr inifile hw5115/scenario_A/EdgeCoop.ini
attr iterationvars "$name=tree_4_3, $un=06, $rep=6, $scenario=Edge, $cd=lce, $cr=lru, $fsize=1, $a=0.9, $sl=nrr, $ttl=1000, $variance=0.05"
attr iterationvars2 "$name=tree_4_3, $un=06, $rep=6, $scenario=Edge, $cd=lce, $cr=lru, $fsize=1, $a=0.9, $sl=nrr, $ttl=1000, $variance=0.05, $repetition=0"
attr measurement "$name=tree_4_3, $un=06, $rep=6, $scenario=Edge, $cd=lce, $cr=lru, $fsize=1, $a=0.9, $sl=nrr, $ttl=1000, $variance=0.05"
attr name tree_4_3
attr network networks.${name}_u${un}_r${rep}_network
attr processid 19481
attr rep 6
attr repetition 0
attr replication #0
attr resultdir results
attr runnumber 125
attr scenario Edge
attr seedset 6
attr sl nrr
attr ttl 1000
attr un 06
attr variance 0.05

scalar . 	a 	0.9
scalar . 	fsize 	1
scalar . 	rep 	6
scalar . 	ttl 	1000
scalar . 	un 	06
scalar . 	variance 	0.05
scalar tree_4_3_u06_r6_network.content_distribution 	repo-0 	0
scalar tree_4_3_u06_r6_network.content_distribution 	client-0 	13
scalar tree_4_3_u06_r6_network.content_distribution 	client-1 	14
scalar tree_4_3_u06_r6_network.content_distribution 	client-2 	15
scalar tree_4_3_u06_r6_network.content_distribution 	client-3 	16
scalar tree_4_3_u06_r6_network.content_distribution 	client-4 	17
scalar tree_4_3_u06_r6_network.content_distribution 	client-5 	18
scalar tree_4_3_u06_r6_network.content_distribution 	client-6 	19
scalar tree_4_3_u06_r6_network.content_distribution 	client-7 	20
scalar tree_4_3_u06_r6_network.content_distribution 	client-8 	21
scalar tree_4_3_u06_r6_network.content_distribution 	client-9 	22
scalar tree_4_3_u06_r6_network.content_distribution 	client-10 	23
scalar tree_4_3_u06_r6_network.content_distribution 	client-11 	24
scalar tree_4_3_u06_r6_network.content_distribution 	client-12 	25
scalar tree_4_3_u06_r6_network.content_distribution 	client-13 	26
scalar tree_4_3_u06_r6_network.content_distribution 	client-14 	27
scalar tree_4_3_u06_r6_network.content_distribution 	client-15 	28
scalar tree_4_3_u06_r6_network.content_distribution 	client-16 	29
scalar tree_4_3_u06_r6_network.content_distribution 	client-17 	30
scalar tree_4_3_u06_r6_network.content_distribution 	client-18 	31
scalar tree_4_3_u06_r6_network.content_distribution 	client-19 	32
scalar tree_4_3_u06_r6_network.content_distribution 	client-20 	33
scalar tree_4_3_u06_r6_network.content_distribution 	client-21 	34
scalar tree_4_3_u06_r6_network.content_distribution 	client-22 	35
scalar tree_4_3_u06_r6_network.content_distribution 	client-23 	36
scalar tree_4_3_u06_r6_network.content_distribution 	client-24 	37
scalar tree_4_3_u06_r6_network.content_distribution 	client-25 	38
scalar tree_4_3_u06_r6_network.content_distribution 	client-26 	39
scalar tree_4_3_u06_r6_network.content_distribution 	repo-0_card 	100000
scalar tree_4_3_u06_r6_network.content_distribution 	repo-0_price 	0
scalar tree_4_3_u06_r6_network.statistics 	stabilization_time 	333.8
scalar tree_4_3_u06_r6_network.statistics 	p_hit 	0.2091702805686
scalar tree_4_3_u06_r6_network.statistics 	interests 	28238.7
scalar tree_4_3_u06_r6_network.statistics 	data 	20136.975
scalar tree_4_3_u06_r6_network.statistics 	hdistance 	3.1068285885527
scalar tree_4_3_u06_r6_network.statistics 	avg_time 	0.004971114947
scalar tree_4_3_u06_r6_network.statistics 	downloads 	324058
scalar tree_4_3_u06_r6_network.statistics 	total_cost 	0
scalar tree_4_3_u06_r6_network.statistics 	total_replicas 	100000
scalar tree_4_3_u06_r6_network.statistics 	inner_hit 	0.37866369600504
scalar tree_4_3_u06_r6_network.node[0].core_layer 	interests[0] 	201349
scalar tree_4_3_u06_r6_network.node[0].core_layer 	repo_load[0] 	201349
scalar tree_4_3_u06_r6_network.node[0].core_layer 	data[0] 	0
scalar tree_4_3_u06_r6_network.node[0].core_layer 	repo_int[0] 	201349
scalar tree_4_3_u06_r6_network.node[0].content_store 	p_hit[0] 	0
scalar tree_4_3_u06_r6_network.node[0].content_store 	hits[0] 	0
scalar tree_4_3_u06_r6_network.node[0].content_store 	misses[0] 	201349
scalar tree_4_3_u06_r6_network.node[0].content_store 	decision_yes[0] 	0
scalar tree_4_3_u06_r6_network.node[0].content_store 	decision_no[0] 	201349
scalar tree_4_3_u06_r6_network.node[0].content_store 	decision_ratio[0] 	0
scalar tree_4_3_u06_r6_network.node[1].core_layer 	interests[1] 	113555
scalar tree_4_3_u06_r6_network.node[1].core_layer 	data[1] 	113551
scalar tree_4_3_u06_r6_network.node[1].content_store 	p_hit[1] 	0
scalar tree_4_3_u06_r6_network.node[1].content_store 	hits[1] 	0
scalar tree_4_3_u06_r6_network.node[1].content_store 	misses[1] 	113555
scalar tree_4_3_u06_r6_network.node[1].content_store 	decision_yes[1] 	0
scalar tree_4_3_u06_r6_network.node[1].content_store 	decision_no[1] 	113540
scalar tree_4_3_u06_r6_network.node[1].content_store 	decision_ratio[1] 	0
scalar tree_4_3_u06_r6_network.node[2].core_layer 	interests[2] 	35111
scalar tree_4_3_u06_r6_network.node[2].core_layer 	data[2] 	35111
scalar tree_4_3_u06_r6_network.node[2].content_store 	p_hit[2] 	0
scalar tree_4_3_u06_r6_network.node[2].content_store 	hits[2] 	0
scalar tree_4_3_u06_r6_network.node[2].content_store 	misses[2] 	35111
scalar tree_4_3_u06_r6_network.node[2].content_store 	decision_yes[2] 	0
scalar tree_4_3_u06_r6_network.node[2].content_store 	decision_no[2] 	35109
scalar tree_4_3_u06_r6_network.node[2].content_store 	decision_ratio[2] 	0
scalar tree_4_3_u06_r6_network.node[3].core_layer 	interests[3] 	84070
scalar tree_4_3_u06_r6_network.node[3].core_layer 	data[3] 	84065
scalar tree_4_3_u06_r6_network.node[3].content_store 	p_hit[3] 	0
scalar tree_4_3_u06_r6_network.node[3].content_store 	hits[3] 	0
scalar tree_4_3_u06_r6_network.node[3].content_store 	misses[3] 	84070
scalar tree_4_3_u06_r6_network.node[3].content_store 	decision_yes[3] 	0
scalar tree_4_3_u06_r6_network.node[3].content_store 	decision_no[3] 	84060
scalar tree_4_3_u06_r6_network.node[3].content_store 	decision_ratio[3] 	0
scalar tree_4_3_u06_r6_network.node[4].core_layer 	interests[4] 	49829
scalar tree_4_3_u06_r6_network.node[4].core_layer 	data[4] 	49827
scalar tree_4_3_u06_r6_network.node[4].content_store 	p_hit[4] 	0
scalar tree_4_3_u06_r6_network.node[4].content_store 	hits[4] 	0
scalar tree_4_3_u06_r6_network.node[4].content_store 	misses[4] 	49829
scalar tree_4_3_u06_r6_network.node[4].content_store 	decision_yes[4] 	0
scalar tree_4_3_u06_r6_network.node[4].content_store 	decision_no[4] 	49823
scalar tree_4_3_u06_r6_network.node[4].content_store 	decision_ratio[4] 	0
scalar tree_4_3_u06_r6_network.node[5].core_layer 	interests[5] 	33133
scalar tree_4_3_u06_r6_network.node[5].core_layer 	data[5] 	33131
scalar tree_4_3_u06_r6_network.node[5].content_store 	p_hit[5] 	0
scalar tree_4_3_u06_r6_network.node[5].content_store 	hits[5] 	0
scalar tree_4_3_u06_r6_network.node[5].content_store 	misses[5] 	33133
scalar tree_4_3_u06_r6_network.node[5].content_store 	decision_yes[5] 	0
scalar tree_4_3_u06_r6_network.node[5].content_store 	decision_no[5] 	33127
scalar tree_4_3_u06_r6_network.node[5].content_store 	decision_ratio[5] 	0
scalar tree_4_3_u06_r6_network.node[6].core_layer 	interests[6] 	19093
scalar tree_4_3_u06_r6_network.node[6].core_layer 	data[6] 	19090
scalar tree_4_3_u06_r6_network.node[6].content_store 	p_hit[6] 	0
scalar tree_4_3_u06_r6_network.node[6].content_store 	hits[6] 	0
scalar tree_4_3_u06_r6_network.node[6].content_store 	misses[6] 	19093
scalar tree_4_3_u06_r6_network.node[6].content_store 	decision_yes[6] 	0
scalar tree_4_3_u06_r6_network.node[6].content_store 	decision_no[6] 	19090
scalar tree_4_3_u06_r6_network.node[6].content_store 	decision_ratio[6] 	0
scalar tree_4_3_u06_r6_network.node[7].core_layer 	interests[7] 	53257
scalar tree_4_3_u06_r6_network.node[7].core_layer 	data[7] 	53254
scalar tree_4_3_u06_r6_network.node[7].content_store 	p_hit[7] 	0
scalar tree_4_3_u06_r6_network.node[7].content_store 	hits[7] 	0
scalar tree_4_3_u06_r6_network.node[7].content_store 	misses[7] 	53257
scalar tree_4_3_u06_r6_network.node[7].content_store 	decision_yes[7] 	0
scalar tree_4_3_u06_r6_network.node[7].content_store 	decision_no[7] 	53246
scalar tree_4_3_u06_r6_network.node[7].content_store 	decision_ratio[7] 	0
scalar tree_4_3_u06_r6_network.node[8].core_layer 	interests[8] 	20211
scalar tree_4_3_u06_r6_network.node[8].core_layer 	data[8] 	20211
scalar tree_4_3_u06_r6_network.node[8].content_store 	p_hit[8] 	0
scalar tree_4_3_u06_r6_network.node[8].content_store 	hits[8] 	0
scalar tree_4_3_u06_r6_network.node[8].content_store 	misses[8] 	20211
scalar tree_4_3_u06_r6_network.node[8].content_store 	decision_yes[8] 	0
scalar tree_4_3_u06_r6_network.node[8].content_store 	decision_no[8] 	20210
scalar tree_4_3_u06_r6_network.node[8].content_store 	decision_ratio[8] 	0
scalar tree_4_3_u06_r6_network.node[9].core_layer 	interests[9] 	28686
scalar tree_4_3_u06_r6_network.node[9].core_layer 	data[9] 	28683
scalar tree_4_3_u06_r6_network.node[9].content_store 	p_hit[9] 	0
scalar tree_4_3_u06_r6_network.node[9].content_store 	hits[9] 	0
scalar tree_4_3_u06_r6_network.node[9].content_store 	misses[9] 	28686
scalar tree_4_3_u06_r6_network.node[9].content_store 	decision_yes[9] 	0
scalar tree_4_3_u06_r6_network.node[9].content_store 	decision_no[9] 	28679
scalar tree_4_3_u06_r6_network.node[9].content_store 	decision_ratio[9] 	0
scalar tree_4_3_u06_r6_network.node[10].core_layer 	interests[10] 	41381
scalar tree_4_3_u06_r6_network.node[10].core_layer 	data[10] 	41379
scalar tree_4_3_u06_r6_network.node[10].content_store 	p_hit[10] 	0
scalar tree_4_3_u06_r6_network.node[10].content_store 	hits[10] 	0
scalar tree_4_3_u06_r6_network.node[10].content_store 	misses[10] 	41381
scalar tree_4_3_u06_r6_network.node[10].content_store 	decision_yes[10] 	0
scalar tree_4_3_u06_r6_network.node[10].content_store 	decision_no[10] 	41377
scalar tree_4_3_u06_r6_network.node[10].content_store 	decision_ratio[10] 	0
scalar tree_4_3_u06_r6_network.node[11].core_layer 	interests[11] 	21822
scalar tree_4_3_u06_r6_network.node[11].core_layer 	data[11] 	21820
scalar tree_4_3_u06_r6_network.node[11].content_store 	p_hit[11] 	0
scalar tree_4_3_u06_r6_network.node[11].content_store 	hits[11] 	0
scalar tree_4_3_u06_r6_network.node[11].content_store 	misses[11] 	21822
scalar tree_4_3_u06_r6_network.node[11].content_store 	decision_yes[11] 	0
scalar tree_4_3_u06_r6_network.node[11].content_store 	decision_no[11] 	21818
scalar tree_4_3_u06_r6_network.node[11].content_store 	decision_ratio[11] 	0
scalar tree_4_3_u06_r6_network.node[12].core_layer 	interests[12] 	34664
scalar tree_4_3_u06_r6_network.node[12].core_layer 	data[12] 	34661
scalar tree_4_3_u06_r6_network.node[12].content_store 	p_hit[12] 	0
scalar tree_4_3_u06_r6_network.node[12].content_store 	hits[12] 	0
scalar tree_4_3_u06_r6_network.node[12].content_store 	misses[12] 	34664
scalar tree_4_3_u06_r6_network.node[12].content_store 	decision_yes[12] 	0
scalar tree_4_3_u06_r6_network.node[12].content_store 	decision_no[12] 	34659
scalar tree_4_3_u06_r6_network.node[12].content_store 	decision_ratio[12] 	0
scalar tree_4_3_u06_r6_network.node[13].core_layer 	interests[13] 	14002
scalar tree_4_3_u06_r6_network.node[13].core_layer 	data[13] 	10266
scalar tree_4_3_u06_r6_network.node[13].content_store 	p_hit[13] 	0.26681902585345
scalar tree_4_3_u06_r6_network.node[13].content_store 	hits[13] 	3736
scalar tree_4_3_u06_r6_network.node[13].content_store 	misses[13] 	10266
scalar tree_4_3_u06_r6_network.node[13].content_store 	decision_yes[13] 	10266
scalar tree_4_3_u06_r6_network.node[13].content_store 	decision_no[13] 	0
scalar tree_4_3_u06_r6_network.node[13].content_store 	decision_ratio[13] 	1
scalar tree_4_3_u06_r6_network.node[14].core_layer 	interests[14] 	13914
scalar tree_4_3_u06_r6_network.node[14].core_layer 	data[14] 	10152
scalar tree_4_3_u06_r6_network.node[14].content_store 	p_hit[14] 	0.27037516170763
scalar tree_4_3_u06_r6_network.node[14].content_store 	hits[14] 	3762
scalar tree_4_3_u06_r6_network.node[14].content_store 	misses[14] 	10152
scalar tree_4_3_u06_r6_network.node[14].content_store 	decision_yes[14] 	10152
scalar tree_4_3_u06_r6_network.node[14].content_store 	decision_no[14] 	0
scalar tree_4_3_u06_r6_network.node[14].content_store 	decision_ratio[14] 	1
scalar tree_4_3_u06_r6_network.node[15].core_layer 	interests[15] 	15714
scalar tree_4_3_u06_r6_network.node[15].core_layer 	data[15] 	9967
scalar tree_4_3_u06_r6_network.node[15].content_store 	p_hit[15] 	0.36572483136057
scalar tree_4_3_u06_r6_network.node[15].content_store 	hits[15] 	5747
scalar tree_4_3_u06_r6_network.node[15].content_store 	misses[15] 	9967
scalar tree_4_3_u06_r6_network.node[15].content_store 	decision_yes[15] 	9967
scalar tree_4_3_u06_r6_network.node[15].content_store 	decision_no[15] 	0
scalar tree_4_3_u06_r6_network.node[15].content_store 	decision_ratio[15] 	1
scalar tree_4_3_u06_r6_network.node[16].core_layer 	interests[16] 	15102
scalar tree_4_3_u06_r6_network.node[16].core_layer 	data[16] 	9975
scalar tree_4_3_u06_r6_network.node[16].content_store 	p_hit[16] 	0.33949145808502
scalar tree_4_3_u06_r6_network.node[16].content_store 	hits[16] 	5127
scalar tree_4_3_u06_r6_network.node[16].content_store 	misses[16] 	9975
scalar tree_4_3_u06_r6_network.node[16].content_store 	decision_yes[16] 	9975
scalar tree_4_3_u06_r6_network.node[16].content_store 	decision_no[16] 	0
scalar tree_4_3_u06_r6_network.node[16].content_store 	decision_ratio[16] 	1
scalar tree_4_3_u06_r6_network.node[17].core_layer 	interests[17] 	13826
scalar tree_4_3_u06_r6_network.node[17].core_layer 	data[17] 	9827
scalar tree_4_3_u06_r6_network.node[17].content_store 	p_hit[17] 	0.28923766816143
scalar tree_4_3_u06_r6_network.node[17].content_store 	hits[17] 	3999
scalar tree_4_3_u06_r6_network.node[17].content_store 	misses[17] 	9827
scalar tree_4_3_u06_r6_network.node[17].content_store 	decision_yes[17] 	9827
scalar tree_4_3_u06_r6_network.node[17].content_store 	decision_no[17] 	0
scalar tree_4_3_u06_r6_network.node[17].content_store 	decision_ratio[17] 	1
scalar tree_4_3_u06_r6_network.node[18].core_layer 	interests[18] 	13882
scalar tree_4_3_u06_r6_network.node[18].core_layer 	data[18] 	9947
scalar tree_4_3_u06_r6_network.node[18].content_store 	p_hit[18] 	0.28346059645584
scalar tree_4_3_u06_r6_network.node[18].content_store 	hits[18] 	3935
scalar tree_4_3_u06_r6_network.node[18].content_store 	misses[18] 	9947
scalar tree_4_3_u06_r6_network.node[18].content_store 	decision_yes[18] 	9947
scalar tree_4_3_u06_r6_network.node[18].content_store 	decision_no[18] 	0
scalar tree_4_3_u06_r6_network.node[18].content_store 	decision_ratio[18] 	1
scalar tree_4_3_u06_r6_network.node[19].core_layer 	interests[19] 	15740
scalar tree_4_3_u06_r6_network.node[19].core_layer 	data[19] 	10115
scalar tree_4_3_u06_r6_network.node[19].content_store 	p_hit[19] 	0.35730622617535
scalar tree_4_3_u06_r6_network.node[19].content_store 	hits[19] 	5624
scalar tree_4_3_u06_r6_network.node[19].content_store 	misses[19] 	10116
scalar tree_4_3_u06_r6_network.node[19].content_store 	decision_yes[19] 	10115
scalar tree_4_3_u06_r6_network.node[19].content_store 	decision_no[19] 	0
scalar tree_4_3_u06_r6_network.node[19].content_store 	decision_ratio[19] 	1
scalar tree_4_3_u06_r6_network.node[20].core_layer 	interests[20] 	15980
scalar tree_4_3_u06_r6_network.node[20].core_layer 	data[20] 	9961
scalar tree_4_3_u06_r6_network.node[20].content_store 	p_hit[20] 	0.37672090112641
scalar tree_4_3_u06_r6_network.node[20].content_store 	hits[20] 	6020
scalar tree_4_3_u06_r6_network.node[20].content_store 	misses[20] 	9960
scalar tree_4_3_u06_r6_network.node[20].content_store 	decision_yes[20] 	9961
scalar tree_4_3_u06_r6_network.node[20].content_store 	decision_no[20] 	0
scalar tree_4_3_u06_r6_network.node[20].content_store 	decision_ratio[20] 	1
scalar tree_4_3_u06_r6_network.node[21].core_layer 	interests[21] 	14634
scalar tree_4_3_u06_r6_network.node[21].core_layer 	data[21] 	10038
scalar tree_4_3_u06_r6_network.node[21].content_store 	p_hit[21] 	0.31406314063141
scalar tree_4_3_u06_r6_network.node[21].content_store 	hits[21] 	4596
scalar tree_4_3_u06_r6_network.node[21].content_store 	misses[21] 	10038
scalar tree_4_3_u06_r6_network.node[21].content_store 	decision_yes[21] 	10038
scalar tree_4_3_u06_r6_network.node[21].content_store 	decision_no[21] 	0
scalar tree_4_3_u06_r6_network.node[21].content_store 	decision_ratio[21] 	1
scalar tree_4_3_u06_r6_network.node[22].core_layer 	interests[22] 	14337
scalar tree_4_3_u06_r6_network.node[22].core_layer 	data[22] 	10184
scalar tree_4_3_u06_r6_network.node[22].content_store 	p_hit[22] 	0.28967008439701
scalar tree_4_3_u06_r6_network.node[22].content_store 	hits[22] 	4153
scalar tree_4_3_u06_r6_network.node[22].content_store 	misses[22] 	10184
scalar tree_4_3_u06_r6_network.node[22].content_store 	decision_yes[22] 	10184
scalar tree_4_3_u06_r6_network.node[22].content_store 	decision_no[22] 	0
scalar tree_4_3_u06_r6_network.node[22].content_store 	decision_ratio[22] 	1
scalar tree_4_3_u06_r6_network.node[23].core_layer 	interests[23] 	14134
scalar tree_4_3_u06_r6_network.node[23].core_layer 	data[23] 	9980
scalar tree_4_3_u06_r6_network.node[23].content_store 	p_hit[23] 	0.2937597283147
scalar tree_4_3_u06_r6_network.node[23].content_store 	hits[23] 	4152
scalar tree_4_3_u06_r6_network.node[23].content_store 	misses[23] 	9982
scalar tree_4_3_u06_r6_network.node[23].content_store 	decision_yes[23] 	9980
scalar tree_4_3_u06_r6_network.node[23].content_store 	decision_no[23] 	0
scalar tree_4_3_u06_r6_network.node[23].content_store 	decision_ratio[23] 	1
scalar tree_4_3_u06_r6_network.node[24].core_layer 	interests[24] 	14103
scalar tree_4_3_u06_r6_network.node[24].core_layer 	data[24] 	9955
scalar tree_4_3_u06_r6_network.node[24].content_store 	p_hit[24] 	0.2941218180529
scalar tree_4_3_u06_r6_network.node[24].content_store 	hits[24] 	4148
scalar tree_4_3_u06_r6_network.node[24].content_store 	misses[24] 	9955
scalar tree_4_3_u06_r6_network.node[24].content_store 	decision_yes[24] 	9955
scalar tree_4_3_u06_r6_network.node[24].content_store 	decision_no[24] 	0
scalar tree_4_3_u06_r6_network.node[24].content_store 	decision_ratio[24] 	1
scalar tree_4_3_u06_r6_network.node[25].core_layer 	interests[25] 	15053
scalar tree_4_3_u06_r6_network.node[25].core_layer 	data[25] 	9997
scalar tree_4_3_u06_r6_network.node[25].content_store 	p_hit[25] 	0.33574702717066
scalar tree_4_3_u06_r6_network.node[25].content_store 	hits[25] 	5054
scalar tree_4_3_u06_r6_network.node[25].content_store 	misses[25] 	9999
scalar tree_4_3_u06_r6_network.node[25].content_store 	decision_yes[25] 	9997
scalar tree_4_3_u06_r6_network.node[25].content_store 	decision_no[25] 	0
scalar tree_4_3_u06_r6_network.node[25].content_store 	decision_ratio[25] 	1
scalar tree_4_3_u06_r6_network.node[26].core_layer 	interests[26] 	13387
scalar tree_4_3_u06_r6_network.node[26].core_layer 	data[26] 	10193
scalar tree_4_3_u06_r6_network.node[26].content_store 	p_hit[26] 	0.23866437588705
scalar tree_4_3_u06_r6_network.node[26].content_store 	hits[26] 	3195
scalar tree_4_3_u06_r6_network.node[26].content_store 	misses[26] 	10192
scalar tree_4_3_u06_r6_network.node[26].content_store 	decision_yes[26] 	10193
scalar tree_4_3_u06_r6_network.node[26].content_store 	decision_no[26] 	0
scalar tree_4_3_u06_r6_network.node[26].content_store 	decision_ratio[26] 	1
scalar tree_4_3_u06_r6_network.node[27].core_layer 	interests[27] 	15447
scalar tree_4_3_u06_r6_network.node[27].core_layer 	data[27] 	9856
scalar tree_4_3_u06_r6_network.node[27].content_store 	p_hit[27] 	0.36188256619408
scalar tree_4_3_u06_r6_network.node[27].content_store 	hits[27] 	5590
scalar tree_4_3_u06_r6_network.node[27].content_store 	misses[27] 	9857
scalar tree_4_3_u06_r6_network.node[27].content_store 	decision_yes[27] 	9856
scalar tree_4_3_u06_r6_network.node[27].content_store 	decision_no[27] 	0
scalar tree_4_3_u06_r6_network.node[27].content_store 	decision_ratio[27] 	1
scalar tree_4_3_u06_r6_network.node[28].core_layer 	interests[28] 	16320
scalar tree_4_3_u06_r6_network.node[28].core_layer 	data[28] 	9903
scalar tree_4_3_u06_r6_network.node[28].content_store 	p_hit[28] 	0.39319852941176
scalar tree_4_3_u06_r6_network.node[28].content_store 	hits[28] 	6417
scalar tree_4_3_u06_r6_network.node[28].content_store 	misses[28] 	9903
scalar tree_4_3_u06_r6_network.node[28].content_store 	decision_yes[28] 	9903
scalar tree_4_3_u06_r6_network.node[28].content_store 	decision_no[28] 	0
scalar tree_4_3_u06_r6_network.node[28].content_store 	decision_ratio[28] 	1
scalar tree_4_3_u06_r6_network.node[29].core_layer 	interests[29] 	14756
scalar tree_4_3_u06_r6_network.node[29].core_layer 	data[29] 	10035
scalar tree_4_3_u06_r6_network.node[29].content_store 	p_hit[29] 	0.31980211439414
scalar tree_4_3_u06_r6_network.node[29].content_store 	hits[29] 	4719
scalar tree_4_3_u06_r6_network.node[29].content_store 	misses[29] 	10037
scalar tree_4_3_u06_r6_network.node[29].content_store 	decision_yes[29] 	10035
scalar tree_4_3_u06_r6_network.node[29].content_store 	decision_no[29] 	0
scalar tree_4_3_u06_r6_network.node[29].content_store 	decision_ratio[29] 	1
scalar tree_4_3_u06_r6_network.node[30].core_layer 	interests[30] 	14821
scalar tree_4_3_u06_r6_network.node[30].core_layer 	data[30] 	9961
scalar tree_4_3_u06_r6_network.node[30].content_store 	p_hit[30] 	0.3279130962823
scalar tree_4_3_u06_r6_network.node[30].content_store 	hits[30] 	4860
scalar tree_4_3_u06_r6_network.node[30].content_store 	misses[30] 	9961
scalar tree_4_3_u06_r6_network.node[30].content_store 	decision_yes[30] 	9961
scalar tree_4_3_u06_r6_network.node[30].content_store 	decision_no[30] 	0
scalar tree_4_3_u06_r6_network.node[30].content_store 	decision_ratio[30] 	1
scalar tree_4_3_u06_r6_network.node[31].core_layer 	interests[31] 	13717
scalar tree_4_3_u06_r6_network.node[31].core_layer 	data[31] 	10143
scalar tree_4_3_u06_r6_network.node[31].content_store 	p_hit[31] 	0.26055259896479
scalar tree_4_3_u06_r6_network.node[31].content_store 	hits[31] 	3574
scalar tree_4_3_u06_r6_network.node[31].content_store 	misses[31] 	10143
scalar tree_4_3_u06_r6_network.node[31].content_store 	decision_yes[31] 	10143
scalar tree_4_3_u06_r6_network.node[31].content_store 	decision_no[31] 	0
scalar tree_4_3_u06_r6_network.node[31].content_store 	decision_ratio[31] 	1
scalar tree_4_3_u06_r6_network.node[32].core_layer 	interests[32] 	14397
scalar tree_4_3_u06_r6_network.node[32].core_layer 	data[32] 	10183
scalar tree_4_3_u06_r6_network.node[32].content_store 	p_hit[32] 	0.29269986802806
scalar tree_4_3_u06_r6_network.node[32].content_store 	hits[32] 	4214
scalar tree_4_3_u06_r6_network.node[32].content_store 	misses[32] 	10183
scalar tree_4_3_u06_r6_network.node[32].content_store 	decision_yes[32] 	10183
scalar tree_4_3_u06_r6_network.node[32].content_store 	decision_no[32] 	0
scalar tree_4_3_u06_r6_network.node[32].content_store 	decision_ratio[32] 	1
scalar tree_4_3_u06_r6_network.node[33].core_layer 	interests[33] 	15069
scalar tree_4_3_u06_r6_network.node[33].core_layer 	data[33] 	9886
scalar tree_4_3_u06_r6_network.node[33].content_store 	p_hit[33] 	0.3438847966023
scalar tree_4_3_u06_r6_network.node[33].content_store 	hits[33] 	5182
scalar tree_4_3_u06_r6_network.node[33].content_store 	misses[33] 	9887
scalar tree_4_3_u06_r6_network.node[33].content_store 	decision_yes[33] 	9886
scalar tree_4_3_u06_r6_network.node[33].content_store 	decision_no[33] 	0
scalar tree_4_3_u06_r6_network.node[33].content_store 	decision_ratio[33] 	1
scalar tree_4_3_u06_r6_network.node[34].core_layer 	interests[34] 	14398
scalar tree_4_3_u06_r6_network.node[34].core_layer 	data[34] 	10018
scalar tree_4_3_u06_r6_network.node[34].content_store 	p_hit[34] 	0.30420891790526
scalar tree_4_3_u06_r6_network.node[34].content_store 	hits[34] 	4380
scalar tree_4_3_u06_r6_network.node[34].content_store 	misses[34] 	10018
scalar tree_4_3_u06_r6_network.node[34].content_store 	decision_yes[34] 	10018
scalar tree_4_3_u06_r6_network.node[34].content_store 	decision_no[34] 	0
scalar tree_4_3_u06_r6_network.node[34].content_store 	decision_ratio[34] 	1
scalar tree_4_3_u06_r6_network.node[35].core_layer 	interests[35] 	13605
scalar tree_4_3_u06_r6_network.node[35].core_layer 	data[35] 	9916
scalar tree_4_3_u06_r6_network.node[35].content_store 	p_hit[35] 	0.27107680999632
scalar tree_4_3_u06_r6_network.node[35].content_store 	hits[35] 	3688
scalar tree_4_3_u06_r6_network.node[35].content_store 	misses[35] 	9917
scalar tree_4_3_u06_r6_network.node[35].content_store 	decision_yes[35] 	9916
scalar tree_4_3_u06_r6_network.node[35].content_store 	decision_no[35] 	0
scalar tree_4_3_u06_r6_network.node[35].content_store 	decision_ratio[35] 	1
scalar tree_4_3_u06_r6_network.node[36].core_layer 	interests[36] 	15038
scalar tree_4_3_u06_r6_network.node[36].core_layer 	data[36] 	10152
scalar tree_4_3_u06_r6_network.node[36].content_store 	p_hit[36] 	0.32491022742386
scalar tree_4_3_u06_r6_network.node[36].content_store 	hits[36] 	4886
scalar tree_4_3_u06_r6_network.node[36].content_store 	misses[36] 	10152
scalar tree_4_3_u06_r6_network.node[36].content_store 	decision_yes[36] 	10152
scalar tree_4_3_u06_r6_network.node[36].content_store 	decision_no[36] 	0
scalar tree_4_3_u06_r6_network.node[36].content_store 	decision_ratio[36] 	1
scalar tree_4_3_u06_r6_network.node[37].core_layer 	interests[37] 	13857
scalar tree_4_3_u06_r6_network.node[37].core_layer 	data[37] 	9952
scalar tree_4_3_u06_r6_network.node[37].content_store 	p_hit[37] 	0.28173486324601
scalar tree_4_3_u06_r6_network.node[37].content_store 	hits[37] 	3904
scalar tree_4_3_u06_r6_network.node[37].content_store 	misses[37] 	9953
scalar tree_4_3_u06_r6_network.node[37].content_store 	decision_yes[37] 	9952
scalar tree_4_3_u06_r6_network.node[37].content_store 	decision_no[37] 	0
scalar tree_4_3_u06_r6_network.node[37].content_store 	decision_ratio[37] 	1
scalar tree_4_3_u06_r6_network.node[38].core_layer 	interests[38] 	14233
scalar tree_4_3_u06_r6_network.node[38].core_layer 	data[38] 	10262
scalar tree_4_3_u06_r6_network.node[38].content_store 	p_hit[38] 	0.27892924892855
scalar tree_4_3_u06_r6_network.node[38].content_store 	hits[38] 	3970
scalar tree_4_3_u06_r6_network.node[38].content_store 	misses[38] 	10263
scalar tree_4_3_u06_r6_network.node[38].content_store 	decision_yes[38] 	10262
scalar tree_4_3_u06_r6_network.node[38].content_store 	decision_no[38] 	0
scalar tree_4_3_u06_r6_network.node[38].content_store 	decision_ratio[38] 	1
scalar tree_4_3_u06_r6_network.node[39].core_layer 	interests[39] 	13921
scalar tree_4_3_u06_r6_network.node[39].core_layer 	data[39] 	9872
scalar tree_4_3_u06_r6_network.node[39].content_store 	p_hit[39] 	0.29085554198693
scalar tree_4_3_u06_r6_network.node[39].content_store 	hits[39] 	4049
scalar tree_4_3_u06_r6_network.node[39].content_store 	misses[39] 	9872
scalar tree_4_3_u06_r6_network.node[39].content_store 	decision_yes[39] 	9872
scalar tree_4_3_u06_r6_network.node[39].content_store 	decision_no[39] 	0
scalar tree_4_3_u06_r6_network.node[39].content_store 	decision_ratio[39] 	1
scalar tree_4_3_u06_r6_network.client[13] 	hdistance[13] 	3.1285035240125
scalar tree_4_3_u06_r6_network.client[13] 	downloads[13] 	12202
scalar tree_4_3_u06_r6_network.client[13] 	avg_time[13] 	0.004969495439
scalar tree_4_3_u06_r6_network.client[14] 	hdistance[14] 	3.1120079064405
scalar tree_4_3_u06_r6_network.client[14] 	downloads[14] 	12142
scalar tree_4_3_u06_r6_network.client[14] 	avg_time[14] 	0.004937733763
scalar tree_4_3_u06_r6_network.client[15] 	hdistance[15] 	3.0573886893326
scalar tree_4_3_u06_r6_network.client[15] 	downloads[15] 	11971
scalar tree_4_3_u06_r6_network.client[15] 	avg_time[15] 	0.004917628447
scalar tree_4_3_u06_r6_network.client[16] 	hdistance[16] 	3.0445913159876
scalar tree_4_3_u06_r6_network.client[16] 	downloads[16] 	11953
scalar tree_4_3_u06_r6_network.client[16] 	avg_time[16] 	0.004837815495
scalar tree_4_3_u06_r6_network.client[17] 	hdistance[17] 	3.1416935347022
scalar tree_4_3_u06_r6_network.client[17] 	downloads[17] 	11786
scalar tree_4_3_u06_r6_network.client[17] 	avg_time[17] 	0.005037668873
scalar tree_4_3_u06_r6_network.client[18] 	hdistance[18] 	3.1624872924432
scalar tree_4_3_u06_r6_network.client[18] 	downloads[18] 	11804
scalar tree_4_3_u06_r6_network.client[18] 	avg_time[18] 	0.005071101023
scalar tree_4_3_u06_r6_network.client[19] 	hdistance[19] 	3.0745552337609
scalar tree_4_3_u06_r6_network.client[19] 	downloads[19] 	12085
scalar tree_4_3_u06_r6_network.client[19] 	avg_time[19] 	0.004956950095
scalar tree_4_3_u06_r6_network.client[20] 	hdistance[20] 	3.062860969281
scalar tree_4_3_u06_r6_network.client[20] 	downloads[20] 	11947
scalar tree_4_3_u06_r6_network.client[20] 	avg_time[20] 	0.004939936504
scalar tree_4_3_u06_r6_network.client[21] 	hdistance[21] 	3.147766323024
scalar tree_4_3_u06_r6_network.client[21] 	downloads[21] 	11931
scalar tree_4_3_u06_r6_network.client[21] 	avg_time[21] 	0.005112170348
scalar tree_4_3_u06_r6_network.client[22] 	hdistance[22] 	3.1276981380788
scalar tree_4_3_u06_r6_network.client[22] 	downloads[22] 	12138
scalar tree_4_3_u06_r6_network.client[22] 	avg_time[22] 	0.004998678829
scalar tree_4_3_u06_r6_network.client[23] 	hdistance[23] 	3.1040882869325
scalar tree_4_3_u06_r6_network.client[23] 	downloads[23] 	11961
scalar tree_4_3_u06_r6_network.client[23] 	avg_time[23] 	0.004962633707
scalar tree_4_3_u06_r6_network.client[24] 	hdistance[24] 	3.1310867733783
scalar tree_4_3_u06_r6_network.client[24] 	downloads[24] 	11870
scalar tree_4_3_u06_r6_network.client[24] 	avg_time[24] 	0.004998721448
scalar tree_4_3_u06_r6_network.client[25] 	hdistance[25] 	3.0553254927944
scalar tree_4_3_u06_r6_network.client[25] 	downloads[25] 	12074
scalar tree_4_3_u06_r6_network.client[25] 	avg_time[25] 	0.004851936813
scalar tree_4_3_u06_r6_network.client[26] 	hdistance[26] 	3.2028029678483
scalar tree_4_3_u06_r6_network.client[26] 	downloads[26] 	12130
scalar tree_4_3_u06_r6_network.client[26] 	avg_time[26] 	0.005103212146
scalar tree_4_3_u06_r6_network.client[27] 	hdistance[27] 	3.0736789044779
scalar tree_4_3_u06_r6_network.client[27] 	downloads[27] 	11903
scalar tree_4_3_u06_r6_network.client[27] 	avg_time[27] 	0.004951521852
scalar tree_4_3_u06_r6_network.client[28] 	hdistance[28] 	3.0243290694758
scalar tree_4_3_u06_r6_network.client[28] 	downloads[28] 	11961
scalar tree_4_3_u06_r6_network.client[28] 	avg_time[28] 	0.004873335361
scalar tree_4_3_u06_r6_network.client[29] 	hdistance[29] 	3.1403801267089
scalar tree_4_3_u06_r6_network.client[29] 	downloads[29] 	11996
scalar tree_4_3_u06_r6_network.client[29] 	avg_time[29] 	0.00509104386
scalar tree_4_3_u06_r6_network.client[30] 	hdistance[30] 	3.1019292870746
scalar tree_4_3_u06_r6_network.client[30] 	downloads[30] 	12077
scalar tree_4_3_u06_r6_network.client[30] 	avg_time[30] 	0.005017799431
scalar tree_4_3_u06_r6_network.client[31] 	hdistance[31] 	3.1936454849498
scalar tree_4_3_u06_r6_network.client[31] 	downloads[31] 	11960
scalar tree_4_3_u06_r6_network.client[31] 	avg_time[31] 	0.0051082919
scalar tree_4_3_u06_r6_network.client[32] 	hdistance[32] 	3.0948077555044
scalar tree_4_3_u06_r6_network.client[32] 	downloads[32] 	12172
scalar tree_4_3_u06_r6_network.client[32] 	avg_time[32] 	0.004925578436
scalar tree_4_3_u06_r6_network.client[33] 	hdistance[33] 	3.0244796003331
scalar tree_4_3_u06_r6_network.client[33] 	downloads[33] 	12010
scalar tree_4_3_u06_r6_network.client[33] 	avg_time[33] 	0.004789672164
scalar tree_4_3_u06_r6_network.client[34] 	hdistance[34] 	3.1021056149732
scalar tree_4_3_u06_r6_network.client[34] 	downloads[34] 	11968
scalar tree_4_3_u06_r6_network.client[34] 	avg_time[34] 	0.004935102963
scalar tree_4_3_u06_r6_network.client[35] 	hdistance[35] 	3.1474278016334
scalar tree_4_3_u06_r6_network.client[35] 	downloads[35] 	11877
scalar tree_4_3_u06_r6_network.client[35] 	avg_time[35] 	0.005039024893
scalar tree_4_3_u06_r6_network.client[36] 	hdistance[36] 	3.067624473619
scalar tree_4_3_u06_r6_network.client[36] 	downloads[36] 	12111
scalar tree_4_3_u06_r6_network.client[36] 	avg_time[36] 	0.004867472822
scalar tree_4_3_u06_r6_network.client[37] 	hdistance[37] 	3.1076510966014
scalar tree_4_3_u06_r6_network.client[37] 	downloads[37] 	11946
scalar tree_4_3_u06_r6_network.client[37] 	avg_time[37] 	0.004957042924
scalar tree_4_3_u06_r6_network.client[38] 	hdistance[38] 	3.1407528641571
scalar tree_4_3_u06_r6_network.client[38] 	downloads[38] 	12220
scalar tree_4_3_u06_r6_network.client[38] 	avg_time[38] 	0.005003351153
scalar tree_4_3_u06_r6_network.client[39] 	hdistance[39] 	3.1127033633988
scalar tree_4_3_u06_r6_network.client[39] 	downloads[39] 	11863
scalar tree_4_3_u06_r6_network.client[39] 	avg_time[39] 	0.004965182888
