version 2
run General-120-20160818-19:45:23-19481
attr a 0.9
attr cd lce
attr configname General
attr cr lru
attr datetime 20160818-19:45:23
attr experiment General
attr fsize 1
attr inifile hw5115/scenario_A/EdgeCoop.ini
attr iterationvars "$name=tree_4_3, $un=06, $rep=1, $scenario=Edge, $cd=lce, $cr=lru, $fsize=1, $a=0.9, $sl=nrr, $ttl=1000, $variance=0.05"
attr iterationvars2 "$name=tree_4_3, $un=06, $rep=1, $scenario=Edge, $cd=lce, $cr=lru, $fsize=1, $a=0.9, $sl=nrr, $ttl=1000, $variance=0.05, $repetition=0"
attr measurement "$name=tree_4_3, $un=06, $rep=1, $scenario=Edge, $cd=lce, $cr=lru, $fsize=1, $a=0.9, $sl=nrr, $ttl=1000, $variance=0.05"
attr name tree_4_3
attr network networks.${name}_u${un}_r${rep}_network
attr processid 19481
attr rep 1
attr repetition 0
attr replication #0
attr resultdir results
attr runnumber 120
attr scenario Edge
attr seedset 1
attr sl nrr
attr ttl 1000
attr un 06
attr variance 0.05

scalar . 	a 	0.9
scalar . 	fsize 	1
scalar . 	rep 	1
scalar . 	ttl 	1000
scalar . 	un 	06
scalar . 	variance 	0.05
scalar tree_4_3_u06_r1_network.content_distribution 	repo-0 	0
scalar tree_4_3_u06_r1_network.content_distribution 	client-0 	13
scalar tree_4_3_u06_r1_network.content_distribution 	client-1 	14
scalar tree_4_3_u06_r1_network.content_distribution 	client-2 	15
scalar tree_4_3_u06_r1_network.content_distribution 	client-3 	16
scalar tree_4_3_u06_r1_network.content_distribution 	client-4 	17
scalar tree_4_3_u06_r1_network.content_distribution 	client-5 	18
scalar tree_4_3_u06_r1_network.content_distribution 	client-6 	19
scalar tree_4_3_u06_r1_network.content_distribution 	client-7 	20
scalar tree_4_3_u06_r1_network.content_distribution 	client-8 	21
scalar tree_4_3_u06_r1_network.content_distribution 	client-9 	22
scalar tree_4_3_u06_r1_network.content_distribution 	client-10 	23
scalar tree_4_3_u06_r1_network.content_distribution 	client-11 	24
scalar tree_4_3_u06_r1_network.content_distribution 	client-12 	25
scalar tree_4_3_u06_r1_network.content_distribution 	client-13 	26
scalar tree_4_3_u06_r1_network.content_distribution 	client-14 	27
scalar tree_4_3_u06_r1_network.content_distribution 	client-15 	28
scalar tree_4_3_u06_r1_network.content_distribution 	client-16 	29
scalar tree_4_3_u06_r1_network.content_distribution 	client-17 	30
scalar tree_4_3_u06_r1_network.content_distribution 	client-18 	31
scalar tree_4_3_u06_r1_network.content_distribution 	client-19 	32
scalar tree_4_3_u06_r1_network.content_distribution 	client-20 	33
scalar tree_4_3_u06_r1_network.content_distribution 	client-21 	34
scalar tree_4_3_u06_r1_network.content_distribution 	client-22 	35
scalar tree_4_3_u06_r1_network.content_distribution 	client-23 	36
scalar tree_4_3_u06_r1_network.content_distribution 	client-24 	37
scalar tree_4_3_u06_r1_network.content_distribution 	client-25 	38
scalar tree_4_3_u06_r1_network.content_distribution 	client-26 	39
scalar tree_4_3_u06_r1_network.content_distribution 	repo-0_card 	100000
scalar tree_4_3_u06_r1_network.content_distribution 	repo-0_price 	0
scalar tree_4_3_u06_r1_network.statistics 	stabilization_time 	337
scalar tree_4_3_u06_r1_network.statistics 	p_hit 	0.20330377848022
scalar tree_4_3_u06_r1_network.statistics 	interests 	28147.7
scalar tree_4_3_u06_r1_network.statistics 	data 	20050.65
scalar tree_4_3_u06_r1_network.statistics 	hdistance 	3.1125079754871
scalar tree_4_3_u06_r1_network.statistics 	avg_time 	0.004952402067
scalar tree_4_3_u06_r1_network.statistics 	downloads 	323868
scalar tree_4_3_u06_r1_network.statistics 	total_cost 	0
scalar tree_4_3_u06_r1_network.statistics 	total_replicas 	100000
scalar tree_4_3_u06_r1_network.statistics 	inner_hit 	0.36388281645609
scalar tree_4_3_u06_r1_network.node[0].core_layer 	interests[0] 	206018
scalar tree_4_3_u06_r1_network.node[0].core_layer 	repo_load[0] 	206018
scalar tree_4_3_u06_r1_network.node[0].core_layer 	data[0] 	0
scalar tree_4_3_u06_r1_network.node[0].core_layer 	repo_int[0] 	206018
scalar tree_4_3_u06_r1_network.node[0].content_store 	p_hit[0] 	0
scalar tree_4_3_u06_r1_network.node[0].content_store 	hits[0] 	0
scalar tree_4_3_u06_r1_network.node[0].content_store 	misses[0] 	206018
scalar tree_4_3_u06_r1_network.node[0].content_store 	decision_yes[0] 	0
scalar tree_4_3_u06_r1_network.node[0].content_store 	decision_no[0] 	206018
scalar tree_4_3_u06_r1_network.node[0].content_store 	decision_ratio[0] 	0
scalar tree_4_3_u06_r1_network.node[1].core_layer 	interests[1] 	106297
scalar tree_4_3_u06_r1_network.node[1].core_layer 	data[1] 	106294
scalar tree_4_3_u06_r1_network.node[1].content_store 	p_hit[1] 	0
scalar tree_4_3_u06_r1_network.node[1].content_store 	hits[1] 	0
scalar tree_4_3_u06_r1_network.node[1].content_store 	misses[1] 	106297
scalar tree_4_3_u06_r1_network.node[1].content_store 	decision_yes[1] 	0
scalar tree_4_3_u06_r1_network.node[1].content_store 	decision_no[1] 	106289
scalar tree_4_3_u06_r1_network.node[1].content_store 	decision_ratio[1] 	0
scalar tree_4_3_u06_r1_network.node[2].core_layer 	interests[2] 	74349
scalar tree_4_3_u06_r1_network.node[2].core_layer 	data[2] 	74349
scalar tree_4_3_u06_r1_network.node[2].content_store 	p_hit[2] 	0
scalar tree_4_3_u06_r1_network.node[2].content_store 	hits[2] 	0
scalar tree_4_3_u06_r1_network.node[2].content_store 	misses[2] 	74349
scalar tree_4_3_u06_r1_network.node[2].content_store 	decision_yes[2] 	0
scalar tree_4_3_u06_r1_network.node[2].content_store 	decision_no[2] 	74346
scalar tree_4_3_u06_r1_network.node[2].content_store 	decision_ratio[2] 	0
scalar tree_4_3_u06_r1_network.node[3].core_layer 	interests[3] 	52420
scalar tree_4_3_u06_r1_network.node[3].core_layer 	data[3] 	52416
scalar tree_4_3_u06_r1_network.node[3].content_store 	p_hit[3] 	0
scalar tree_4_3_u06_r1_network.node[3].content_store 	hits[3] 	0
scalar tree_4_3_u06_r1_network.node[3].content_store 	misses[3] 	52420
scalar tree_4_3_u06_r1_network.node[3].content_store 	decision_yes[3] 	0
scalar tree_4_3_u06_r1_network.node[3].content_store 	decision_no[3] 	52414
scalar tree_4_3_u06_r1_network.node[3].content_store 	decision_ratio[3] 	0
scalar tree_4_3_u06_r1_network.node[4].core_layer 	interests[4] 	49597
scalar tree_4_3_u06_r1_network.node[4].core_layer 	data[4] 	49594
scalar tree_4_3_u06_r1_network.node[4].content_store 	p_hit[4] 	0
scalar tree_4_3_u06_r1_network.node[4].content_store 	hits[4] 	0
scalar tree_4_3_u06_r1_network.node[4].content_store 	misses[4] 	49597
scalar tree_4_3_u06_r1_network.node[4].content_store 	decision_yes[4] 	0
scalar tree_4_3_u06_r1_network.node[4].content_store 	decision_no[4] 	49590
scalar tree_4_3_u06_r1_network.node[4].content_store 	decision_ratio[4] 	0
scalar tree_4_3_u06_r1_network.node[5].core_layer 	interests[5] 	30815
scalar tree_4_3_u06_r1_network.node[5].core_layer 	data[5] 	30812
scalar tree_4_3_u06_r1_network.node[5].content_store 	p_hit[5] 	0
scalar tree_4_3_u06_r1_network.node[5].content_store 	hits[5] 	0
scalar tree_4_3_u06_r1_network.node[5].content_store 	misses[5] 	30815
scalar tree_4_3_u06_r1_network.node[5].content_store 	decision_yes[5] 	0
scalar tree_4_3_u06_r1_network.node[5].content_store 	decision_no[5] 	30811
scalar tree_4_3_u06_r1_network.node[5].content_store 	decision_ratio[5] 	0
scalar tree_4_3_u06_r1_network.node[6].core_layer 	interests[6] 	18101
scalar tree_4_3_u06_r1_network.node[6].core_layer 	data[6] 	18101
scalar tree_4_3_u06_r1_network.node[6].content_store 	p_hit[6] 	0
scalar tree_4_3_u06_r1_network.node[6].content_store 	hits[6] 	0
scalar tree_4_3_u06_r1_network.node[6].content_store 	misses[6] 	18101
scalar tree_4_3_u06_r1_network.node[6].content_store 	decision_yes[6] 	0
scalar tree_4_3_u06_r1_network.node[6].content_store 	decision_no[6] 	18101
scalar tree_4_3_u06_r1_network.node[6].content_store 	decision_ratio[6] 	0
scalar tree_4_3_u06_r1_network.node[7].core_layer 	interests[7] 	38211
scalar tree_4_3_u06_r1_network.node[7].core_layer 	data[7] 	38209
scalar tree_4_3_u06_r1_network.node[7].content_store 	p_hit[7] 	0
scalar tree_4_3_u06_r1_network.node[7].content_store 	hits[7] 	0
scalar tree_4_3_u06_r1_network.node[7].content_store 	misses[7] 	38211
scalar tree_4_3_u06_r1_network.node[7].content_store 	decision_yes[7] 	0
scalar tree_4_3_u06_r1_network.node[7].content_store 	decision_no[7] 	38208
scalar tree_4_3_u06_r1_network.node[7].content_store 	decision_ratio[7] 	0
scalar tree_4_3_u06_r1_network.node[8].core_layer 	interests[8] 	22030
scalar tree_4_3_u06_r1_network.node[8].core_layer 	data[8] 	22029
scalar tree_4_3_u06_r1_network.node[8].content_store 	p_hit[8] 	0
scalar tree_4_3_u06_r1_network.node[8].content_store 	hits[8] 	0
scalar tree_4_3_u06_r1_network.node[8].content_store 	misses[8] 	22030
scalar tree_4_3_u06_r1_network.node[8].content_store 	decision_yes[8] 	0
scalar tree_4_3_u06_r1_network.node[8].content_store 	decision_no[8] 	22027
scalar tree_4_3_u06_r1_network.node[8].content_store 	decision_ratio[8] 	0
scalar tree_4_3_u06_r1_network.node[9].core_layer 	interests[9] 	38529
scalar tree_4_3_u06_r1_network.node[9].core_layer 	data[9] 	38529
scalar tree_4_3_u06_r1_network.node[9].content_store 	p_hit[9] 	0
scalar tree_4_3_u06_r1_network.node[9].content_store 	hits[9] 	0
scalar tree_4_3_u06_r1_network.node[9].content_store 	misses[9] 	38529
scalar tree_4_3_u06_r1_network.node[9].content_store 	decision_yes[9] 	0
scalar tree_4_3_u06_r1_network.node[9].content_store 	decision_no[9] 	38520
scalar tree_4_3_u06_r1_network.node[9].content_store 	decision_ratio[9] 	0
scalar tree_4_3_u06_r1_network.node[10].core_layer 	interests[10] 	44655
scalar tree_4_3_u06_r1_network.node[10].core_layer 	data[10] 	44649
scalar tree_4_3_u06_r1_network.node[10].content_store 	p_hit[10] 	0
scalar tree_4_3_u06_r1_network.node[10].content_store 	hits[10] 	0
scalar tree_4_3_u06_r1_network.node[10].content_store 	misses[10] 	44655
scalar tree_4_3_u06_r1_network.node[10].content_store 	decision_yes[10] 	0
scalar tree_4_3_u06_r1_network.node[10].content_store 	decision_no[10] 	44646
scalar tree_4_3_u06_r1_network.node[10].content_store 	decision_ratio[10] 	0
scalar tree_4_3_u06_r1_network.node[11].core_layer 	interests[11] 	33119
scalar tree_4_3_u06_r1_network.node[11].core_layer 	data[11] 	33117
scalar tree_4_3_u06_r1_network.node[11].content_store 	p_hit[11] 	0
scalar tree_4_3_u06_r1_network.node[11].content_store 	hits[11] 	0
scalar tree_4_3_u06_r1_network.node[11].content_store 	misses[11] 	33119
scalar tree_4_3_u06_r1_network.node[11].content_store 	decision_yes[11] 	0
scalar tree_4_3_u06_r1_network.node[11].content_store 	decision_no[11] 	33113
scalar tree_4_3_u06_r1_network.node[11].content_store 	decision_ratio[11] 	0
scalar tree_4_3_u06_r1_network.node[12].core_layer 	interests[12] 	22955
scalar tree_4_3_u06_r1_network.node[12].core_layer 	data[12] 	22955
scalar tree_4_3_u06_r1_network.node[12].content_store 	p_hit[12] 	0
scalar tree_4_3_u06_r1_network.node[12].content_store 	hits[12] 	0
scalar tree_4_3_u06_r1_network.node[12].content_store 	misses[12] 	22955
scalar tree_4_3_u06_r1_network.node[12].content_store 	decision_yes[12] 	0
scalar tree_4_3_u06_r1_network.node[12].content_store 	decision_no[12] 	22954
scalar tree_4_3_u06_r1_network.node[12].content_store 	decision_ratio[12] 	0
scalar tree_4_3_u06_r1_network.node[13].core_layer 	interests[13] 	13527
scalar tree_4_3_u06_r1_network.node[13].core_layer 	data[13] 	9966
scalar tree_4_3_u06_r1_network.node[13].content_store 	p_hit[13] 	0.26325127522732
scalar tree_4_3_u06_r1_network.node[13].content_store 	hits[13] 	3561
scalar tree_4_3_u06_r1_network.node[13].content_store 	misses[13] 	9966
scalar tree_4_3_u06_r1_network.node[13].content_store 	decision_yes[13] 	9966
scalar tree_4_3_u06_r1_network.node[13].content_store 	decision_no[13] 	0
scalar tree_4_3_u06_r1_network.node[13].content_store 	decision_ratio[13] 	1
scalar tree_4_3_u06_r1_network.node[14].core_layer 	interests[14] 	14372
scalar tree_4_3_u06_r1_network.node[14].core_layer 	data[14] 	9907
scalar tree_4_3_u06_r1_network.node[14].content_store 	p_hit[14] 	0.31067353186752
scalar tree_4_3_u06_r1_network.node[14].content_store 	hits[14] 	4465
scalar tree_4_3_u06_r1_network.node[14].content_store 	misses[14] 	9907
scalar tree_4_3_u06_r1_network.node[14].content_store 	decision_yes[14] 	9907
scalar tree_4_3_u06_r1_network.node[14].content_store 	decision_no[14] 	0
scalar tree_4_3_u06_r1_network.node[14].content_store 	decision_ratio[14] 	1
scalar tree_4_3_u06_r1_network.node[15].core_layer 	interests[15] 	13432
scalar tree_4_3_u06_r1_network.node[15].core_layer 	data[15] 	9887
scalar tree_4_3_u06_r1_network.node[15].content_store 	p_hit[15] 	0.26369863013699
scalar tree_4_3_u06_r1_network.node[15].content_store 	hits[15] 	3542
scalar tree_4_3_u06_r1_network.node[15].content_store 	misses[15] 	9890
scalar tree_4_3_u06_r1_network.node[15].content_store 	decision_yes[15] 	9887
scalar tree_4_3_u06_r1_network.node[15].content_store 	decision_no[15] 	0
scalar tree_4_3_u06_r1_network.node[15].content_store 	decision_ratio[15] 	1
scalar tree_4_3_u06_r1_network.node[16].core_layer 	interests[16] 	14620
scalar tree_4_3_u06_r1_network.node[16].core_layer 	data[16] 	10143
scalar tree_4_3_u06_r1_network.node[16].content_store 	p_hit[16] 	0.30615595075239
scalar tree_4_3_u06_r1_network.node[16].content_store 	hits[16] 	4476
scalar tree_4_3_u06_r1_network.node[16].content_store 	misses[16] 	10144
scalar tree_4_3_u06_r1_network.node[16].content_store 	decision_yes[16] 	10143
scalar tree_4_3_u06_r1_network.node[16].content_store 	decision_no[16] 	0
scalar tree_4_3_u06_r1_network.node[16].content_store 	decision_ratio[16] 	1
scalar tree_4_3_u06_r1_network.node[17].core_layer 	interests[17] 	13558
scalar tree_4_3_u06_r1_network.node[17].core_layer 	data[17] 	9973
scalar tree_4_3_u06_r1_network.node[17].content_store 	p_hit[17] 	0.26441953090426
scalar tree_4_3_u06_r1_network.node[17].content_store 	hits[17] 	3585
scalar tree_4_3_u06_r1_network.node[17].content_store 	misses[17] 	9973
scalar tree_4_3_u06_r1_network.node[17].content_store 	decision_yes[17] 	9973
scalar tree_4_3_u06_r1_network.node[17].content_store 	decision_no[17] 	0
scalar tree_4_3_u06_r1_network.node[17].content_store 	decision_ratio[17] 	1
scalar tree_4_3_u06_r1_network.node[18].core_layer 	interests[18] 	15188
scalar tree_4_3_u06_r1_network.node[18].core_layer 	data[18] 	10100
scalar tree_4_3_u06_r1_network.node[18].content_store 	p_hit[18] 	0.33500131682908
scalar tree_4_3_u06_r1_network.node[18].content_store 	hits[18] 	5088
scalar tree_4_3_u06_r1_network.node[18].content_store 	misses[18] 	10100
scalar tree_4_3_u06_r1_network.node[18].content_store 	decision_yes[18] 	10100
scalar tree_4_3_u06_r1_network.node[18].content_store 	decision_no[18] 	0
scalar tree_4_3_u06_r1_network.node[18].content_store 	decision_ratio[18] 	1
scalar tree_4_3_u06_r1_network.node[19].core_layer 	interests[19] 	15537
scalar tree_4_3_u06_r1_network.node[19].core_layer 	data[19] 	9977
scalar tree_4_3_u06_r1_network.node[19].content_store 	p_hit[19] 	0.35785544184849
scalar tree_4_3_u06_r1_network.node[19].content_store 	hits[19] 	5560
scalar tree_4_3_u06_r1_network.node[19].content_store 	misses[19] 	9977
scalar tree_4_3_u06_r1_network.node[19].content_store 	decision_yes[19] 	9977
scalar tree_4_3_u06_r1_network.node[19].content_store 	decision_no[19] 	0
scalar tree_4_3_u06_r1_network.node[19].content_store 	decision_ratio[19] 	1
scalar tree_4_3_u06_r1_network.node[20].core_layer 	interests[20] 	15302
scalar tree_4_3_u06_r1_network.node[20].core_layer 	data[20] 	10048
scalar tree_4_3_u06_r1_network.node[20].content_store 	p_hit[20] 	0.34328845902496
scalar tree_4_3_u06_r1_network.node[20].content_store 	hits[20] 	5253
scalar tree_4_3_u06_r1_network.node[20].content_store 	misses[20] 	10049
scalar tree_4_3_u06_r1_network.node[20].content_store 	decision_yes[20] 	10048
scalar tree_4_3_u06_r1_network.node[20].content_store 	decision_no[20] 	0
scalar tree_4_3_u06_r1_network.node[20].content_store 	decision_ratio[20] 	1
scalar tree_4_3_u06_r1_network.node[21].core_layer 	interests[21] 	14505
scalar tree_4_3_u06_r1_network.node[21].core_layer 	data[21] 	10278
scalar tree_4_3_u06_r1_network.node[21].content_store 	p_hit[21] 	0.29141675284385
scalar tree_4_3_u06_r1_network.node[21].content_store 	hits[21] 	4227
scalar tree_4_3_u06_r1_network.node[21].content_store 	misses[21] 	10278
scalar tree_4_3_u06_r1_network.node[21].content_store 	decision_yes[21] 	10278
scalar tree_4_3_u06_r1_network.node[21].content_store 	decision_no[21] 	0
scalar tree_4_3_u06_r1_network.node[21].content_store 	decision_ratio[21] 	1
scalar tree_4_3_u06_r1_network.node[22].core_layer 	interests[22] 	13074
scalar tree_4_3_u06_r1_network.node[22].core_layer 	data[22] 	9893
scalar tree_4_3_u06_r1_network.node[22].content_store 	p_hit[22] 	0.24330732752027
scalar tree_4_3_u06_r1_network.node[22].content_store 	hits[22] 	3181
scalar tree_4_3_u06_r1_network.node[22].content_store 	misses[22] 	9893
scalar tree_4_3_u06_r1_network.node[22].content_store 	decision_yes[22] 	9893
scalar tree_4_3_u06_r1_network.node[22].content_store 	decision_no[22] 	0
scalar tree_4_3_u06_r1_network.node[22].content_store 	decision_ratio[22] 	1
scalar tree_4_3_u06_r1_network.node[23].core_layer 	interests[23] 	13884
scalar tree_4_3_u06_r1_network.node[23].core_layer 	data[23] 	9997
scalar tree_4_3_u06_r1_network.node[23].content_store 	p_hit[23] 	0.27996254681648
scalar tree_4_3_u06_r1_network.node[23].content_store 	hits[23] 	3887
scalar tree_4_3_u06_r1_network.node[23].content_store 	misses[23] 	9997
scalar tree_4_3_u06_r1_network.node[23].content_store 	decision_yes[23] 	9997
scalar tree_4_3_u06_r1_network.node[23].content_store 	decision_no[23] 	0
scalar tree_4_3_u06_r1_network.node[23].content_store 	decision_ratio[23] 	1
scalar tree_4_3_u06_r1_network.node[24].core_layer 	interests[24] 	15735
scalar tree_4_3_u06_r1_network.node[24].core_layer 	data[24] 	9966
scalar tree_4_3_u06_r1_network.node[24].content_store 	p_hit[24] 	0.36650778519225
scalar tree_4_3_u06_r1_network.node[24].content_store 	hits[24] 	5767
scalar tree_4_3_u06_r1_network.node[24].content_store 	misses[24] 	9968
scalar tree_4_3_u06_r1_network.node[24].content_store 	decision_yes[24] 	9966
scalar tree_4_3_u06_r1_network.node[24].content_store 	decision_no[24] 	0
scalar tree_4_3_u06_r1_network.node[24].content_store 	decision_ratio[24] 	1
scalar tree_4_3_u06_r1_network.node[25].core_layer 	interests[25] 	13920
scalar tree_4_3_u06_r1_network.node[25].core_layer 	data[25] 	9927
scalar tree_4_3_u06_r1_network.node[25].content_store 	p_hit[25] 	0.28685344827586
scalar tree_4_3_u06_r1_network.node[25].content_store 	hits[25] 	3993
scalar tree_4_3_u06_r1_network.node[25].content_store 	misses[25] 	9927
scalar tree_4_3_u06_r1_network.node[25].content_store 	decision_yes[25] 	9927
scalar tree_4_3_u06_r1_network.node[25].content_store 	decision_no[25] 	0
scalar tree_4_3_u06_r1_network.node[25].content_store 	decision_ratio[25] 	1
scalar tree_4_3_u06_r1_network.node[26].core_layer 	interests[26] 	13377
scalar tree_4_3_u06_r1_network.node[26].core_layer 	data[26] 	9959
scalar tree_4_3_u06_r1_network.node[26].content_store 	p_hit[26] 	0.25543843911191
scalar tree_4_3_u06_r1_network.node[26].content_store 	hits[26] 	3417
scalar tree_4_3_u06_r1_network.node[26].content_store 	misses[26] 	9960
scalar tree_4_3_u06_r1_network.node[26].content_store 	decision_yes[26] 	9959
scalar tree_4_3_u06_r1_network.node[26].content_store 	decision_no[26] 	0
scalar tree_4_3_u06_r1_network.node[26].content_store 	decision_ratio[26] 	1
scalar tree_4_3_u06_r1_network.node[27].core_layer 	interests[27] 	13293
scalar tree_4_3_u06_r1_network.node[27].core_layer 	data[27] 	10089
scalar tree_4_3_u06_r1_network.node[27].content_store 	p_hit[27] 	0.24087865794027
scalar tree_4_3_u06_r1_network.node[27].content_store 	hits[27] 	3202
scalar tree_4_3_u06_r1_network.node[27].content_store 	misses[27] 	10091
scalar tree_4_3_u06_r1_network.node[27].content_store 	decision_yes[27] 	10089
scalar tree_4_3_u06_r1_network.node[27].content_store 	decision_no[27] 	0
scalar tree_4_3_u06_r1_network.node[27].content_store 	decision_ratio[27] 	1
scalar tree_4_3_u06_r1_network.node[28].core_layer 	interests[28] 	14694
scalar tree_4_3_u06_r1_network.node[28].core_layer 	data[28] 	10013
scalar tree_4_3_u06_r1_network.node[28].content_store 	p_hit[28] 	0.31856540084388
scalar tree_4_3_u06_r1_network.node[28].content_store 	hits[28] 	4681
scalar tree_4_3_u06_r1_network.node[28].content_store 	misses[28] 	10013
scalar tree_4_3_u06_r1_network.node[28].content_store 	decision_yes[28] 	10013
scalar tree_4_3_u06_r1_network.node[28].content_store 	decision_no[28] 	0
scalar tree_4_3_u06_r1_network.node[28].content_store 	decision_ratio[28] 	1
scalar tree_4_3_u06_r1_network.node[29].core_layer 	interests[29] 	15073
scalar tree_4_3_u06_r1_network.node[29].core_layer 	data[29] 	10250
scalar tree_4_3_u06_r1_network.node[29].content_store 	p_hit[29] 	0.31997611623433
scalar tree_4_3_u06_r1_network.node[29].content_store 	hits[29] 	4823
scalar tree_4_3_u06_r1_network.node[29].content_store 	misses[29] 	10250
scalar tree_4_3_u06_r1_network.node[29].content_store 	decision_yes[29] 	10250
scalar tree_4_3_u06_r1_network.node[29].content_store 	decision_no[29] 	0
scalar tree_4_3_u06_r1_network.node[29].content_store 	decision_ratio[29] 	1
scalar tree_4_3_u06_r1_network.node[30].core_layer 	interests[30] 	14960
scalar tree_4_3_u06_r1_network.node[30].core_layer 	data[30] 	10090
scalar tree_4_3_u06_r1_network.node[30].content_store 	p_hit[30] 	0.32553475935829
scalar tree_4_3_u06_r1_network.node[30].content_store 	hits[30] 	4870
scalar tree_4_3_u06_r1_network.node[30].content_store 	misses[30] 	10090
scalar tree_4_3_u06_r1_network.node[30].content_store 	decision_yes[30] 	10090
scalar tree_4_3_u06_r1_network.node[30].content_store 	decision_no[30] 	0
scalar tree_4_3_u06_r1_network.node[30].content_store 	decision_ratio[30] 	1
scalar tree_4_3_u06_r1_network.node[31].core_layer 	interests[31] 	14557
scalar tree_4_3_u06_r1_network.node[31].core_layer 	data[31] 	10165
scalar tree_4_3_u06_r1_network.node[31].content_store 	p_hit[31] 	0.30171051727691
scalar tree_4_3_u06_r1_network.node[31].content_store 	hits[31] 	4392
scalar tree_4_3_u06_r1_network.node[31].content_store 	misses[31] 	10165
scalar tree_4_3_u06_r1_network.node[31].content_store 	decision_yes[31] 	10165
scalar tree_4_3_u06_r1_network.node[31].content_store 	decision_no[31] 	0
scalar tree_4_3_u06_r1_network.node[31].content_store 	decision_ratio[31] 	1
scalar tree_4_3_u06_r1_network.node[32].core_layer 	interests[32] 	15383
scalar tree_4_3_u06_r1_network.node[32].core_layer 	data[32] 	9973
scalar tree_4_3_u06_r1_network.node[32].content_store 	p_hit[32] 	0.35162192030163
scalar tree_4_3_u06_r1_network.node[32].content_store 	hits[32] 	5409
scalar tree_4_3_u06_r1_network.node[32].content_store 	misses[32] 	9974
scalar tree_4_3_u06_r1_network.node[32].content_store 	decision_yes[32] 	9973
scalar tree_4_3_u06_r1_network.node[32].content_store 	decision_no[32] 	0
scalar tree_4_3_u06_r1_network.node[32].content_store 	decision_ratio[32] 	1
scalar tree_4_3_u06_r1_network.node[33].core_layer 	interests[33] 	14609
scalar tree_4_3_u06_r1_network.node[33].core_layer 	data[33] 	10278
scalar tree_4_3_u06_r1_network.node[33].content_store 	p_hit[33] 	0.29632418372236
scalar tree_4_3_u06_r1_network.node[33].content_store 	hits[33] 	4329
scalar tree_4_3_u06_r1_network.node[33].content_store 	misses[33] 	10280
scalar tree_4_3_u06_r1_network.node[33].content_store 	decision_yes[33] 	10278
scalar tree_4_3_u06_r1_network.node[33].content_store 	decision_no[33] 	0
scalar tree_4_3_u06_r1_network.node[33].content_store 	decision_ratio[33] 	1
scalar tree_4_3_u06_r1_network.node[34].core_layer 	interests[34] 	15399
scalar tree_4_3_u06_r1_network.node[34].core_layer 	data[34] 	10081
scalar tree_4_3_u06_r1_network.node[34].content_store 	p_hit[34] 	0.3452821611793
scalar tree_4_3_u06_r1_network.node[34].content_store 	hits[34] 	5317
scalar tree_4_3_u06_r1_network.node[34].content_store 	misses[34] 	10082
scalar tree_4_3_u06_r1_network.node[34].content_store 	decision_yes[34] 	10081
scalar tree_4_3_u06_r1_network.node[34].content_store 	decision_no[34] 	0
scalar tree_4_3_u06_r1_network.node[34].content_store 	decision_ratio[34] 	1
scalar tree_4_3_u06_r1_network.node[35].core_layer 	interests[35] 	13905
scalar tree_4_3_u06_r1_network.node[35].core_layer 	data[35] 	10134
scalar tree_4_3_u06_r1_network.node[35].content_store 	p_hit[35] 	0.27119741100324
scalar tree_4_3_u06_r1_network.node[35].content_store 	hits[35] 	3771
scalar tree_4_3_u06_r1_network.node[35].content_store 	misses[35] 	10134
scalar tree_4_3_u06_r1_network.node[35].content_store 	decision_yes[35] 	10134
scalar tree_4_3_u06_r1_network.node[35].content_store 	decision_no[35] 	0
scalar tree_4_3_u06_r1_network.node[35].content_store 	decision_ratio[35] 	1
scalar tree_4_3_u06_r1_network.node[36].core_layer 	interests[36] 	14805
scalar tree_4_3_u06_r1_network.node[36].core_layer 	data[36] 	10006
scalar tree_4_3_u06_r1_network.node[36].content_store 	p_hit[36] 	0.3241472475515
scalar tree_4_3_u06_r1_network.node[36].content_store 	hits[36] 	4799
scalar tree_4_3_u06_r1_network.node[36].content_store 	misses[36] 	10006
scalar tree_4_3_u06_r1_network.node[36].content_store 	decision_yes[36] 	10006
scalar tree_4_3_u06_r1_network.node[36].content_store 	decision_no[36] 	0
scalar tree_4_3_u06_r1_network.node[36].content_store 	decision_ratio[36] 	1
scalar tree_4_3_u06_r1_network.node[37].core_layer 	interests[37] 	13804
scalar tree_4_3_u06_r1_network.node[37].core_layer 	data[37] 	9971
scalar tree_4_3_u06_r1_network.node[37].content_store 	p_hit[37] 	0.27760069545059
scalar tree_4_3_u06_r1_network.node[37].content_store 	hits[37] 	3832
scalar tree_4_3_u06_r1_network.node[37].content_store 	misses[37] 	9972
scalar tree_4_3_u06_r1_network.node[37].content_store 	decision_yes[37] 	9971
scalar tree_4_3_u06_r1_network.node[37].content_store 	decision_no[37] 	0
scalar tree_4_3_u06_r1_network.node[37].content_store 	decision_ratio[37] 	1
scalar tree_4_3_u06_r1_network.node[38].core_layer 	interests[38] 	14674
scalar tree_4_3_u06_r1_network.node[38].core_layer 	data[38] 	9931
scalar tree_4_3_u06_r1_network.node[38].content_store 	p_hit[38] 	0.32322475126073
scalar tree_4_3_u06_r1_network.node[38].content_store 	hits[38] 	4743
scalar tree_4_3_u06_r1_network.node[38].content_store 	misses[38] 	9931
scalar tree_4_3_u06_r1_network.node[38].content_store 	decision_yes[38] 	9931
scalar tree_4_3_u06_r1_network.node[38].content_store 	decision_no[38] 	0
scalar tree_4_3_u06_r1_network.node[38].content_store 	decision_ratio[38] 	1
scalar tree_4_3_u06_r1_network.node[39].core_layer 	interests[39] 	13625
scalar tree_4_3_u06_r1_network.node[39].core_layer 	data[39] 	9970
scalar tree_4_3_u06_r1_network.node[39].content_store 	p_hit[39] 	0.26825688073394
scalar tree_4_3_u06_r1_network.node[39].content_store 	hits[39] 	3655
scalar tree_4_3_u06_r1_network.node[39].content_store 	misses[39] 	9970
scalar tree_4_3_u06_r1_network.node[39].content_store 	decision_yes[39] 	9970
scalar tree_4_3_u06_r1_network.node[39].content_store 	decision_no[39] 	0
scalar tree_4_3_u06_r1_network.node[39].content_store 	decision_ratio[39] 	1
scalar tree_4_3_u06_r1_network.client[13] 	hdistance[13] 	3.1155137676293
scalar tree_4_3_u06_r1_network.client[13] 	downloads[13] 	11912
scalar tree_4_3_u06_r1_network.client[13] 	avg_time[13] 	0.004930487297
scalar tree_4_3_u06_r1_network.client[14] 	hdistance[14] 	3.0502736842105
scalar tree_4_3_u06_r1_network.client[14] 	downloads[14] 	11875
scalar tree_4_3_u06_r1_network.client[14] 	avg_time[14] 	0.004793298377
scalar tree_4_3_u06_r1_network.client[15] 	hdistance[15] 	3.1304569390182
scalar tree_4_3_u06_r1_network.client[15] 	downloads[15] 	11774
scalar tree_4_3_u06_r1_network.client[15] 	avg_time[15] 	0.004951417274
scalar tree_4_3_u06_r1_network.client[16] 	hdistance[16] 	3.072002651421
scalar tree_4_3_u06_r1_network.client[16] 	downloads[16] 	12069
scalar tree_4_3_u06_r1_network.client[16] 	avg_time[16] 	0.004827024205
scalar tree_4_3_u06_r1_network.client[17] 	hdistance[17] 	3.1233428427588
scalar tree_4_3_u06_r1_network.client[17] 	downloads[17] 	11918
scalar tree_4_3_u06_r1_network.client[17] 	avg_time[17] 	0.004939284931
scalar tree_4_3_u06_r1_network.client[18] 	hdistance[18] 	3.0624380574827
scalar tree_4_3_u06_r1_network.client[18] 	downloads[18] 	12108
scalar tree_4_3_u06_r1_network.client[18] 	avg_time[18] 	0.004900228257
scalar tree_4_3_u06_r1_network.client[19] 	hdistance[19] 	3.0430350129523
scalar tree_4_3_u06_r1_network.client[19] 	downloads[19] 	11967
scalar tree_4_3_u06_r1_network.client[19] 	avg_time[19] 	0.004860907603
scalar tree_4_3_u06_r1_network.client[20] 	hdistance[20] 	3.0253206182177
scalar tree_4_3_u06_r1_network.client[20] 	downloads[20] 	12164
scalar tree_4_3_u06_r1_network.client[20] 	avg_time[20] 	0.004843766994
scalar tree_4_3_u06_r1_network.client[21] 	hdistance[21] 	3.174718130195
scalar tree_4_3_u06_r1_network.client[21] 	downloads[21] 	12151
scalar tree_4_3_u06_r1_network.client[21] 	avg_time[21] 	0.005120659804
scalar tree_4_3_u06_r1_network.client[22] 	hdistance[22] 	3.1537809426924
scalar tree_4_3_u06_r1_network.client[22] 	downloads[22] 	11796
scalar tree_4_3_u06_r1_network.client[22] 	avg_time[22] 	0.004945741369
scalar tree_4_3_u06_r1_network.client[23] 	hdistance[23] 	3.1034713508992
scalar tree_4_3_u06_r1_network.client[23] 	downloads[23] 	11955
scalar tree_4_3_u06_r1_network.client[23] 	avg_time[23] 	0.004836392915
scalar tree_4_3_u06_r1_network.client[24] 	hdistance[24] 	3.078715734764
scalar tree_4_3_u06_r1_network.client[24] 	downloads[24] 	11929
scalar tree_4_3_u06_r1_network.client[24] 	avg_time[24] 	0.004926653393
scalar tree_4_3_u06_r1_network.client[25] 	hdistance[25] 	3.0863701097428
scalar tree_4_3_u06_r1_network.client[25] 	downloads[25] 	11937
scalar tree_4_3_u06_r1_network.client[25] 	avg_time[25] 	0.004805224437
scalar tree_4_3_u06_r1_network.client[26] 	hdistance[26] 	3.1473218016211
scalar tree_4_3_u06_r1_network.client[26] 	downloads[26] 	11967
scalar tree_4_3_u06_r1_network.client[26] 	avg_time[26] 	0.004934284394
scalar tree_4_3_u06_r1_network.client[27] 	hdistance[27] 	3.1631618319342
scalar tree_4_3_u06_r1_network.client[27] 	downloads[27] 	12031
scalar tree_4_3_u06_r1_network.client[27] 	avg_time[27] 	0.004964864902
scalar tree_4_3_u06_r1_network.client[28] 	hdistance[28] 	3.1471792728792
scalar tree_4_3_u06_r1_network.client[28] 	downloads[28] 	11965
scalar tree_4_3_u06_r1_network.client[28] 	avg_time[28] 	0.005074297053
scalar tree_4_3_u06_r1_network.client[29] 	hdistance[29] 	3.1370566653078
scalar tree_4_3_u06_r1_network.client[29] 	downloads[29] 	12265
scalar tree_4_3_u06_r1_network.client[29] 	avg_time[29] 	0.005064943122
scalar tree_4_3_u06_r1_network.client[30] 	hdistance[30] 	3.1469343731851
scalar tree_4_3_u06_r1_network.client[30] 	downloads[30] 	12053
scalar tree_4_3_u06_r1_network.client[30] 	avg_time[30] 	0.005078566651
scalar tree_4_3_u06_r1_network.client[31] 	hdistance[31] 	3.1836564866439
scalar tree_4_3_u06_r1_network.client[31] 	downloads[31] 	12017
scalar tree_4_3_u06_r1_network.client[31] 	avg_time[31] 	0.005140418201
scalar tree_4_3_u06_r1_network.client[32] 	hdistance[32] 	3.0582063452411
scalar tree_4_3_u06_r1_network.client[32] 	downloads[32] 	12009
scalar tree_4_3_u06_r1_network.client[32] 	avg_time[32] 	0.004894222116
scalar tree_4_3_u06_r1_network.client[33] 	hdistance[33] 	3.1866083944916
scalar tree_4_3_u06_r1_network.client[33] 	downloads[33] 	12127
scalar tree_4_3_u06_r1_network.client[33] 	avg_time[33] 	0.005130821149
scalar tree_4_3_u06_r1_network.client[34] 	hdistance[34] 	3.0542852442836
scalar tree_4_3_u06_r1_network.client[34] 	downloads[34] 	12158
scalar tree_4_3_u06_r1_network.client[34] 	avg_time[34] 	0.004883221312
scalar tree_4_3_u06_r1_network.client[35] 	hdistance[35] 	3.1298798176544
scalar tree_4_3_u06_r1_network.client[35] 	downloads[35] 	12065
scalar tree_4_3_u06_r1_network.client[35] 	avg_time[35] 	0.004980390561
scalar tree_4_3_u06_r1_network.client[36] 	hdistance[36] 	3.0693448908151
scalar tree_4_3_u06_r1_network.client[36] 	downloads[36] 	11998
scalar tree_4_3_u06_r1_network.client[36] 	avg_time[36] 	0.004880128603
scalar tree_4_3_u06_r1_network.client[37] 	hdistance[37] 	3.1618647627047
scalar tree_4_3_u06_r1_network.client[37] 	downloads[37] 	11905
scalar tree_4_3_u06_r1_network.client[37] 	avg_time[37] 	0.005057255487
scalar tree_4_3_u06_r1_network.client[38] 	hdistance[38] 	3.0578664877558
scalar tree_4_3_u06_r1_network.client[38] 	downloads[38] 	11924
scalar tree_4_3_u06_r1_network.client[38] 	avg_time[38] 	0.004868779195
scalar tree_4_3_u06_r1_network.client[39] 	hdistance[39] 	3.1749091216502
scalar tree_4_3_u06_r1_network.client[39] 	downloads[39] 	11829
scalar tree_4_3_u06_r1_network.client[39] 	avg_time[39] 	0.005081576213
