version 2
run General-135-20160818-19:56:31-19481
attr a 0.9
attr cd lce
attr configname General
attr cr lru
attr datetime 20160818-19:56:31
attr experiment General
attr fsize 1
attr inifile hw5115/scenario_A/EdgeCoop.ini
attr iterationvars "$name=tree_4_3, $un=06, $rep=16, $scenario=Edge, $cd=lce, $cr=lru, $fsize=1, $a=0.9, $sl=nrr, $ttl=1000, $variance=0.05"
attr iterationvars2 "$name=tree_4_3, $un=06, $rep=16, $scenario=Edge, $cd=lce, $cr=lru, $fsize=1, $a=0.9, $sl=nrr, $ttl=1000, $variance=0.05, $repetition=0"
attr measurement "$name=tree_4_3, $un=06, $rep=16, $scenario=Edge, $cd=lce, $cr=lru, $fsize=1, $a=0.9, $sl=nrr, $ttl=1000, $variance=0.05"
attr name tree_4_3
attr network networks.${name}_u${un}_r${rep}_network
attr processid 19481
attr rep 16
attr repetition 0
attr replication #0
attr resultdir results
attr runnumber 135
attr scenario Edge
attr seedset 16
attr sl nrr
attr ttl 1000
attr un 06
attr variance 0.05

scalar . 	a 	0.9
scalar . 	fsize 	1
scalar . 	rep 	16
scalar . 	ttl 	1000
scalar . 	un 	06
scalar . 	variance 	0.05
scalar tree_4_3_u06_r16_network.content_distribution 	repo-0 	0
scalar tree_4_3_u06_r16_network.content_distribution 	client-0 	13
scalar tree_4_3_u06_r16_network.content_distribution 	client-1 	14
scalar tree_4_3_u06_r16_network.content_distribution 	client-2 	15
scalar tree_4_3_u06_r16_network.content_distribution 	client-3 	16
scalar tree_4_3_u06_r16_network.content_distribution 	client-4 	17
scalar tree_4_3_u06_r16_network.content_distribution 	client-5 	18
scalar tree_4_3_u06_r16_network.content_distribution 	client-6 	19
scalar tree_4_3_u06_r16_network.content_distribution 	client-7 	20
scalar tree_4_3_u06_r16_network.content_distribution 	client-8 	21
scalar tree_4_3_u06_r16_network.content_distribution 	client-9 	22
scalar tree_4_3_u06_r16_network.content_distribution 	client-10 	23
scalar tree_4_3_u06_r16_network.content_distribution 	client-11 	24
scalar tree_4_3_u06_r16_network.content_distribution 	client-12 	25
scalar tree_4_3_u06_r16_network.content_distribution 	client-13 	26
scalar tree_4_3_u06_r16_network.content_distribution 	client-14 	27
scalar tree_4_3_u06_r16_network.content_distribution 	client-15 	28
scalar tree_4_3_u06_r16_network.content_distribution 	client-16 	29
scalar tree_4_3_u06_r16_network.content_distribution 	client-17 	30
scalar tree_4_3_u06_r16_network.content_distribution 	client-18 	31
scalar tree_4_3_u06_r16_network.content_distribution 	client-19 	32
scalar tree_4_3_u06_r16_network.content_distribution 	client-20 	33
scalar tree_4_3_u06_r16_network.content_distribution 	client-21 	34
scalar tree_4_3_u06_r16_network.content_distribution 	client-22 	35
scalar tree_4_3_u06_r16_network.content_distribution 	client-23 	36
scalar tree_4_3_u06_r16_network.content_distribution 	client-24 	37
scalar tree_4_3_u06_r16_network.content_distribution 	client-25 	38
scalar tree_4_3_u06_r16_network.content_distribution 	client-26 	39
scalar tree_4_3_u06_r16_network.content_distribution 	repo-0_card 	100000
scalar tree_4_3_u06_r16_network.content_distribution 	repo-0_price 	0
scalar tree_4_3_u06_r16_network.statistics 	stabilization_time 	336
scalar tree_4_3_u06_r16_network.statistics 	p_hit 	0.21162177637504
scalar tree_4_3_u06_r16_network.statistics 	interests 	28400.525
scalar tree_4_3_u06_r16_network.statistics 	data 	20313.675
scalar tree_4_3_u06_r16_network.statistics 	hdistance 	3.1262416817634
scalar tree_4_3_u06_r16_network.statistics 	avg_time 	0.005024162698
scalar tree_4_3_u06_r16_network.statistics 	downloads 	323459
scalar tree_4_3_u06_r16_network.statistics 	total_cost 	0
scalar tree_4_3_u06_r16_network.statistics 	total_replicas 	100000
scalar tree_4_3_u06_r16_network.statistics 	inner_hit 	0.38587579878748
scalar tree_4_3_u06_r16_network.node[0].core_layer 	interests[0] 	198644
scalar tree_4_3_u06_r16_network.node[0].core_layer 	repo_load[0] 	198644
scalar tree_4_3_u06_r16_network.node[0].core_layer 	data[0] 	0
scalar tree_4_3_u06_r16_network.node[0].core_layer 	repo_int[0] 	198644
scalar tree_4_3_u06_r16_network.node[0].content_store 	p_hit[0] 	0
scalar tree_4_3_u06_r16_network.node[0].content_store 	hits[0] 	0
scalar tree_4_3_u06_r16_network.node[0].content_store 	misses[0] 	198644
scalar tree_4_3_u06_r16_network.node[0].content_store 	decision_yes[0] 	0
scalar tree_4_3_u06_r16_network.node[0].content_store 	decision_no[0] 	198644
scalar tree_4_3_u06_r16_network.node[0].content_store 	decision_ratio[0] 	0
scalar tree_4_3_u06_r16_network.node[1].core_layer 	interests[1] 	104994
scalar tree_4_3_u06_r16_network.node[1].core_layer 	data[1] 	104993
scalar tree_4_3_u06_r16_network.node[1].content_store 	p_hit[1] 	0
scalar tree_4_3_u06_r16_network.node[1].content_store 	hits[1] 	0
scalar tree_4_3_u06_r16_network.node[1].content_store 	misses[1] 	104994
scalar tree_4_3_u06_r16_network.node[1].content_store 	decision_yes[1] 	0
scalar tree_4_3_u06_r16_network.node[1].content_store 	decision_no[1] 	104989
scalar tree_4_3_u06_r16_network.node[1].content_store 	decision_ratio[1] 	0
scalar tree_4_3_u06_r16_network.node[2].core_layer 	interests[2] 	114549
scalar tree_4_3_u06_r16_network.node[2].core_layer 	data[2] 	114538
scalar tree_4_3_u06_r16_network.node[2].content_store 	p_hit[2] 	0
scalar tree_4_3_u06_r16_network.node[2].content_store 	hits[2] 	0
scalar tree_4_3_u06_r16_network.node[2].content_store 	misses[2] 	114549
scalar tree_4_3_u06_r16_network.node[2].content_store 	decision_yes[2] 	0
scalar tree_4_3_u06_r16_network.node[2].content_store 	decision_no[2] 	114527
scalar tree_4_3_u06_r16_network.node[2].content_store 	decision_ratio[2] 	0
scalar tree_4_3_u06_r16_network.node[3].core_layer 	interests[3] 	15397
scalar tree_4_3_u06_r16_network.node[3].core_layer 	data[3] 	15396
scalar tree_4_3_u06_r16_network.node[3].content_store 	p_hit[3] 	0
scalar tree_4_3_u06_r16_network.node[3].content_store 	hits[3] 	0
scalar tree_4_3_u06_r16_network.node[3].content_store 	misses[3] 	15397
scalar tree_4_3_u06_r16_network.node[3].content_store 	decision_yes[3] 	0
scalar tree_4_3_u06_r16_network.node[3].content_store 	decision_no[3] 	15396
scalar tree_4_3_u06_r16_network.node[3].content_store 	decision_ratio[3] 	0
scalar tree_4_3_u06_r16_network.node[4].core_layer 	interests[4] 	40986
scalar tree_4_3_u06_r16_network.node[4].core_layer 	data[4] 	40987
scalar tree_4_3_u06_r16_network.node[4].content_store 	p_hit[4] 	0
scalar tree_4_3_u06_r16_network.node[4].content_store 	hits[4] 	0
scalar tree_4_3_u06_r16_network.node[4].content_store 	misses[4] 	40986
scalar tree_4_3_u06_r16_network.node[4].content_store 	decision_yes[4] 	0
scalar tree_4_3_u06_r16_network.node[4].content_store 	decision_no[4] 	40985
scalar tree_4_3_u06_r16_network.node[4].content_store 	decision_ratio[4] 	0
scalar tree_4_3_u06_r16_network.node[5].core_layer 	interests[5] 	37301
scalar tree_4_3_u06_r16_network.node[5].core_layer 	data[5] 	37301
scalar tree_4_3_u06_r16_network.node[5].content_store 	p_hit[5] 	0
scalar tree_4_3_u06_r16_network.node[5].content_store 	hits[5] 	0
scalar tree_4_3_u06_r16_network.node[5].content_store 	misses[5] 	37301
scalar tree_4_3_u06_r16_network.node[5].content_store 	decision_yes[5] 	0
scalar tree_4_3_u06_r16_network.node[5].content_store 	decision_no[5] 	37300
scalar tree_4_3_u06_r16_network.node[5].content_store 	decision_ratio[5] 	0
scalar tree_4_3_u06_r16_network.node[6].core_layer 	interests[6] 	24172
scalar tree_4_3_u06_r16_network.node[6].core_layer 	data[6] 	24172
scalar tree_4_3_u06_r16_network.node[6].content_store 	p_hit[6] 	0
scalar tree_4_3_u06_r16_network.node[6].content_store 	hits[6] 	0
scalar tree_4_3_u06_r16_network.node[6].content_store 	misses[6] 	24172
scalar tree_4_3_u06_r16_network.node[6].content_store 	decision_yes[6] 	0
scalar tree_4_3_u06_r16_network.node[6].content_store 	decision_no[6] 	24171
scalar tree_4_3_u06_r16_network.node[6].content_store 	decision_ratio[6] 	0
scalar tree_4_3_u06_r16_network.node[7].core_layer 	interests[7] 	32938
scalar tree_4_3_u06_r16_network.node[7].core_layer 	data[7] 	32935
scalar tree_4_3_u06_r16_network.node[7].content_store 	p_hit[7] 	0
scalar tree_4_3_u06_r16_network.node[7].content_store 	hits[7] 	0
scalar tree_4_3_u06_r16_network.node[7].content_store 	misses[7] 	32938
scalar tree_4_3_u06_r16_network.node[7].content_store 	decision_yes[7] 	0
scalar tree_4_3_u06_r16_network.node[7].content_store 	decision_no[7] 	32931
scalar tree_4_3_u06_r16_network.node[7].content_store 	decision_ratio[7] 	0
scalar tree_4_3_u06_r16_network.node[8].core_layer 	interests[8] 	42124
scalar tree_4_3_u06_r16_network.node[8].core_layer 	data[8] 	42119
scalar tree_4_3_u06_r16_network.node[8].content_store 	p_hit[8] 	0
scalar tree_4_3_u06_r16_network.node[8].content_store 	hits[8] 	0
scalar tree_4_3_u06_r16_network.node[8].content_store 	misses[8] 	42124
scalar tree_4_3_u06_r16_network.node[8].content_store 	decision_yes[8] 	0
scalar tree_4_3_u06_r16_network.node[8].content_store 	decision_no[8] 	42113
scalar tree_4_3_u06_r16_network.node[8].content_store 	decision_ratio[8] 	0
scalar tree_4_3_u06_r16_network.node[9].core_layer 	interests[9] 	26338
scalar tree_4_3_u06_r16_network.node[9].core_layer 	data[9] 	26334
scalar tree_4_3_u06_r16_network.node[9].content_store 	p_hit[9] 	0
scalar tree_4_3_u06_r16_network.node[9].content_store 	hits[9] 	0
scalar tree_4_3_u06_r16_network.node[9].content_store 	misses[9] 	26338
scalar tree_4_3_u06_r16_network.node[9].content_store 	decision_yes[9] 	0
scalar tree_4_3_u06_r16_network.node[9].content_store 	decision_no[9] 	26333
scalar tree_4_3_u06_r16_network.node[9].content_store 	decision_ratio[9] 	0
scalar tree_4_3_u06_r16_network.node[10].core_layer 	interests[10] 	42025
scalar tree_4_3_u06_r16_network.node[10].core_layer 	data[10] 	42022
scalar tree_4_3_u06_r16_network.node[10].content_store 	p_hit[10] 	0
scalar tree_4_3_u06_r16_network.node[10].content_store 	hits[10] 	0
scalar tree_4_3_u06_r16_network.node[10].content_store 	misses[10] 	42025
scalar tree_4_3_u06_r16_network.node[10].content_store 	decision_yes[10] 	0
scalar tree_4_3_u06_r16_network.node[10].content_store 	decision_no[10] 	42017
scalar tree_4_3_u06_r16_network.node[10].content_store 	decision_ratio[10] 	0
scalar tree_4_3_u06_r16_network.node[11].core_layer 	interests[11] 	47028
scalar tree_4_3_u06_r16_network.node[11].core_layer 	data[11] 	47025
scalar tree_4_3_u06_r16_network.node[11].content_store 	p_hit[11] 	0
scalar tree_4_3_u06_r16_network.node[11].content_store 	hits[11] 	0
scalar tree_4_3_u06_r16_network.node[11].content_store 	misses[11] 	47028
scalar tree_4_3_u06_r16_network.node[11].content_store 	decision_yes[11] 	0
scalar tree_4_3_u06_r16_network.node[11].content_store 	decision_no[11] 	47022
scalar tree_4_3_u06_r16_network.node[11].content_store 	decision_ratio[11] 	0
scalar tree_4_3_u06_r16_network.node[12].core_layer 	interests[12] 	14048
scalar tree_4_3_u06_r16_network.node[12].core_layer 	data[12] 	14048
scalar tree_4_3_u06_r16_network.node[12].content_store 	p_hit[12] 	0
scalar tree_4_3_u06_r16_network.node[12].content_store 	hits[12] 	0
scalar tree_4_3_u06_r16_network.node[12].content_store 	misses[12] 	14048
scalar tree_4_3_u06_r16_network.node[12].content_store 	decision_yes[12] 	0
scalar tree_4_3_u06_r16_network.node[12].content_store 	decision_no[12] 	14047
scalar tree_4_3_u06_r16_network.node[12].content_store 	decision_ratio[12] 	0
scalar tree_4_3_u06_r16_network.node[13].core_layer 	interests[13] 	13774
scalar tree_4_3_u06_r16_network.node[13].core_layer 	data[13] 	10078
scalar tree_4_3_u06_r16_network.node[13].content_store 	p_hit[13] 	0.26833163932046
scalar tree_4_3_u06_r16_network.node[13].content_store 	hits[13] 	3696
scalar tree_4_3_u06_r16_network.node[13].content_store 	misses[13] 	10078
scalar tree_4_3_u06_r16_network.node[13].content_store 	decision_yes[13] 	10078
scalar tree_4_3_u06_r16_network.node[13].content_store 	decision_no[13] 	0
scalar tree_4_3_u06_r16_network.node[13].content_store 	decision_ratio[13] 	1
scalar tree_4_3_u06_r16_network.node[14].core_layer 	interests[14] 	13518
scalar tree_4_3_u06_r16_network.node[14].core_layer 	data[14] 	10059
scalar tree_4_3_u06_r16_network.node[14].content_store 	p_hit[14] 	0.25588104749223
scalar tree_4_3_u06_r16_network.node[14].content_store 	hits[14] 	3459
scalar tree_4_3_u06_r16_network.node[14].content_store 	misses[14] 	10059
scalar tree_4_3_u06_r16_network.node[14].content_store 	decision_yes[14] 	10059
scalar tree_4_3_u06_r16_network.node[14].content_store 	decision_no[14] 	0
scalar tree_4_3_u06_r16_network.node[14].content_store 	decision_ratio[14] 	1
scalar tree_4_3_u06_r16_network.node[15].core_layer 	interests[15] 	13814
scalar tree_4_3_u06_r16_network.node[15].core_layer 	data[15] 	10225
scalar tree_4_3_u06_r16_network.node[15].content_store 	p_hit[15] 	0.25973649920371
scalar tree_4_3_u06_r16_network.node[15].content_store 	hits[15] 	3588
scalar tree_4_3_u06_r16_network.node[15].content_store 	misses[15] 	10226
scalar tree_4_3_u06_r16_network.node[15].content_store 	decision_yes[15] 	10225
scalar tree_4_3_u06_r16_network.node[15].content_store 	decision_no[15] 	0
scalar tree_4_3_u06_r16_network.node[15].content_store 	decision_ratio[15] 	1
scalar tree_4_3_u06_r16_network.node[16].core_layer 	interests[16] 	15915
scalar tree_4_3_u06_r16_network.node[16].core_layer 	data[16] 	9937
scalar tree_4_3_u06_r16_network.node[16].content_store 	p_hit[16] 	0.37574615142947
scalar tree_4_3_u06_r16_network.node[16].content_store 	hits[16] 	5980
scalar tree_4_3_u06_r16_network.node[16].content_store 	misses[16] 	9935
scalar tree_4_3_u06_r16_network.node[16].content_store 	decision_yes[16] 	9937
scalar tree_4_3_u06_r16_network.node[16].content_store 	decision_no[16] 	0
scalar tree_4_3_u06_r16_network.node[16].content_store 	decision_ratio[16] 	1
scalar tree_4_3_u06_r16_network.node[17].core_layer 	interests[17] 	14841
scalar tree_4_3_u06_r16_network.node[17].core_layer 	data[17] 	10113
scalar tree_4_3_u06_r16_network.node[17].content_store 	p_hit[17] 	0.3185769153022
scalar tree_4_3_u06_r16_network.node[17].content_store 	hits[17] 	4728
scalar tree_4_3_u06_r16_network.node[17].content_store 	misses[17] 	10113
scalar tree_4_3_u06_r16_network.node[17].content_store 	decision_yes[17] 	10113
scalar tree_4_3_u06_r16_network.node[17].content_store 	decision_no[17] 	0
scalar tree_4_3_u06_r16_network.node[17].content_store 	decision_ratio[17] 	1
scalar tree_4_3_u06_r16_network.node[18].core_layer 	interests[18] 	15735
scalar tree_4_3_u06_r16_network.node[18].core_layer 	data[18] 	10018
scalar tree_4_3_u06_r16_network.node[18].content_store 	p_hit[18] 	0.36333015570384
scalar tree_4_3_u06_r16_network.node[18].content_store 	hits[18] 	5717
scalar tree_4_3_u06_r16_network.node[18].content_store 	misses[18] 	10018
scalar tree_4_3_u06_r16_network.node[18].content_store 	decision_yes[18] 	10018
scalar tree_4_3_u06_r16_network.node[18].content_store 	decision_no[18] 	0
scalar tree_4_3_u06_r16_network.node[18].content_store 	decision_ratio[18] 	1
scalar tree_4_3_u06_r16_network.node[19].core_layer 	interests[19] 	14092
scalar tree_4_3_u06_r16_network.node[19].core_layer 	data[19] 	9861
scalar tree_4_3_u06_r16_network.node[19].content_store 	p_hit[19] 	0.30009934714732
scalar tree_4_3_u06_r16_network.node[19].content_store 	hits[19] 	4229
scalar tree_4_3_u06_r16_network.node[19].content_store 	misses[19] 	9863
scalar tree_4_3_u06_r16_network.node[19].content_store 	decision_yes[19] 	9861
scalar tree_4_3_u06_r16_network.node[19].content_store 	decision_no[19] 	0
scalar tree_4_3_u06_r16_network.node[19].content_store 	decision_ratio[19] 	1
scalar tree_4_3_u06_r16_network.node[20].core_layer 	interests[20] 	15797
scalar tree_4_3_u06_r16_network.node[20].core_layer 	data[20] 	10048
scalar tree_4_3_u06_r16_network.node[20].content_store 	p_hit[20] 	0.36399316325885
scalar tree_4_3_u06_r16_network.node[20].content_store 	hits[20] 	5750
scalar tree_4_3_u06_r16_network.node[20].content_store 	misses[20] 	10047
scalar tree_4_3_u06_r16_network.node[20].content_store 	decision_yes[20] 	10048
scalar tree_4_3_u06_r16_network.node[20].content_store 	decision_no[20] 	0
scalar tree_4_3_u06_r16_network.node[20].content_store 	decision_ratio[20] 	1
scalar tree_4_3_u06_r16_network.node[21].core_layer 	interests[21] 	14269
scalar tree_4_3_u06_r16_network.node[21].core_layer 	data[21] 	9941
scalar tree_4_3_u06_r16_network.node[21].content_store 	p_hit[21] 	0.3032447964118
scalar tree_4_3_u06_r16_network.node[21].content_store 	hits[21] 	4327
scalar tree_4_3_u06_r16_network.node[21].content_store 	misses[21] 	9942
scalar tree_4_3_u06_r16_network.node[21].content_store 	decision_yes[21] 	9941
scalar tree_4_3_u06_r16_network.node[21].content_store 	decision_no[21] 	0
scalar tree_4_3_u06_r16_network.node[21].content_store 	decision_ratio[21] 	1
scalar tree_4_3_u06_r16_network.node[22].core_layer 	interests[22] 	13854
scalar tree_4_3_u06_r16_network.node[22].core_layer 	data[22] 	9948
scalar tree_4_3_u06_r16_network.node[22].content_store 	p_hit[22] 	0.281868052548
scalar tree_4_3_u06_r16_network.node[22].content_store 	hits[22] 	3905
scalar tree_4_3_u06_r16_network.node[22].content_store 	misses[22] 	9949
scalar tree_4_3_u06_r16_network.node[22].content_store 	decision_yes[22] 	9948
scalar tree_4_3_u06_r16_network.node[22].content_store 	decision_no[22] 	0
scalar tree_4_3_u06_r16_network.node[22].content_store 	decision_ratio[22] 	1
scalar tree_4_3_u06_r16_network.node[23].core_layer 	interests[23] 	13618
scalar tree_4_3_u06_r16_network.node[23].core_layer 	data[23] 	9778
scalar tree_4_3_u06_r16_network.node[23].content_store 	p_hit[23] 	0.28197973270671
scalar tree_4_3_u06_r16_network.node[23].content_store 	hits[23] 	3840
scalar tree_4_3_u06_r16_network.node[23].content_store 	misses[23] 	9778
scalar tree_4_3_u06_r16_network.node[23].content_store 	decision_yes[23] 	9778
scalar tree_4_3_u06_r16_network.node[23].content_store 	decision_no[23] 	0
scalar tree_4_3_u06_r16_network.node[23].content_store 	decision_ratio[23] 	1
scalar tree_4_3_u06_r16_network.node[24].core_layer 	interests[24] 	13861
scalar tree_4_3_u06_r16_network.node[24].core_layer 	data[24] 	9992
scalar tree_4_3_u06_r16_network.node[24].content_store 	p_hit[24] 	0.27898420027415
scalar tree_4_3_u06_r16_network.node[24].content_store 	hits[24] 	3867
scalar tree_4_3_u06_r16_network.node[24].content_store 	misses[24] 	9994
scalar tree_4_3_u06_r16_network.node[24].content_store 	decision_yes[24] 	9992
scalar tree_4_3_u06_r16_network.node[24].content_store 	decision_no[24] 	0
scalar tree_4_3_u06_r16_network.node[24].content_store 	decision_ratio[24] 	1
scalar tree_4_3_u06_r16_network.node[25].core_layer 	interests[25] 	13872
scalar tree_4_3_u06_r16_network.node[25].core_layer 	data[25] 	9989
scalar tree_4_3_u06_r16_network.node[25].content_store 	p_hit[25] 	0.27984429065744
scalar tree_4_3_u06_r16_network.node[25].content_store 	hits[25] 	3882
scalar tree_4_3_u06_r16_network.node[25].content_store 	misses[25] 	9990
scalar tree_4_3_u06_r16_network.node[25].content_store 	decision_yes[25] 	9989
scalar tree_4_3_u06_r16_network.node[25].content_store 	decision_no[25] 	0
scalar tree_4_3_u06_r16_network.node[25].content_store 	decision_ratio[25] 	1
scalar tree_4_3_u06_r16_network.node[26].core_layer 	interests[26] 	14033
scalar tree_4_3_u06_r16_network.node[26].core_layer 	data[26] 	10205
scalar tree_4_3_u06_r16_network.node[26].content_store 	p_hit[26] 	0.27278557685456
scalar tree_4_3_u06_r16_network.node[26].content_store 	hits[26] 	3828
scalar tree_4_3_u06_r16_network.node[26].content_store 	misses[26] 	10205
scalar tree_4_3_u06_r16_network.node[26].content_store 	decision_yes[26] 	10205
scalar tree_4_3_u06_r16_network.node[26].content_store 	decision_no[26] 	0
scalar tree_4_3_u06_r16_network.node[26].content_store 	decision_ratio[26] 	1
scalar tree_4_3_u06_r16_network.node[27].core_layer 	interests[27] 	15466
scalar tree_4_3_u06_r16_network.node[27].core_layer 	data[27] 	10009
scalar tree_4_3_u06_r16_network.node[27].content_store 	p_hit[27] 	0.35264451053925
scalar tree_4_3_u06_r16_network.node[27].content_store 	hits[27] 	5454
scalar tree_4_3_u06_r16_network.node[27].content_store 	misses[27] 	10012
scalar tree_4_3_u06_r16_network.node[27].content_store 	decision_yes[27] 	10009
scalar tree_4_3_u06_r16_network.node[27].content_store 	decision_no[27] 	0
scalar tree_4_3_u06_r16_network.node[27].content_store 	decision_ratio[27] 	1
scalar tree_4_3_u06_r16_network.node[28].core_layer 	interests[28] 	14462
scalar tree_4_3_u06_r16_network.node[28].core_layer 	data[28] 	10042
scalar tree_4_3_u06_r16_network.node[28].content_store 	p_hit[28] 	0.30555939704052
scalar tree_4_3_u06_r16_network.node[28].content_store 	hits[28] 	4419
scalar tree_4_3_u06_r16_network.node[28].content_store 	misses[28] 	10043
scalar tree_4_3_u06_r16_network.node[28].content_store 	decision_yes[28] 	10042
scalar tree_4_3_u06_r16_network.node[28].content_store 	decision_no[28] 	0
scalar tree_4_3_u06_r16_network.node[28].content_store 	decision_ratio[28] 	1
scalar tree_4_3_u06_r16_network.node[29].core_layer 	interests[29] 	15499
scalar tree_4_3_u06_r16_network.node[29].core_layer 	data[29] 	10102
scalar tree_4_3_u06_r16_network.node[29].content_store 	p_hit[29] 	0.34821601393638
scalar tree_4_3_u06_r16_network.node[29].content_store 	hits[29] 	5397
scalar tree_4_3_u06_r16_network.node[29].content_store 	misses[29] 	10102
scalar tree_4_3_u06_r16_network.node[29].content_store 	decision_yes[29] 	10102
scalar tree_4_3_u06_r16_network.node[29].content_store 	decision_no[29] 	0
scalar tree_4_3_u06_r16_network.node[29].content_store 	decision_ratio[29] 	1
scalar tree_4_3_u06_r16_network.node[30].core_layer 	interests[30] 	14488
scalar tree_4_3_u06_r16_network.node[30].core_layer 	data[30] 	9939
scalar tree_4_3_u06_r16_network.node[30].content_store 	p_hit[30] 	0.31391496410823
scalar tree_4_3_u06_r16_network.node[30].content_store 	hits[30] 	4548
scalar tree_4_3_u06_r16_network.node[30].content_store 	misses[30] 	9940
scalar tree_4_3_u06_r16_network.node[30].content_store 	decision_yes[30] 	9939
scalar tree_4_3_u06_r16_network.node[30].content_store 	decision_no[30] 	0
scalar tree_4_3_u06_r16_network.node[30].content_store 	decision_ratio[30] 	1
scalar tree_4_3_u06_r16_network.node[31].core_layer 	interests[31] 	14063
scalar tree_4_3_u06_r16_network.node[31].core_layer 	data[31] 	10114
scalar tree_4_3_u06_r16_network.node[31].content_store 	p_hit[31] 	0.28066557633506
scalar tree_4_3_u06_r16_network.node[31].content_store 	hits[31] 	3947
scalar tree_4_3_u06_r16_network.node[31].content_store 	misses[31] 	10116
scalar tree_4_3_u06_r16_network.node[31].content_store 	decision_yes[31] 	10114
scalar tree_4_3_u06_r16_network.node[31].content_store 	decision_no[31] 	0
scalar tree_4_3_u06_r16_network.node[31].content_store 	decision_ratio[31] 	1
scalar tree_4_3_u06_r16_network.node[32].core_layer 	interests[32] 	16083
scalar tree_4_3_u06_r16_network.node[32].core_layer 	data[32] 	9971
scalar tree_4_3_u06_r16_network.node[32].content_store 	p_hit[32] 	0.38002860162905
scalar tree_4_3_u06_r16_network.node[32].content_store 	hits[32] 	6112
scalar tree_4_3_u06_r16_network.node[32].content_store 	misses[32] 	9971
scalar tree_4_3_u06_r16_network.node[32].content_store 	decision_yes[32] 	9971
scalar tree_4_3_u06_r16_network.node[32].content_store 	decision_no[32] 	0
scalar tree_4_3_u06_r16_network.node[32].content_store 	decision_ratio[32] 	1
scalar tree_4_3_u06_r16_network.node[33].core_layer 	interests[33] 	15042
scalar tree_4_3_u06_r16_network.node[33].core_layer 	data[33] 	9930
scalar tree_4_3_u06_r16_network.node[33].content_store 	p_hit[33] 	0.33978194389044
scalar tree_4_3_u06_r16_network.node[33].content_store 	hits[33] 	5111
scalar tree_4_3_u06_r16_network.node[33].content_store 	misses[33] 	9931
scalar tree_4_3_u06_r16_network.node[33].content_store 	decision_yes[33] 	9930
scalar tree_4_3_u06_r16_network.node[33].content_store 	decision_no[33] 	0
scalar tree_4_3_u06_r16_network.node[33].content_store 	decision_ratio[33] 	1
scalar tree_4_3_u06_r16_network.node[34].core_layer 	interests[34] 	14845
scalar tree_4_3_u06_r16_network.node[34].core_layer 	data[34] 	10172
scalar tree_4_3_u06_r16_network.node[34].content_store 	p_hit[34] 	0.31478612327383
scalar tree_4_3_u06_r16_network.node[34].content_store 	hits[34] 	4673
scalar tree_4_3_u06_r16_network.node[34].content_store 	misses[34] 	10172
scalar tree_4_3_u06_r16_network.node[34].content_store 	decision_yes[34] 	10172
scalar tree_4_3_u06_r16_network.node[34].content_store 	decision_no[34] 	0
scalar tree_4_3_u06_r16_network.node[34].content_store 	decision_ratio[34] 	1
scalar tree_4_3_u06_r16_network.node[35].core_layer 	interests[35] 	14741
scalar tree_4_3_u06_r16_network.node[35].core_layer 	data[35] 	10070
scalar tree_4_3_u06_r16_network.node[35].content_store 	p_hit[35] 	0.3168713113086
scalar tree_4_3_u06_r16_network.node[35].content_store 	hits[35] 	4671
scalar tree_4_3_u06_r16_network.node[35].content_store 	misses[35] 	10070
scalar tree_4_3_u06_r16_network.node[35].content_store 	decision_yes[35] 	10070
scalar tree_4_3_u06_r16_network.node[35].content_store 	decision_no[35] 	0
scalar tree_4_3_u06_r16_network.node[35].content_store 	decision_ratio[35] 	1
scalar tree_4_3_u06_r16_network.node[36].core_layer 	interests[36] 	15589
scalar tree_4_3_u06_r16_network.node[36].core_layer 	data[36] 	10046
scalar tree_4_3_u06_r16_network.node[36].content_store 	p_hit[36] 	0.35557123612804
scalar tree_4_3_u06_r16_network.node[36].content_store 	hits[36] 	5543
scalar tree_4_3_u06_r16_network.node[36].content_store 	misses[36] 	10046
scalar tree_4_3_u06_r16_network.node[36].content_store 	decision_yes[36] 	10046
scalar tree_4_3_u06_r16_network.node[36].content_store 	decision_no[36] 	0
scalar tree_4_3_u06_r16_network.node[36].content_store 	decision_ratio[36] 	1
scalar tree_4_3_u06_r16_network.node[37].core_layer 	interests[37] 	14923
scalar tree_4_3_u06_r16_network.node[37].core_layer 	data[37] 	10024
scalar tree_4_3_u06_r16_network.node[37].content_store 	p_hit[37] 	0.32828519734638
scalar tree_4_3_u06_r16_network.node[37].content_store 	hits[37] 	4899
scalar tree_4_3_u06_r16_network.node[37].content_store 	misses[37] 	10024
scalar tree_4_3_u06_r16_network.node[37].content_store 	decision_yes[37] 	10024
scalar tree_4_3_u06_r16_network.node[37].content_store 	decision_no[37] 	0
scalar tree_4_3_u06_r16_network.node[37].content_store 	decision_ratio[37] 	1
scalar tree_4_3_u06_r16_network.node[38].core_layer 	interests[38] 	15544
scalar tree_4_3_u06_r16_network.node[38].core_layer 	data[38] 	10025
scalar tree_4_3_u06_r16_network.node[38].content_store 	p_hit[38] 	0.3550566134843
scalar tree_4_3_u06_r16_network.node[38].content_store 	hits[38] 	5519
scalar tree_4_3_u06_r16_network.node[38].content_store 	misses[38] 	10025
scalar tree_4_3_u06_r16_network.node[38].content_store 	decision_yes[38] 	10025
scalar tree_4_3_u06_r16_network.node[38].content_store 	decision_no[38] 	0
scalar tree_4_3_u06_r16_network.node[38].content_store 	decision_ratio[38] 	1
scalar tree_4_3_u06_r16_network.node[39].core_layer 	interests[39] 	13739
scalar tree_4_3_u06_r16_network.node[39].core_layer 	data[39] 	10041
scalar tree_4_3_u06_r16_network.node[39].content_store 	p_hit[39] 	0.26908799767086
scalar tree_4_3_u06_r16_network.node[39].content_store 	hits[39] 	3697
scalar tree_4_3_u06_r16_network.node[39].content_store 	misses[39] 	10042
scalar tree_4_3_u06_r16_network.node[39].content_store 	decision_yes[39] 	10041
scalar tree_4_3_u06_r16_network.node[39].content_store 	decision_no[39] 	0
scalar tree_4_3_u06_r16_network.node[39].content_store 	decision_ratio[39] 	1
scalar tree_4_3_u06_r16_network.client[13] 	hdistance[13] 	3.1407566495952
scalar tree_4_3_u06_r16_network.client[13] 	downloads[13] 	12106
scalar tree_4_3_u06_r16_network.client[13] 	avg_time[13] 	0.00499158144
scalar tree_4_3_u06_r16_network.client[14] 	hdistance[14] 	3.1617536534447
scalar tree_4_3_u06_r16_network.client[14] 	downloads[14] 	11975
scalar tree_4_3_u06_r16_network.client[14] 	avg_time[14] 	0.005021186511
scalar tree_4_3_u06_r16_network.client[15] 	hdistance[15] 	3.1603927986907
scalar tree_4_3_u06_r16_network.client[15] 	downloads[15] 	12220
scalar tree_4_3_u06_r16_network.client[15] 	avg_time[15] 	0.005013931405
scalar tree_4_3_u06_r16_network.client[16] 	hdistance[16] 	3.0760302775442
scalar tree_4_3_u06_r16_network.client[16] 	downloads[16] 	11890
scalar tree_4_3_u06_r16_network.client[16] 	avg_time[16] 	0.004949627112
scalar tree_4_3_u06_r16_network.client[17] 	hdistance[17] 	3.1600831600832
scalar tree_4_3_u06_r16_network.client[17] 	downloads[17] 	12025
scalar tree_4_3_u06_r16_network.client[17] 	avg_time[17] 	0.005124154967
scalar tree_4_3_u06_r16_network.client[18] 	hdistance[18] 	3.0816581866711
scalar tree_4_3_u06_r16_network.client[18] 	downloads[18] 	11989
scalar tree_4_3_u06_r16_network.client[18] 	avg_time[18] 	0.004970349145
scalar tree_4_3_u06_r16_network.client[19] 	hdistance[19] 	3.1592280880728
scalar tree_4_3_u06_r16_network.client[19] 	downloads[19] 	11763
scalar tree_4_3_u06_r16_network.client[19] 	avg_time[19] 	0.005084131673
scalar tree_4_3_u06_r16_network.client[20] 	hdistance[20] 	3.0739667025594
scalar tree_4_3_u06_r16_network.client[20] 	downloads[20] 	12073
scalar tree_4_3_u06_r16_network.client[20] 	avg_time[20] 	0.004971089522
scalar tree_4_3_u06_r16_network.client[21] 	hdistance[21] 	3.1617920540997
scalar tree_4_3_u06_r16_network.client[21] 	downloads[21] 	11830
scalar tree_4_3_u06_r16_network.client[21] 	avg_time[21] 	0.005098895141
scalar tree_4_3_u06_r16_network.client[22] 	hdistance[22] 	3.1972138301443
scalar tree_4_3_u06_r16_network.client[22] 	downloads[22] 	11916
scalar tree_4_3_u06_r16_network.client[22] 	avg_time[22] 	0.005148490139
scalar tree_4_3_u06_r16_network.client[23] 	hdistance[23] 	3.1927792915531
scalar tree_4_3_u06_r16_network.client[23] 	downloads[23] 	11744
scalar tree_4_3_u06_r16_network.client[23] 	avg_time[23] 	0.005145733502
scalar tree_4_3_u06_r16_network.client[24] 	hdistance[24] 	3.2036199095023
scalar tree_4_3_u06_r16_network.client[24] 	downloads[24] 	11934
scalar tree_4_3_u06_r16_network.client[24] 	avg_time[24] 	0.005153778771
scalar tree_4_3_u06_r16_network.client[25] 	hdistance[25] 	3.1625715247392
scalar tree_4_3_u06_r16_network.client[25] 	downloads[25] 	11884
scalar tree_4_3_u06_r16_network.client[25] 	avg_time[25] 	0.005069735038
scalar tree_4_3_u06_r16_network.client[26] 	hdistance[26] 	3.1861313868613
scalar tree_4_3_u06_r16_network.client[26] 	downloads[26] 	12056
scalar tree_4_3_u06_r16_network.client[26] 	avg_time[26] 	0.005105387888
scalar tree_4_3_u06_r16_network.client[27] 	hdistance[27] 	3.0699173553719
scalar tree_4_3_u06_r16_network.client[27] 	downloads[27] 	12100
scalar tree_4_3_u06_r16_network.client[27] 	avg_time[27] 	0.004935625547
scalar tree_4_3_u06_r16_network.client[28] 	hdistance[28] 	3.1383287693967
scalar tree_4_3_u06_r16_network.client[28] 	downloads[28] 	12051
scalar tree_4_3_u06_r16_network.client[28] 	avg_time[28] 	0.005077833726
scalar tree_4_3_u06_r16_network.client[29] 	hdistance[29] 	3.0998683777558
scalar tree_4_3_u06_r16_network.client[29] 	downloads[29] 	12156
scalar tree_4_3_u06_r16_network.client[29] 	avg_time[29] 	0.004983014934
scalar tree_4_3_u06_r16_network.client[30] 	hdistance[30] 	3.1480144404332
scalar tree_4_3_u06_r16_network.client[30] 	downloads[30] 	11911
scalar tree_4_3_u06_r16_network.client[30] 	avg_time[30] 	0.005093341456
scalar tree_4_3_u06_r16_network.client[31] 	hdistance[31] 	3.1837933059307
scalar tree_4_3_u06_r16_network.client[31] 	downloads[31] 	11921
scalar tree_4_3_u06_r16_network.client[31] 	avg_time[31] 	0.005146936471
scalar tree_4_3_u06_r16_network.client[32] 	hdistance[32] 	3.0474598930481
scalar tree_4_3_u06_r16_network.client[32] 	downloads[32] 	11968
scalar tree_4_3_u06_r16_network.client[32] 	avg_time[32] 	0.00491176167
scalar tree_4_3_u06_r16_network.client[33] 	hdistance[33] 	3.0566164154104
scalar tree_4_3_u06_r16_network.client[33] 	downloads[33] 	11940
scalar tree_4_3_u06_r16_network.client[33] 	avg_time[33] 	0.00489204883
scalar tree_4_3_u06_r16_network.client[34] 	hdistance[34] 	3.1171215880893
scalar tree_4_3_u06_r16_network.client[34] 	downloads[34] 	12090
scalar tree_4_3_u06_r16_network.client[34] 	avg_time[34] 	0.005040686497
scalar tree_4_3_u06_r16_network.client[35] 	hdistance[35] 	3.1211995002082
scalar tree_4_3_u06_r16_network.client[35] 	downloads[35] 	12005
scalar tree_4_3_u06_r16_network.client[35] 	avg_time[35] 	0.005025736287
scalar tree_4_3_u06_r16_network.client[36] 	hdistance[36] 	3.0468893145665
scalar tree_4_3_u06_r16_network.client[36] 	downloads[36] 	12007
scalar tree_4_3_u06_r16_network.client[36] 	avg_time[36] 	0.004887236787
scalar tree_4_3_u06_r16_network.client[37] 	hdistance[37] 	3.0758068551413
scalar tree_4_3_u06_r16_network.client[37] 	downloads[37] 	11991
scalar tree_4_3_u06_r16_network.client[37] 	avg_time[37] 	0.004917964603
scalar tree_4_3_u06_r16_network.client[38] 	hdistance[38] 	3.0408705765077
scalar tree_4_3_u06_r16_network.client[38] 	downloads[38] 	12038
scalar tree_4_3_u06_r16_network.client[38] 	avg_time[38] 	0.00487135853
scalar tree_4_3_u06_r16_network.client[39] 	hdistance[39] 	3.1446615021893
scalar tree_4_3_u06_r16_network.client[39] 	downloads[39] 	11876
scalar tree_4_3_u06_r16_network.client[39] 	avg_time[39] 	0.005020775262
