version 2
run General-59-20160823-13:18:13-12979
attr D wfc0.01
attr F nrr
attr R lru
attr a 1
attr configname General
attr datetime 20160823-13:18:13
attr experiment General
attr inifile hw5115/scenario_B/bus.ini
attr iterationvars "$net=bus, $rep=0, $a=1, $F=nrr, $D=wfc0.01, $R=lru, $window=60, $variance=0.05, $mytime=600, $test=test"
attr iterationvars2 "$net=bus, $rep=0, $a=1, $F=nrr, $D=wfc0.01, $R=lru, $window=60, $variance=0.05, $mytime=600, $test=test, $repetition=0"
attr measurement "$net=bus, $rep=0, $a=1, $F=nrr, $D=wfc0.01, $R=lru, $window=60, $variance=0.05, $mytime=600, $test=test"
attr mytime 600
attr net bus
attr network networks.${net=bus}_network
attr processid 12979
attr rep 0
attr repetition 0
attr replication #0
attr resultdir results
attr runnumber 59
attr seedset 0
attr test test
attr variance 0.05
attr window 60

scalar . 	a 	1
scalar . 	mytime 	600
scalar . 	rep 	0
scalar . 	variance 	0.05
scalar . 	window 	60
scalar bus_network.content_distribution 	repo-0 	9
scalar bus_network.content_distribution 	client-0 	5
scalar bus_network.content_distribution 	client-1 	8
scalar bus_network.content_distribution 	client-2 	9
scalar bus_network.content_distribution 	client-3 	0
scalar bus_network.content_distribution 	client-4 	1
scalar bus_network.content_distribution 	client-5 	7
scalar bus_network.content_distribution 	client-6 	6
scalar bus_network.content_distribution 	client-7 	2
scalar bus_network.content_distribution 	client-8 	4
scalar bus_network.content_distribution 	client-9 	3
scalar bus_network.content_distribution 	repo-0_card 	100000
scalar bus_network.content_distribution 	repo-0_price 	0
scalar bus_network.statistics 	stabilization_time 	695.3
scalar bus_network.statistics 	p_hit 	0.18004072524473
scalar bus_network.statistics 	interests 	41638.8
scalar bus_network.statistics 	data 	29628.7
scalar bus_network.statistics 	hdistance 	2.9882739634994
scalar bus_network.statistics 	avg_time 	0.004939056919
scalar bus_network.statistics 	downloads 	120100
scalar bus_network.statistics 	total_cost 	0
scalar bus_network.statistics 	total_replicas 	100000
scalar bus_network.statistics 	inner_hit 	0.48139050791007
scalar bus_network.node[0].core_layer 	interests[0] 	12253
scalar bus_network.node[0].core_layer 	data[0] 	6851
scalar bus_network.node[0].core_layer 	repo_int[0] 	62285
scalar bus_network.node[0].content_store 	p_hit[0] 	0.44087162327593
scalar bus_network.node[0].content_store 	hits[0] 	5402
scalar bus_network.node[0].content_store 	misses[0] 	6851
scalar bus_network.node[0].content_store 	decision_yes[0] 	106
scalar bus_network.node[0].content_store 	decision_no[0] 	6745
scalar bus_network.node[0].content_store 	decision_ratio[0] 	0.015472193840315
scalar bus_network.node[1].core_layer 	interests[1] 	19703
scalar bus_network.node[1].core_layer 	data[1] 	13968
scalar bus_network.node[1].content_store 	p_hit[1] 	0.29107242551896
scalar bus_network.node[1].content_store 	hits[1] 	5735
scalar bus_network.node[1].content_store 	misses[1] 	13968
scalar bus_network.node[1].content_store 	decision_yes[1] 	247
scalar bus_network.node[1].content_store 	decision_no[1] 	13721
scalar bus_network.node[1].content_store 	decision_ratio[1] 	0.017683276059565
scalar bus_network.node[2].core_layer 	interests[2] 	26905
scalar bus_network.node[2].core_layer 	data[2] 	21019
scalar bus_network.node[2].content_store 	p_hit[2] 	0.21876974540048
scalar bus_network.node[2].content_store 	hits[2] 	5886
scalar bus_network.node[2].content_store 	misses[2] 	21019
scalar bus_network.node[2].content_store 	decision_yes[2] 	393
scalar bus_network.node[2].content_store 	decision_no[2] 	20626
scalar bus_network.node[2].content_store 	decision_ratio[2] 	0.018697369047053
scalar bus_network.node[3].core_layer 	interests[3] 	33619
scalar bus_network.node[3].core_layer 	data[3] 	27575
scalar bus_network.node[3].content_store 	p_hit[3] 	0.17974954638746
scalar bus_network.node[3].content_store 	hits[3] 	6043
scalar bus_network.node[3].content_store 	misses[3] 	27576
scalar bus_network.node[3].content_store 	decision_yes[3] 	403
scalar bus_network.node[3].content_store 	decision_no[3] 	27172
scalar bus_network.node[3].content_store 	decision_ratio[3] 	0.014614687216682
scalar bus_network.node[4].core_layer 	interests[4] 	40175
scalar bus_network.node[4].core_layer 	data[4] 	33980
scalar bus_network.node[4].content_store 	p_hit[4] 	0.15417548226509
scalar bus_network.node[4].content_store 	hits[4] 	6194
scalar bus_network.node[4].content_store 	misses[4] 	33981
scalar bus_network.node[4].content_store 	decision_yes[4] 	453
scalar bus_network.node[4].content_store 	decision_no[4] 	33527
scalar bus_network.node[4].content_store 	decision_ratio[4] 	0.013331371394938
scalar bus_network.node[5].core_layer 	interests[5] 	45958
scalar bus_network.node[5].core_layer 	data[5] 	40003
scalar bus_network.node[5].content_store 	p_hit[5] 	0.12953131119718
scalar bus_network.node[5].content_store 	hits[5] 	5953
scalar bus_network.node[5].content_store 	misses[5] 	40005
scalar bus_network.node[5].content_store 	decision_yes[5] 	509
scalar bus_network.node[5].content_store 	decision_no[5] 	39494
scalar bus_network.node[5].content_store 	decision_ratio[5] 	0.012724045696573
scalar bus_network.node[6].core_layer 	interests[6] 	51401
scalar bus_network.node[6].core_layer 	data[6] 	45391
scalar bus_network.node[6].content_store 	p_hit[6] 	0.1169237952569
scalar bus_network.node[6].content_store 	hits[6] 	6010
scalar bus_network.node[6].content_store 	misses[6] 	45391
scalar bus_network.node[6].content_store 	decision_yes[6] 	574
scalar bus_network.node[6].content_store 	decision_no[6] 	44817
scalar bus_network.node[6].content_store 	decision_ratio[6] 	0.012645678658765
scalar bus_network.node[7].core_layer 	interests[7] 	57015
scalar bus_network.node[7].core_layer 	data[7] 	50952
scalar bus_network.node[7].content_store 	p_hit[7] 	0.10634043672718
scalar bus_network.node[7].content_store 	hits[7] 	6063
scalar bus_network.node[7].content_store 	misses[7] 	50952
scalar bus_network.node[7].content_store 	decision_yes[7] 	589
scalar bus_network.node[7].content_store 	decision_no[7] 	50363
scalar bus_network.node[7].content_store 	decision_ratio[7] 	0.011559899513267
scalar bus_network.node[8].core_layer 	interests[8] 	61736
scalar bus_network.node[8].core_layer 	data[8] 	56548
scalar bus_network.node[8].content_store 	p_hit[8] 	0.084035246857587
scalar bus_network.node[8].content_store 	hits[8] 	5188
scalar bus_network.node[8].content_store 	misses[8] 	56548
scalar bus_network.node[8].content_store 	decision_yes[8] 	686
scalar bus_network.node[8].content_store 	decision_no[8] 	55862
scalar bus_network.node[8].content_store 	decision_ratio[8] 	0.01213128669449
scalar bus_network.node[9].core_layer 	interests[9] 	67623
scalar bus_network.node[9].core_layer 	repo_load[9] 	62285
scalar bus_network.node[9].core_layer 	data[9] 	0
scalar bus_network.node[9].content_store 	p_hit[9] 	0.078937639560505
scalar bus_network.node[9].content_store 	hits[9] 	5338
scalar bus_network.node[9].content_store 	misses[9] 	62285
scalar bus_network.node[9].content_store 	decision_yes[9] 	1426
scalar bus_network.node[9].content_store 	decision_no[9] 	60859
scalar bus_network.node[9].content_store 	decision_ratio[9] 	0.022894757967408
scalar bus_network.client[0] 	hdistance[0] 	5.258986096982
scalar bus_network.client[0] 	downloads[0] 	11796
scalar bus_network.client[0] 	avg_time[0] 	0.00955696552
scalar bus_network.client[1] 	hdistance[1] 	4.7392753019576
scalar bus_network.client[1] 	downloads[1] 	12005
scalar bus_network.client[1] 	avg_time[1] 	0.008505952854
scalar bus_network.client[2] 	hdistance[2] 	4.2835098087499
scalar bus_network.client[2] 	downloads[2] 	12183
scalar bus_network.client[2] 	avg_time[2] 	0.007578918387
scalar bus_network.client[3] 	hdistance[3] 	3.7567997321952
scalar bus_network.client[3] 	downloads[3] 	11949
scalar bus_network.client[3] 	avg_time[3] 	0.006521896259
scalar bus_network.client[4] 	hdistance[4] 	3.2381346806925
scalar bus_network.client[4] 	downloads[4] 	12073
scalar bus_network.client[4] 	avg_time[4] 	0.005486368869
scalar bus_network.client[5] 	hdistance[5] 	2.7107961650688
scalar bus_network.client[5] 	downloads[5] 	11995
scalar bus_network.client[5] 	avg_time[5] 	0.004453523067
scalar bus_network.client[6] 	hdistance[6] 	2.2226673343348
scalar bus_network.client[6] 	downloads[6] 	11982
scalar bus_network.client[6] 	avg_time[6] 	0.003466697045
scalar bus_network.client[7] 	hdistance[7] 	1.7368377957914
scalar bus_network.client[7] 	downloads[7] 	12213
scalar bus_network.client[7] 	avg_time[7] 	0.002442967546
scalar bus_network.client[8] 	hdistance[8] 	1.2492042218127
scalar bus_network.client[8] 	downloads[8] 	11938
scalar bus_network.client[8] 	avg_time[8] 	0.001377279649
scalar bus_network.client[9] 	hdistance[9] 	0.68652849740933
scalar bus_network.client[9] 	downloads[9] 	11966
scalar bus_network.client[9] 	avg_time[9] 	0
