version 2
run General-119-20160902-22:03:45-4279
attr a 0.9
attr cd ffc0.2
attr configname General
attr cr lru
attr datetime 20160902-22:03:45
attr experiment General
attr fsize 1
attr inifile hw5115/scenario_Y/omnetp.ini
attr iterationvars "$name=tree_4_3, $un=05, $rep=20, $cd=ffc0.2, $cr=lru, $fsize=1, $a=0.9, $sl=nrr, $ttl=1000, $variance=0.05"
attr iterationvars2 "$name=tree_4_3, $un=05, $rep=20, $cd=ffc0.2, $cr=lru, $fsize=1, $a=0.9, $sl=nrr, $ttl=1000, $variance=0.05, $repetition=0"
attr measurement "$name=tree_4_3, $un=05, $rep=20, $cd=ffc0.2, $cr=lru, $fsize=1, $a=0.9, $sl=nrr, $ttl=1000, $variance=0.05"
attr name tree_4_3
attr network networks.${name}_u${un}_r${rep}_network
attr processid 4279
attr rep 20
attr repetition 0
attr replication #0
attr resultdir results
attr runnumber 119
attr seedset 20
attr sl nrr
attr ttl 1000
attr un 05
attr variance 0.05

scalar . 	a 	0.9
scalar . 	fsize 	1
scalar . 	rep 	20
scalar . 	ttl 	1000
scalar . 	un 	05
scalar . 	variance 	0.05
scalar tree_4_3_u05_r20_network.content_distribution 	repo-0 	0
scalar tree_4_3_u05_r20_network.content_distribution 	client-0 	13
scalar tree_4_3_u05_r20_network.content_distribution 	client-1 	14
scalar tree_4_3_u05_r20_network.content_distribution 	client-2 	15
scalar tree_4_3_u05_r20_network.content_distribution 	client-3 	16
scalar tree_4_3_u05_r20_network.content_distribution 	client-4 	17
scalar tree_4_3_u05_r20_network.content_distribution 	client-5 	18
scalar tree_4_3_u05_r20_network.content_distribution 	client-6 	19
scalar tree_4_3_u05_r20_network.content_distribution 	client-7 	20
scalar tree_4_3_u05_r20_network.content_distribution 	client-8 	21
scalar tree_4_3_u05_r20_network.content_distribution 	client-9 	22
scalar tree_4_3_u05_r20_network.content_distribution 	client-10 	23
scalar tree_4_3_u05_r20_network.content_distribution 	client-11 	24
scalar tree_4_3_u05_r20_network.content_distribution 	client-12 	25
scalar tree_4_3_u05_r20_network.content_distribution 	client-13 	26
scalar tree_4_3_u05_r20_network.content_distribution 	client-14 	27
scalar tree_4_3_u05_r20_network.content_distribution 	client-15 	28
scalar tree_4_3_u05_r20_network.content_distribution 	client-16 	29
scalar tree_4_3_u05_r20_network.content_distribution 	client-17 	30
scalar tree_4_3_u05_r20_network.content_distribution 	client-18 	31
scalar tree_4_3_u05_r20_network.content_distribution 	client-19 	32
scalar tree_4_3_u05_r20_network.content_distribution 	client-20 	33
scalar tree_4_3_u05_r20_network.content_distribution 	client-21 	34
scalar tree_4_3_u05_r20_network.content_distribution 	client-22 	35
scalar tree_4_3_u05_r20_network.content_distribution 	client-23 	36
scalar tree_4_3_u05_r20_network.content_distribution 	client-24 	37
scalar tree_4_3_u05_r20_network.content_distribution 	client-25 	38
scalar tree_4_3_u05_r20_network.content_distribution 	client-26 	39
scalar tree_4_3_u05_r20_network.content_distribution 	repo-0_card 	100000
scalar tree_4_3_u05_r20_network.content_distribution 	repo-0_price 	0
scalar tree_4_3_u05_r20_network.statistics 	stabilization_time 	2193.1
scalar tree_4_3_u05_r20_network.statistics 	p_hit 	0.2358262519938
scalar tree_4_3_u05_r20_network.statistics 	interests 	24765.35
scalar tree_4_3_u05_r20_network.statistics 	data 	16649.475
scalar tree_4_3_u05_r20_network.statistics 	hdistance 	2.6087009627918
scalar tree_4_3_u05_r20_network.statistics 	avg_time 	0.004103079197
scalar tree_4_3_u05_r20_network.statistics 	downloads 	324633
scalar tree_4_3_u05_r20_network.statistics 	total_cost 	0
scalar tree_4_3_u05_r20_network.statistics 	total_replicas 	100000
scalar tree_4_3_u05_r20_network.statistics 	inner_hit 	0.44289705606023
scalar tree_4_3_u05_r20_network.node[0].core_layer 	interests[0] 	184113
scalar tree_4_3_u05_r20_network.node[0].core_layer 	repo_load[0] 	180854
scalar tree_4_3_u05_r20_network.node[0].core_layer 	data[0] 	0
scalar tree_4_3_u05_r20_network.node[0].core_layer 	repo_int[0] 	180854
scalar tree_4_3_u05_r20_network.node[0].content_store 	p_hit[0] 	0.017701085746254
scalar tree_4_3_u05_r20_network.node[0].content_store 	hits[0] 	3259
scalar tree_4_3_u05_r20_network.node[0].content_store 	misses[0] 	180854
scalar tree_4_3_u05_r20_network.node[0].content_store 	decision_yes[0] 	147
scalar tree_4_3_u05_r20_network.node[0].content_store 	decision_no[0] 	180707
scalar tree_4_3_u05_r20_network.node[0].content_store 	decision_ratio[0] 	0.00081281033319694
scalar tree_4_3_u05_r20_network.node[1].core_layer 	interests[1] 	127289
scalar tree_4_3_u05_r20_network.node[1].core_layer 	data[1] 	123439
scalar tree_4_3_u05_r20_network.node[1].content_store 	p_hit[1] 	0.030214708262301
scalar tree_4_3_u05_r20_network.node[1].content_store 	hits[1] 	3846
scalar tree_4_3_u05_r20_network.node[1].content_store 	misses[1] 	123443
scalar tree_4_3_u05_r20_network.node[1].content_store 	decision_yes[1] 	124
scalar tree_4_3_u05_r20_network.node[1].content_store 	decision_no[1] 	123315
scalar tree_4_3_u05_r20_network.node[1].content_store 	decision_ratio[1] 	0.0010045447548992
scalar tree_4_3_u05_r20_network.node[2].core_layer 	interests[2] 	37947
scalar tree_4_3_u05_r20_network.node[2].core_layer 	data[2] 	36129
scalar tree_4_3_u05_r20_network.node[2].content_store 	p_hit[2] 	0.047882573062429
scalar tree_4_3_u05_r20_network.node[2].content_store 	hits[2] 	1817
scalar tree_4_3_u05_r20_network.node[2].content_store 	misses[2] 	36130
scalar tree_4_3_u05_r20_network.node[2].content_store 	decision_yes[2] 	40
scalar tree_4_3_u05_r20_network.node[2].content_store 	decision_no[2] 	36089
scalar tree_4_3_u05_r20_network.node[2].content_store 	decision_ratio[2] 	0.0011071438456641
scalar tree_4_3_u05_r20_network.node[3].core_layer 	interests[3] 	45830
scalar tree_4_3_u05_r20_network.node[3].core_layer 	data[3] 	41660
scalar tree_4_3_u05_r20_network.node[3].content_store 	p_hit[3] 	0.090966615753873
scalar tree_4_3_u05_r20_network.node[3].content_store 	hits[3] 	4169
scalar tree_4_3_u05_r20_network.node[3].content_store 	misses[3] 	41661
scalar tree_4_3_u05_r20_network.node[3].content_store 	decision_yes[3] 	90
scalar tree_4_3_u05_r20_network.node[3].content_store 	decision_no[3] 	41570
scalar tree_4_3_u05_r20_network.node[3].content_store 	decision_ratio[3] 	0.0021603456553048
scalar tree_4_3_u05_r20_network.node[4].core_layer 	interests[4] 	26951
scalar tree_4_3_u05_r20_network.node[4].core_layer 	data[4] 	24500
scalar tree_4_3_u05_r20_network.node[4].content_store 	p_hit[4] 	0.090942822158733
scalar tree_4_3_u05_r20_network.node[4].content_store 	hits[4] 	2451
scalar tree_4_3_u05_r20_network.node[4].content_store 	misses[4] 	24500
scalar tree_4_3_u05_r20_network.node[4].content_store 	decision_yes[4] 	48
scalar tree_4_3_u05_r20_network.node[4].content_store 	decision_no[4] 	24452
scalar tree_4_3_u05_r20_network.node[4].content_store 	decision_ratio[4] 	0.0019591836734694
scalar tree_4_3_u05_r20_network.node[5].core_layer 	interests[5] 	34705
scalar tree_4_3_u05_r20_network.node[5].core_layer 	data[5] 	31903
scalar tree_4_3_u05_r20_network.node[5].content_store 	p_hit[5] 	0.080737645872353
scalar tree_4_3_u05_r20_network.node[5].content_store 	hits[5] 	2802
scalar tree_4_3_u05_r20_network.node[5].content_store 	misses[5] 	31903
scalar tree_4_3_u05_r20_network.node[5].content_store 	decision_yes[5] 	55
scalar tree_4_3_u05_r20_network.node[5].content_store 	decision_no[5] 	31848
scalar tree_4_3_u05_r20_network.node[5].content_store 	decision_ratio[5] 	0.0017239758016487
scalar tree_4_3_u05_r20_network.node[6].core_layer 	interests[6] 	23806
scalar tree_4_3_u05_r20_network.node[6].core_layer 	data[6] 	19379
scalar tree_4_3_u05_r20_network.node[6].content_store 	p_hit[6] 	0.1859615223053
scalar tree_4_3_u05_r20_network.node[6].content_store 	hits[6] 	4427
scalar tree_4_3_u05_r20_network.node[6].content_store 	misses[6] 	19379
scalar tree_4_3_u05_r20_network.node[6].content_store 	decision_yes[6] 	79
scalar tree_4_3_u05_r20_network.node[6].content_store 	decision_no[6] 	19300
scalar tree_4_3_u05_r20_network.node[6].content_store 	decision_ratio[6] 	0.0040765777387894
scalar tree_4_3_u05_r20_network.node[7].core_layer 	interests[7] 	37219
scalar tree_4_3_u05_r20_network.node[7].core_layer 	data[7] 	33963
scalar tree_4_3_u05_r20_network.node[7].content_store 	p_hit[7] 	0.087482199951638
scalar tree_4_3_u05_r20_network.node[7].content_store 	hits[7] 	3256
scalar tree_4_3_u05_r20_network.node[7].content_store 	misses[7] 	33963
scalar tree_4_3_u05_r20_network.node[7].content_store 	decision_yes[7] 	55
scalar tree_4_3_u05_r20_network.node[7].content_store 	decision_no[7] 	33908
scalar tree_4_3_u05_r20_network.node[7].content_store 	decision_ratio[7] 	0.0016194093572417
scalar tree_4_3_u05_r20_network.node[8].core_layer 	interests[8] 	17037
scalar tree_4_3_u05_r20_network.node[8].core_layer 	data[8] 	15511
scalar tree_4_3_u05_r20_network.node[8].content_store 	p_hit[8] 	0.089452368374714
scalar tree_4_3_u05_r20_network.node[8].content_store 	hits[8] 	1524
scalar tree_4_3_u05_r20_network.node[8].content_store 	misses[8] 	15513
scalar tree_4_3_u05_r20_network.node[8].content_store 	decision_yes[8] 	31
scalar tree_4_3_u05_r20_network.node[8].content_store 	decision_no[8] 	15480
scalar tree_4_3_u05_r20_network.node[8].content_store 	decision_ratio[8] 	0.001998581651731
scalar tree_4_3_u05_r20_network.node[9].core_layer 	interests[9] 	29948
scalar tree_4_3_u05_r20_network.node[9].core_layer 	data[9] 	26576
scalar tree_4_3_u05_r20_network.node[9].content_store 	p_hit[9] 	0.11259516495258
scalar tree_4_3_u05_r20_network.node[9].content_store 	hits[9] 	3372
scalar tree_4_3_u05_r20_network.node[9].content_store 	misses[9] 	26576
scalar tree_4_3_u05_r20_network.node[9].content_store 	decision_yes[9] 	79
scalar tree_4_3_u05_r20_network.node[9].content_store 	decision_no[9] 	26497
scalar tree_4_3_u05_r20_network.node[9].content_store 	decision_ratio[9] 	0.0029726068633353
scalar tree_4_3_u05_r20_network.node[10].core_layer 	interests[10] 	37654
scalar tree_4_3_u05_r20_network.node[10].core_layer 	data[10] 	33668
scalar tree_4_3_u05_r20_network.node[10].content_store 	p_hit[10] 	0.10585860731928
scalar tree_4_3_u05_r20_network.node[10].content_store 	hits[10] 	3986
scalar tree_4_3_u05_r20_network.node[10].content_store 	misses[10] 	33668
scalar tree_4_3_u05_r20_network.node[10].content_store 	decision_yes[10] 	66
scalar tree_4_3_u05_r20_network.node[10].content_store 	decision_no[10] 	33602
scalar tree_4_3_u05_r20_network.node[10].content_store 	decision_ratio[10] 	0.0019603184032316
scalar tree_4_3_u05_r20_network.node[11].core_layer 	interests[11] 	35698
scalar tree_4_3_u05_r20_network.node[11].core_layer 	data[11] 	32899
scalar tree_4_3_u05_r20_network.node[11].content_store 	p_hit[11] 	0.078407753935795
scalar tree_4_3_u05_r20_network.node[11].content_store 	hits[11] 	2799
scalar tree_4_3_u05_r20_network.node[11].content_store 	misses[11] 	32899
scalar tree_4_3_u05_r20_network.node[11].content_store 	decision_yes[11] 	49
scalar tree_4_3_u05_r20_network.node[11].content_store 	decision_no[11] 	32850
scalar tree_4_3_u05_r20_network.node[11].content_store 	decision_ratio[11] 	0.0014894069728563
scalar tree_4_3_u05_r20_network.node[12].core_layer 	interests[12] 	11475
scalar tree_4_3_u05_r20_network.node[12].core_layer 	data[12] 	8975
scalar tree_4_3_u05_r20_network.node[12].content_store 	p_hit[12] 	0.21786492374728
scalar tree_4_3_u05_r20_network.node[12].content_store 	hits[12] 	2500
scalar tree_4_3_u05_r20_network.node[12].content_store 	misses[12] 	8975
scalar tree_4_3_u05_r20_network.node[12].content_store 	decision_yes[12] 	27
scalar tree_4_3_u05_r20_network.node[12].content_store 	decision_no[12] 	8948
scalar tree_4_3_u05_r20_network.node[12].content_store 	decision_ratio[12] 	0.003008356545961
scalar tree_4_3_u05_r20_network.node[13].core_layer 	interests[13] 	12246
scalar tree_4_3_u05_r20_network.node[13].core_layer 	data[13] 	8638
scalar tree_4_3_u05_r20_network.node[13].content_store 	p_hit[13] 	0.29462681691981
scalar tree_4_3_u05_r20_network.node[13].content_store 	hits[13] 	3608
scalar tree_4_3_u05_r20_network.node[13].content_store 	misses[13] 	8638
scalar tree_4_3_u05_r20_network.node[13].content_store 	decision_yes[13] 	22
scalar tree_4_3_u05_r20_network.node[13].content_store 	decision_no[13] 	8616
scalar tree_4_3_u05_r20_network.node[13].content_store 	decision_ratio[13] 	0.0025468858532068
scalar tree_4_3_u05_r20_network.node[14].core_layer 	interests[14] 	12422
scalar tree_4_3_u05_r20_network.node[14].core_layer 	data[14] 	8814
scalar tree_4_3_u05_r20_network.node[14].content_store 	p_hit[14] 	0.29045242312027
scalar tree_4_3_u05_r20_network.node[14].content_store 	hits[14] 	3608
scalar tree_4_3_u05_r20_network.node[14].content_store 	misses[14] 	8814
scalar tree_4_3_u05_r20_network.node[14].content_store 	decision_yes[14] 	16
scalar tree_4_3_u05_r20_network.node[14].content_store 	decision_no[14] 	8798
scalar tree_4_3_u05_r20_network.node[14].content_store 	decision_ratio[14] 	0.0018152938506921
scalar tree_4_3_u05_r20_network.node[15].core_layer 	interests[15] 	13211
scalar tree_4_3_u05_r20_network.node[15].core_layer 	data[15] 	8987
scalar tree_4_3_u05_r20_network.node[15].content_store 	p_hit[15] 	0.31965786087351
scalar tree_4_3_u05_r20_network.node[15].content_store 	hits[15] 	4223
scalar tree_4_3_u05_r20_network.node[15].content_store 	misses[15] 	8988
scalar tree_4_3_u05_r20_network.node[15].content_store 	decision_yes[15] 	19
scalar tree_4_3_u05_r20_network.node[15].content_store 	decision_no[15] 	8968
scalar tree_4_3_u05_r20_network.node[15].content_store 	decision_ratio[15] 	0.0021141649048626
scalar tree_4_3_u05_r20_network.node[16].core_layer 	interests[16] 	12509
scalar tree_4_3_u05_r20_network.node[16].core_layer 	data[16] 	8782
scalar tree_4_3_u05_r20_network.node[16].content_store 	p_hit[16] 	0.29794547925494
scalar tree_4_3_u05_r20_network.node[16].content_store 	hits[16] 	3727
scalar tree_4_3_u05_r20_network.node[16].content_store 	misses[16] 	8782
scalar tree_4_3_u05_r20_network.node[16].content_store 	decision_yes[16] 	21
scalar tree_4_3_u05_r20_network.node[16].content_store 	decision_no[16] 	8761
scalar tree_4_3_u05_r20_network.node[16].content_store 	decision_ratio[16] 	0.0023912548394443
scalar tree_4_3_u05_r20_network.node[17].core_layer 	interests[17] 	12289
scalar tree_4_3_u05_r20_network.node[17].core_layer 	data[17] 	8698
scalar tree_4_3_u05_r20_network.node[17].content_store 	p_hit[17] 	0.29221254780698
scalar tree_4_3_u05_r20_network.node[17].content_store 	hits[17] 	3591
scalar tree_4_3_u05_r20_network.node[17].content_store 	misses[17] 	8698
scalar tree_4_3_u05_r20_network.node[17].content_store 	decision_yes[17] 	21
scalar tree_4_3_u05_r20_network.node[17].content_store 	decision_no[17] 	8677
scalar tree_4_3_u05_r20_network.node[17].content_store 	decision_ratio[17] 	0.002414348126006
scalar tree_4_3_u05_r20_network.node[18].core_layer 	interests[18] 	13166
scalar tree_4_3_u05_r20_network.node[18].core_layer 	data[18] 	8962
scalar tree_4_3_u05_r20_network.node[18].content_store 	p_hit[18] 	0.31930730669907
scalar tree_4_3_u05_r20_network.node[18].content_store 	hits[18] 	4204
scalar tree_4_3_u05_r20_network.node[18].content_store 	misses[18] 	8962
scalar tree_4_3_u05_r20_network.node[18].content_store 	decision_yes[18] 	20
scalar tree_4_3_u05_r20_network.node[18].content_store 	decision_no[18] 	8942
scalar tree_4_3_u05_r20_network.node[18].content_store 	decision_ratio[18] 	0.0022316447221602
scalar tree_4_3_u05_r20_network.node[19].core_layer 	interests[19] 	12526
scalar tree_4_3_u05_r20_network.node[19].core_layer 	data[19] 	8763
scalar tree_4_3_u05_r20_network.node[19].content_store 	p_hit[19] 	0.30041513651605
scalar tree_4_3_u05_r20_network.node[19].content_store 	hits[19] 	3763
scalar tree_4_3_u05_r20_network.node[19].content_store 	misses[19] 	8763
scalar tree_4_3_u05_r20_network.node[19].content_store 	decision_yes[19] 	15
scalar tree_4_3_u05_r20_network.node[19].content_store 	decision_no[19] 	8748
scalar tree_4_3_u05_r20_network.node[19].content_store 	decision_ratio[19] 	0.0017117425539199
scalar tree_4_3_u05_r20_network.node[20].core_layer 	interests[20] 	12980
scalar tree_4_3_u05_r20_network.node[20].core_layer 	data[20] 	8902
scalar tree_4_3_u05_r20_network.node[20].content_store 	p_hit[20] 	0.31417565485362
scalar tree_4_3_u05_r20_network.node[20].content_store 	hits[20] 	4078
scalar tree_4_3_u05_r20_network.node[20].content_store 	misses[20] 	8902
scalar tree_4_3_u05_r20_network.node[20].content_store 	decision_yes[20] 	14
scalar tree_4_3_u05_r20_network.node[20].content_store 	decision_no[20] 	8888
scalar tree_4_3_u05_r20_network.node[20].content_store 	decision_ratio[20] 	0.0015726802965626
scalar tree_4_3_u05_r20_network.node[21].core_layer 	interests[21] 	12712
scalar tree_4_3_u05_r20_network.node[21].core_layer 	data[21] 	8878
scalar tree_4_3_u05_r20_network.node[21].content_store 	p_hit[21] 	0.30160478288232
scalar tree_4_3_u05_r20_network.node[21].content_store 	hits[21] 	3834
scalar tree_4_3_u05_r20_network.node[21].content_store 	misses[21] 	8878
scalar tree_4_3_u05_r20_network.node[21].content_store 	decision_yes[21] 	21
scalar tree_4_3_u05_r20_network.node[21].content_store 	decision_no[21] 	8857
scalar tree_4_3_u05_r20_network.node[21].content_store 	decision_ratio[21] 	0.0023653976120748
scalar tree_4_3_u05_r20_network.node[22].core_layer 	interests[22] 	12663
scalar tree_4_3_u05_r20_network.node[22].core_layer 	data[22] 	8742
scalar tree_4_3_u05_r20_network.node[22].content_store 	p_hit[22] 	0.30964226486615
scalar tree_4_3_u05_r20_network.node[22].content_store 	hits[22] 	3921
scalar tree_4_3_u05_r20_network.node[22].content_store 	misses[22] 	8742
scalar tree_4_3_u05_r20_network.node[22].content_store 	decision_yes[22] 	19
scalar tree_4_3_u05_r20_network.node[22].content_store 	decision_no[22] 	8723
scalar tree_4_3_u05_r20_network.node[22].content_store 	decision_ratio[22] 	0.0021734156943491
scalar tree_4_3_u05_r20_network.node[23].core_layer 	interests[23] 	12648
scalar tree_4_3_u05_r20_network.node[23].core_layer 	data[23] 	8848
scalar tree_4_3_u05_r20_network.node[23].content_store 	p_hit[23] 	0.30036369386464
scalar tree_4_3_u05_r20_network.node[23].content_store 	hits[23] 	3799
scalar tree_4_3_u05_r20_network.node[23].content_store 	misses[23] 	8849
scalar tree_4_3_u05_r20_network.node[23].content_store 	decision_yes[23] 	23
scalar tree_4_3_u05_r20_network.node[23].content_store 	decision_no[23] 	8825
scalar tree_4_3_u05_r20_network.node[23].content_store 	decision_ratio[23] 	0.0025994575045208
scalar tree_4_3_u05_r20_network.node[24].core_layer 	interests[24] 	12741
scalar tree_4_3_u05_r20_network.node[24].core_layer 	data[24] 	8867
scalar tree_4_3_u05_r20_network.node[24].content_store 	p_hit[24] 	0.30397927949141
scalar tree_4_3_u05_r20_network.node[24].content_store 	hits[24] 	3873
scalar tree_4_3_u05_r20_network.node[24].content_store 	misses[24] 	8868
scalar tree_4_3_u05_r20_network.node[24].content_store 	decision_yes[24] 	17
scalar tree_4_3_u05_r20_network.node[24].content_store 	decision_no[24] 	8850
scalar tree_4_3_u05_r20_network.node[24].content_store 	decision_ratio[24] 	0.0019172211570994
scalar tree_4_3_u05_r20_network.node[25].core_layer 	interests[25] 	12919
scalar tree_4_3_u05_r20_network.node[25].core_layer 	data[25] 	8754
scalar tree_4_3_u05_r20_network.node[25].content_store 	p_hit[25] 	0.32239337410016
scalar tree_4_3_u05_r20_network.node[25].content_store 	hits[25] 	4165
scalar tree_4_3_u05_r20_network.node[25].content_store 	misses[25] 	8754
scalar tree_4_3_u05_r20_network.node[25].content_store 	decision_yes[25] 	15
scalar tree_4_3_u05_r20_network.node[25].content_store 	decision_no[25] 	8739
scalar tree_4_3_u05_r20_network.node[25].content_store 	decision_ratio[25] 	0.0017135023989034
scalar tree_4_3_u05_r20_network.node[26].core_layer 	interests[26] 	11989
scalar tree_4_3_u05_r20_network.node[26].core_layer 	data[26] 	8567
scalar tree_4_3_u05_r20_network.node[26].content_store 	p_hit[26] 	0.28542830928351
scalar tree_4_3_u05_r20_network.node[26].content_store 	hits[26] 	3422
scalar tree_4_3_u05_r20_network.node[26].content_store 	misses[26] 	8567
scalar tree_4_3_u05_r20_network.node[26].content_store 	decision_yes[26] 	20
scalar tree_4_3_u05_r20_network.node[26].content_store 	decision_no[26] 	8547
scalar tree_4_3_u05_r20_network.node[26].content_store 	decision_ratio[26] 	0.0023345395120812
scalar tree_4_3_u05_r20_network.node[27].core_layer 	interests[27] 	12779
scalar tree_4_3_u05_r20_network.node[27].core_layer 	data[27] 	8714
scalar tree_4_3_u05_r20_network.node[27].content_store 	p_hit[27] 	0.31810000782534
scalar tree_4_3_u05_r20_network.node[27].content_store 	hits[27] 	4065
scalar tree_4_3_u05_r20_network.node[27].content_store 	misses[27] 	8714
scalar tree_4_3_u05_r20_network.node[27].content_store 	decision_yes[27] 	26
scalar tree_4_3_u05_r20_network.node[27].content_store 	decision_no[27] 	8688
scalar tree_4_3_u05_r20_network.node[27].content_store 	decision_ratio[27] 	0.0029837043837503
scalar tree_4_3_u05_r20_network.node[28].core_layer 	interests[28] 	12536
scalar tree_4_3_u05_r20_network.node[28].core_layer 	data[28] 	8796
scalar tree_4_3_u05_r20_network.node[28].content_store 	p_hit[28] 	0.29834077855775
scalar tree_4_3_u05_r20_network.node[28].content_store 	hits[28] 	3740
scalar tree_4_3_u05_r20_network.node[28].content_store 	misses[28] 	8796
scalar tree_4_3_u05_r20_network.node[28].content_store 	decision_yes[28] 	16
scalar tree_4_3_u05_r20_network.node[28].content_store 	decision_no[28] 	8780
scalar tree_4_3_u05_r20_network.node[28].content_store 	decision_ratio[28] 	0.001819008640291
scalar tree_4_3_u05_r20_network.node[29].core_layer 	interests[29] 	12591
scalar tree_4_3_u05_r20_network.node[29].core_layer 	data[29] 	8761
scalar tree_4_3_u05_r20_network.node[29].content_store 	p_hit[29] 	0.30418552934636
scalar tree_4_3_u05_r20_network.node[29].content_store 	hits[29] 	3830
scalar tree_4_3_u05_r20_network.node[29].content_store 	misses[29] 	8761
scalar tree_4_3_u05_r20_network.node[29].content_store 	decision_yes[29] 	22
scalar tree_4_3_u05_r20_network.node[29].content_store 	decision_no[29] 	8739
scalar tree_4_3_u05_r20_network.node[29].content_store 	decision_ratio[29] 	0.0025111288665677
scalar tree_4_3_u05_r20_network.node[30].core_layer 	interests[30] 	12632
scalar tree_4_3_u05_r20_network.node[30].core_layer 	data[30] 	8836
scalar tree_4_3_u05_r20_network.node[30].content_store 	p_hit[30] 	0.30050664977834
scalar tree_4_3_u05_r20_network.node[30].content_store 	hits[30] 	3796
scalar tree_4_3_u05_r20_network.node[30].content_store 	misses[30] 	8836
scalar tree_4_3_u05_r20_network.node[30].content_store 	decision_yes[30] 	23
scalar tree_4_3_u05_r20_network.node[30].content_store 	decision_no[30] 	8813
scalar tree_4_3_u05_r20_network.node[30].content_store 	decision_ratio[30] 	0.0026029877772748
scalar tree_4_3_u05_r20_network.node[31].core_layer 	interests[31] 	12353
scalar tree_4_3_u05_r20_network.node[31].core_layer 	data[31] 	8448
scalar tree_4_3_u05_r20_network.node[31].content_store 	p_hit[31] 	0.31611754229742
scalar tree_4_3_u05_r20_network.node[31].content_store 	hits[31] 	3905
scalar tree_4_3_u05_r20_network.node[31].content_store 	misses[31] 	8448
scalar tree_4_3_u05_r20_network.node[31].content_store 	decision_yes[31] 	15
scalar tree_4_3_u05_r20_network.node[31].content_store 	decision_no[31] 	8433
scalar tree_4_3_u05_r20_network.node[31].content_store 	decision_ratio[31] 	0.0017755681818182
scalar tree_4_3_u05_r20_network.node[32].core_layer 	interests[32] 	12568
scalar tree_4_3_u05_r20_network.node[32].core_layer 	data[32] 	8812
scalar tree_4_3_u05_r20_network.node[32].content_store 	p_hit[32] 	0.29893380012731
scalar tree_4_3_u05_r20_network.node[32].content_store 	hits[32] 	3757
scalar tree_4_3_u05_r20_network.node[32].content_store 	misses[32] 	8811
scalar tree_4_3_u05_r20_network.node[32].content_store 	decision_yes[32] 	29
scalar tree_4_3_u05_r20_network.node[32].content_store 	decision_no[32] 	8783
scalar tree_4_3_u05_r20_network.node[32].content_store 	decision_ratio[32] 	0.0032909668633681
scalar tree_4_3_u05_r20_network.node[33].core_layer 	interests[33] 	12782
scalar tree_4_3_u05_r20_network.node[33].core_layer 	data[33] 	8950
scalar tree_4_3_u05_r20_network.node[33].content_store 	p_hit[33] 	0.29979658895322
scalar tree_4_3_u05_r20_network.node[33].content_store 	hits[33] 	3832
scalar tree_4_3_u05_r20_network.node[33].content_store 	misses[33] 	8950
scalar tree_4_3_u05_r20_network.node[33].content_store 	decision_yes[33] 	24
scalar tree_4_3_u05_r20_network.node[33].content_store 	decision_no[33] 	8926
scalar tree_4_3_u05_r20_network.node[33].content_store 	decision_ratio[33] 	0.0026815642458101
scalar tree_4_3_u05_r20_network.node[34].core_layer 	interests[34] 	12490
scalar tree_4_3_u05_r20_network.node[34].core_layer 	data[34] 	8784
scalar tree_4_3_u05_r20_network.node[34].content_store 	p_hit[34] 	0.29671737389912
scalar tree_4_3_u05_r20_network.node[34].content_store 	hits[34] 	3706
scalar tree_4_3_u05_r20_network.node[34].content_store 	misses[34] 	8784
scalar tree_4_3_u05_r20_network.node[34].content_store 	decision_yes[34] 	17
scalar tree_4_3_u05_r20_network.node[34].content_store 	decision_no[34] 	8767
scalar tree_4_3_u05_r20_network.node[34].content_store 	decision_ratio[34] 	0.0019353369763206
scalar tree_4_3_u05_r20_network.node[35].core_layer 	interests[35] 	12564
scalar tree_4_3_u05_r20_network.node[35].core_layer 	data[35] 	8849
scalar tree_4_3_u05_r20_network.node[35].content_store 	p_hit[35] 	0.29568608723337
scalar tree_4_3_u05_r20_network.node[35].content_store 	hits[35] 	3715
scalar tree_4_3_u05_r20_network.node[35].content_store 	misses[35] 	8849
scalar tree_4_3_u05_r20_network.node[35].content_store 	decision_yes[35] 	32
scalar tree_4_3_u05_r20_network.node[35].content_store 	decision_no[35] 	8817
scalar tree_4_3_u05_r20_network.node[35].content_store 	decision_ratio[35] 	0.0036162278223528
scalar tree_4_3_u05_r20_network.node[36].core_layer 	interests[36] 	12784
scalar tree_4_3_u05_r20_network.node[36].core_layer 	data[36] 	8860
scalar tree_4_3_u05_r20_network.node[36].content_store 	p_hit[36] 	0.30694618272841
scalar tree_4_3_u05_r20_network.node[36].content_store 	hits[36] 	3924
scalar tree_4_3_u05_r20_network.node[36].content_store 	misses[36] 	8860
scalar tree_4_3_u05_r20_network.node[36].content_store 	decision_yes[36] 	17
scalar tree_4_3_u05_r20_network.node[36].content_store 	decision_no[36] 	8843
scalar tree_4_3_u05_r20_network.node[36].content_store 	decision_ratio[36] 	0.0019187358916479
scalar tree_4_3_u05_r20_network.node[37].core_layer 	interests[37] 	12807
scalar tree_4_3_u05_r20_network.node[37].core_layer 	data[37] 	8741
scalar tree_4_3_u05_r20_network.node[37].content_store 	p_hit[37] 	0.31748262668853
scalar tree_4_3_u05_r20_network.node[37].content_store 	hits[37] 	4066
scalar tree_4_3_u05_r20_network.node[37].content_store 	misses[37] 	8741
scalar tree_4_3_u05_r20_network.node[37].content_store 	decision_yes[37] 	22
scalar tree_4_3_u05_r20_network.node[37].content_store 	decision_no[37] 	8719
scalar tree_4_3_u05_r20_network.node[37].content_store 	decision_ratio[37] 	0.0025168744994852
scalar tree_4_3_u05_r20_network.node[38].core_layer 	interests[38] 	12663
scalar tree_4_3_u05_r20_network.node[38].core_layer 	data[38] 	8824
scalar tree_4_3_u05_r20_network.node[38].content_store 	p_hit[38] 	0.30316670615178
scalar tree_4_3_u05_r20_network.node[38].content_store 	hits[38] 	3839
scalar tree_4_3_u05_r20_network.node[38].content_store 	misses[38] 	8824
scalar tree_4_3_u05_r20_network.node[38].content_store 	decision_yes[38] 	25
scalar tree_4_3_u05_r20_network.node[38].content_store 	decision_no[38] 	8799
scalar tree_4_3_u05_r20_network.node[38].content_store 	decision_ratio[38] 	0.0028331822302811
scalar tree_4_3_u05_r20_network.node[39].core_layer 	interests[39] 	12372
scalar tree_4_3_u05_r20_network.node[39].core_layer 	data[39] 	8800
scalar tree_4_3_u05_r20_network.node[39].content_store 	p_hit[39] 	0.28879728419011
scalar tree_4_3_u05_r20_network.node[39].content_store 	hits[39] 	3573
scalar tree_4_3_u05_r20_network.node[39].content_store 	misses[39] 	8799
scalar tree_4_3_u05_r20_network.node[39].content_store 	decision_yes[39] 	20
scalar tree_4_3_u05_r20_network.node[39].content_store 	decision_no[39] 	8780
scalar tree_4_3_u05_r20_network.node[39].content_store 	decision_ratio[39] 	0.0022727272727273
scalar tree_4_3_u05_r20_network.client[13] 	hdistance[13] 	2.6370750589027
scalar tree_4_3_u05_r20_network.client[13] 	downloads[13] 	11884
scalar tree_4_3_u05_r20_network.client[13] 	avg_time[13] 	0.004144392897
scalar tree_4_3_u05_r20_network.client[14] 	hdistance[14] 	2.6607395097632
scalar tree_4_3_u05_r20_network.client[14] 	downloads[14] 	12035
scalar tree_4_3_u05_r20_network.client[14] 	avg_time[14] 	0.004184126594
scalar tree_4_3_u05_r20_network.client[15] 	hdistance[15] 	2.5708906352325
scalar tree_4_3_u05_r20_network.client[15] 	downloads[15] 	12216
scalar tree_4_3_u05_r20_network.client[15] 	avg_time[15] 	0.004040435721
scalar tree_4_3_u05_r20_network.client[16] 	hdistance[16] 	2.6215050194972
scalar tree_4_3_u05_r20_network.client[16] 	downloads[16] 	12053
scalar tree_4_3_u05_r20_network.client[16] 	avg_time[16] 	0.004128761606
scalar tree_4_3_u05_r20_network.client[17] 	hdistance[17] 	2.6332075471698
scalar tree_4_3_u05_r20_network.client[17] 	downloads[17] 	11925
scalar tree_4_3_u05_r20_network.client[17] 	avg_time[17] 	0.0041446939
scalar tree_4_3_u05_r20_network.client[18] 	hdistance[18] 	2.5561605981795
scalar tree_4_3_u05_r20_network.client[18] 	downloads[18] 	12304
scalar tree_4_3_u05_r20_network.client[18] 	avg_time[18] 	0.004013000869
scalar tree_4_3_u05_r20_network.client[19] 	hdistance[19] 	2.6007977397374
scalar tree_4_3_u05_r20_network.client[19] 	downloads[19] 	12034
scalar tree_4_3_u05_r20_network.client[19] 	avg_time[19] 	0.004105697556
scalar tree_4_3_u05_r20_network.client[20] 	hdistance[20] 	2.5478403948992
scalar tree_4_3_u05_r20_network.client[20] 	downloads[20] 	12155
scalar tree_4_3_u05_r20_network.client[20] 	avg_time[20] 	0.004006283209
scalar tree_4_3_u05_r20_network.client[21] 	hdistance[21] 	2.6143628061436
scalar tree_4_3_u05_r20_network.client[21] 	downloads[21] 	12045
scalar tree_4_3_u05_r20_network.client[21] 	avg_time[21] 	0.004133164263
scalar tree_4_3_u05_r20_network.client[22] 	hdistance[22] 	2.599767885269
scalar tree_4_3_u05_r20_network.client[22] 	downloads[22] 	12063
scalar tree_4_3_u05_r20_network.client[22] 	avg_time[22] 	0.004098645737
scalar tree_4_3_u05_r20_network.client[23] 	hdistance[23] 	2.6284529240979
scalar tree_4_3_u05_r20_network.client[23] 	downloads[23] 	12055
scalar tree_4_3_u05_r20_network.client[23] 	avg_time[23] 	0.004140907347
scalar tree_4_3_u05_r20_network.client[24] 	hdistance[24] 	2.6085053674649
scalar tree_4_3_u05_r20_network.client[24] 	downloads[24] 	12110
scalar tree_4_3_u05_r20_network.client[24] 	avg_time[24] 	0.004122833392
scalar tree_4_3_u05_r20_network.client[25] 	hdistance[25] 	2.5714285714286
scalar tree_4_3_u05_r20_network.client[25] 	downloads[25] 	11977
scalar tree_4_3_u05_r20_network.client[25] 	avg_time[25] 	0.004037456862
scalar tree_4_3_u05_r20_network.client[26] 	hdistance[26] 	2.6697536108751
scalar tree_4_3_u05_r20_network.client[26] 	downloads[26] 	11770
scalar tree_4_3_u05_r20_network.client[26] 	avg_time[26] 	0.00416134191
scalar tree_4_3_u05_r20_network.client[27] 	hdistance[27] 	2.5645229087852
scalar tree_4_3_u05_r20_network.client[27] 	downloads[27] 	11895
scalar tree_4_3_u05_r20_network.client[27] 	avg_time[27] 	0.004023894088
scalar tree_4_3_u05_r20_network.client[28] 	hdistance[28] 	2.6197393541961
scalar tree_4_3_u05_r20_network.client[28] 	downloads[28] 	12047
scalar tree_4_3_u05_r20_network.client[28] 	avg_time[28] 	0.004127331614
scalar tree_4_3_u05_r20_network.client[29] 	hdistance[29] 	2.5963104537145
scalar tree_4_3_u05_r20_network.client[29] 	downloads[29] 	12034
scalar tree_4_3_u05_r20_network.client[29] 	avg_time[29] 	0.00409223564
scalar tree_4_3_u05_r20_network.client[30] 	hdistance[30] 	2.6313306852036
scalar tree_4_3_u05_r20_network.client[30] 	downloads[30] 	12084
scalar tree_4_3_u05_r20_network.client[30] 	avg_time[30] 	0.004145478595
scalar tree_4_3_u05_r20_network.client[31] 	hdistance[31] 	2.5822180547268
scalar tree_4_3_u05_r20_network.client[31] 	downloads[31] 	11731
scalar tree_4_3_u05_r20_network.client[31] 	avg_time[31] 	0.004079103699
scalar tree_4_3_u05_r20_network.client[32] 	hdistance[32] 	2.6293753140178
scalar tree_4_3_u05_r20_network.client[32] 	downloads[32] 	11942
scalar tree_4_3_u05_r20_network.client[32] 	avg_time[32] 	0.004159601794
scalar tree_4_3_u05_r20_network.client[33] 	hdistance[33] 	2.6382050226431
scalar tree_4_3_u05_r20_network.client[33] 	downloads[33] 	12145
scalar tree_4_3_u05_r20_network.client[33] 	avg_time[33] 	0.004165661856
scalar tree_4_3_u05_r20_network.client[34] 	hdistance[34] 	2.6135587573915
scalar tree_4_3_u05_r20_network.client[34] 	downloads[34] 	12007
scalar tree_4_3_u05_r20_network.client[34] 	avg_time[34] 	0.004109599729
scalar tree_4_3_u05_r20_network.client[35] 	hdistance[35] 	2.6225078266601
scalar tree_4_3_u05_r20_network.client[35] 	downloads[35] 	12138
scalar tree_4_3_u05_r20_network.client[35] 	avg_time[35] 	0.004112865671
scalar tree_4_3_u05_r20_network.client[36] 	hdistance[36] 	2.5932217434538
scalar tree_4_3_u05_r20_network.client[36] 	downloads[36] 	12068
scalar tree_4_3_u05_r20_network.client[36] 	avg_time[36] 	0.004047560784
scalar tree_4_3_u05_r20_network.client[37] 	hdistance[37] 	2.5575176589304
scalar tree_4_3_u05_r20_network.client[37] 	downloads[37] 	11892
scalar tree_4_3_u05_r20_network.client[37] 	avg_time[37] 	0.00402757859
scalar tree_4_3_u05_r20_network.client[38] 	hdistance[38] 	2.6107724425887
scalar tree_4_3_u05_r20_network.client[38] 	downloads[38] 	11975
scalar tree_4_3_u05_r20_network.client[38] 	avg_time[38] 	0.004069976156
scalar tree_4_3_u05_r20_network.client[39] 	hdistance[39] 	2.655158104407
scalar tree_4_3_u05_r20_network.client[39] 	downloads[39] 	12049
scalar tree_4_3_u05_r20_network.client[39] 	avg_time[39] 	0.004160508243
