version 2
run General-100-20160902-21:18:05-4279
attr a 0.9
attr cd ffc0.2
attr configname General
attr cr lru
attr datetime 20160902-21:18:05
attr experiment General
attr fsize 1
attr inifile hw5115/scenario_Y/omnetp.ini
attr iterationvars "$name=tree_4_3, $un=05, $rep=1, $cd=ffc0.2, $cr=lru, $fsize=1, $a=0.9, $sl=nrr, $ttl=1000, $variance=0.05"
attr iterationvars2 "$name=tree_4_3, $un=05, $rep=1, $cd=ffc0.2, $cr=lru, $fsize=1, $a=0.9, $sl=nrr, $ttl=1000, $variance=0.05, $repetition=0"
attr measurement "$name=tree_4_3, $un=05, $rep=1, $cd=ffc0.2, $cr=lru, $fsize=1, $a=0.9, $sl=nrr, $ttl=1000, $variance=0.05"
attr name tree_4_3
attr network networks.${name}_u${un}_r${rep}_network
attr processid 4279
attr rep 1
attr repetition 0
attr replication #0
attr resultdir results
attr runnumber 100
attr seedset 1
attr sl nrr
attr ttl 1000
attr un 05
attr variance 0.05

scalar . 	a 	0.9
scalar . 	fsize 	1
scalar . 	rep 	1
scalar . 	ttl 	1000
scalar . 	un 	05
scalar . 	variance 	0.05
scalar tree_4_3_u05_r1_network.content_distribution 	repo-0 	0
scalar tree_4_3_u05_r1_network.content_distribution 	client-0 	13
scalar tree_4_3_u05_r1_network.content_distribution 	client-1 	14
scalar tree_4_3_u05_r1_network.content_distribution 	client-2 	15
scalar tree_4_3_u05_r1_network.content_distribution 	client-3 	16
scalar tree_4_3_u05_r1_network.content_distribution 	client-4 	17
scalar tree_4_3_u05_r1_network.content_distribution 	client-5 	18
scalar tree_4_3_u05_r1_network.content_distribution 	client-6 	19
scalar tree_4_3_u05_r1_network.content_distribution 	client-7 	20
scalar tree_4_3_u05_r1_network.content_distribution 	client-8 	21
scalar tree_4_3_u05_r1_network.content_distribution 	client-9 	22
scalar tree_4_3_u05_r1_network.content_distribution 	client-10 	23
scalar tree_4_3_u05_r1_network.content_distribution 	client-11 	24
scalar tree_4_3_u05_r1_network.content_distribution 	client-12 	25
scalar tree_4_3_u05_r1_network.content_distribution 	client-13 	26
scalar tree_4_3_u05_r1_network.content_distribution 	client-14 	27
scalar tree_4_3_u05_r1_network.content_distribution 	client-15 	28
scalar tree_4_3_u05_r1_network.content_distribution 	client-16 	29
scalar tree_4_3_u05_r1_network.content_distribution 	client-17 	30
scalar tree_4_3_u05_r1_network.content_distribution 	client-18 	31
scalar tree_4_3_u05_r1_network.content_distribution 	client-19 	32
scalar tree_4_3_u05_r1_network.content_distribution 	client-20 	33
scalar tree_4_3_u05_r1_network.content_distribution 	client-21 	34
scalar tree_4_3_u05_r1_network.content_distribution 	client-22 	35
scalar tree_4_3_u05_r1_network.content_distribution 	client-23 	36
scalar tree_4_3_u05_r1_network.content_distribution 	client-24 	37
scalar tree_4_3_u05_r1_network.content_distribution 	client-25 	38
scalar tree_4_3_u05_r1_network.content_distribution 	client-26 	39
scalar tree_4_3_u05_r1_network.content_distribution 	repo-0_card 	100000
scalar tree_4_3_u05_r1_network.content_distribution 	repo-0_price 	0
scalar tree_4_3_u05_r1_network.statistics 	stabilization_time 	1681.2
scalar tree_4_3_u05_r1_network.statistics 	p_hit 	0.23143831324887
scalar tree_4_3_u05_r1_network.statistics 	interests 	24724.25
scalar tree_4_3_u05_r1_network.statistics 	data 	16616.825
scalar tree_4_3_u05_r1_network.statistics 	hdistance 	2.6127250547524
scalar tree_4_3_u05_r1_network.statistics 	avg_time 	0.004099240745
scalar tree_4_3_u05_r1_network.statistics 	downloads 	324289
scalar tree_4_3_u05_r1_network.statistics 	total_cost 	0
scalar tree_4_3_u05_r1_network.statistics 	total_replicas 	100000
scalar tree_4_3_u05_r1_network.statistics 	inner_hit 	0.43686341504029
scalar tree_4_3_u05_r1_network.node[0].core_layer 	interests[0] 	186209
scalar tree_4_3_u05_r1_network.node[0].core_layer 	repo_load[0] 	182619
scalar tree_4_3_u05_r1_network.node[0].core_layer 	data[0] 	0
scalar tree_4_3_u05_r1_network.node[0].core_layer 	repo_int[0] 	182619
scalar tree_4_3_u05_r1_network.node[0].content_store 	p_hit[0] 	0.019279411843681
scalar tree_4_3_u05_r1_network.node[0].content_store 	hits[0] 	3590
scalar tree_4_3_u05_r1_network.node[0].content_store 	misses[0] 	182619
scalar tree_4_3_u05_r1_network.node[0].content_store 	decision_yes[0] 	151
scalar tree_4_3_u05_r1_network.node[0].content_store 	decision_no[0] 	182468
scalar tree_4_3_u05_r1_network.node[0].content_store 	decision_ratio[0] 	0.00082685810348321
scalar tree_4_3_u05_r1_network.node[1].core_layer 	interests[1] 	95416
scalar tree_4_3_u05_r1_network.node[1].core_layer 	data[1] 	92922
scalar tree_4_3_u05_r1_network.node[1].content_store 	p_hit[1] 	0.026138173891171
scalar tree_4_3_u05_r1_network.node[1].content_store 	hits[1] 	2494
scalar tree_4_3_u05_r1_network.node[1].content_store 	misses[1] 	92922
scalar tree_4_3_u05_r1_network.node[1].content_store 	decision_yes[1] 	92
scalar tree_4_3_u05_r1_network.node[1].content_store 	decision_no[1] 	92830
scalar tree_4_3_u05_r1_network.node[1].content_store 	decision_ratio[1] 	0.00099007769957599
scalar tree_4_3_u05_r1_network.node[2].core_layer 	interests[2] 	72360
scalar tree_4_3_u05_r1_network.node[2].core_layer 	data[2] 	68406
scalar tree_4_3_u05_r1_network.node[2].content_store 	p_hit[2] 	0.05462962962963
scalar tree_4_3_u05_r1_network.node[2].content_store 	hits[2] 	3953
scalar tree_4_3_u05_r1_network.node[2].content_store 	misses[2] 	68407
scalar tree_4_3_u05_r1_network.node[2].content_store 	decision_yes[2] 	92
scalar tree_4_3_u05_r1_network.node[2].content_store 	decision_no[2] 	68314
scalar tree_4_3_u05_r1_network.node[2].content_store 	decision_ratio[2] 	0.0013449112650937
scalar tree_4_3_u05_r1_network.node[3].core_layer 	interests[3] 	43367
scalar tree_4_3_u05_r1_network.node[3].core_layer 	data[3] 	40052
scalar tree_4_3_u05_r1_network.node[3].content_store 	p_hit[3] 	0.076440611524892
scalar tree_4_3_u05_r1_network.node[3].content_store 	hits[3] 	3315
scalar tree_4_3_u05_r1_network.node[3].content_store 	misses[3] 	40052
scalar tree_4_3_u05_r1_network.node[3].content_store 	decision_yes[3] 	71
scalar tree_4_3_u05_r1_network.node[3].content_store 	decision_no[3] 	39981
scalar tree_4_3_u05_r1_network.node[3].content_store 	decision_ratio[3] 	0.0017726954958554
scalar tree_4_3_u05_r1_network.node[4].core_layer 	interests[4] 	26412
scalar tree_4_3_u05_r1_network.node[4].core_layer 	data[4] 	24358
scalar tree_4_3_u05_r1_network.node[4].content_store 	p_hit[4] 	0.077767681356959
scalar tree_4_3_u05_r1_network.node[4].content_store 	hits[4] 	2054
scalar tree_4_3_u05_r1_network.node[4].content_store 	misses[4] 	24358
scalar tree_4_3_u05_r1_network.node[4].content_store 	decision_yes[4] 	48
scalar tree_4_3_u05_r1_network.node[4].content_store 	decision_no[4] 	24310
scalar tree_4_3_u05_r1_network.node[4].content_store 	decision_ratio[4] 	0.0019706051399951
scalar tree_4_3_u05_r1_network.node[5].core_layer 	interests[5] 	37454
scalar tree_4_3_u05_r1_network.node[5].core_layer 	data[5] 	33629
scalar tree_4_3_u05_r1_network.node[5].content_store 	p_hit[5] 	0.10209857425108
scalar tree_4_3_u05_r1_network.node[5].content_store 	hits[5] 	3824
scalar tree_4_3_u05_r1_network.node[5].content_store 	misses[5] 	33630
scalar tree_4_3_u05_r1_network.node[5].content_store 	decision_yes[5] 	69
scalar tree_4_3_u05_r1_network.node[5].content_store 	decision_no[5] 	33560
scalar tree_4_3_u05_r1_network.node[5].content_store 	decision_ratio[5] 	0.0020518005293051
scalar tree_4_3_u05_r1_network.node[6].core_layer 	interests[6] 	20963
scalar tree_4_3_u05_r1_network.node[6].core_layer 	data[6] 	17659
scalar tree_4_3_u05_r1_network.node[6].content_store 	p_hit[6] 	0.15756332585985
scalar tree_4_3_u05_r1_network.node[6].content_store 	hits[6] 	3303
scalar tree_4_3_u05_r1_network.node[6].content_store 	misses[6] 	17660
scalar tree_4_3_u05_r1_network.node[6].content_store 	decision_yes[6] 	56
scalar tree_4_3_u05_r1_network.node[6].content_store 	decision_no[6] 	17603
scalar tree_4_3_u05_r1_network.node[6].content_store 	decision_ratio[6] 	0.0031711874964607
scalar tree_4_3_u05_r1_network.node[7].core_layer 	interests[7] 	36098
scalar tree_4_3_u05_r1_network.node[7].core_layer 	data[7] 	32941
scalar tree_4_3_u05_r1_network.node[7].content_store 	p_hit[7] 	0.087428666408111
scalar tree_4_3_u05_r1_network.node[7].content_store 	hits[7] 	3156
scalar tree_4_3_u05_r1_network.node[7].content_store 	misses[7] 	32942
scalar tree_4_3_u05_r1_network.node[7].content_store 	decision_yes[7] 	72
scalar tree_4_3_u05_r1_network.node[7].content_store 	decision_no[7] 	32869
scalar tree_4_3_u05_r1_network.node[7].content_store 	decision_ratio[7] 	0.0021857259949607
scalar tree_4_3_u05_r1_network.node[8].core_layer 	interests[8] 	18714
scalar tree_4_3_u05_r1_network.node[8].core_layer 	data[8] 	16507
scalar tree_4_3_u05_r1_network.node[8].content_store 	p_hit[8] 	0.11793309821524
scalar tree_4_3_u05_r1_network.node[8].content_store 	hits[8] 	2207
scalar tree_4_3_u05_r1_network.node[8].content_store 	misses[8] 	16507
scalar tree_4_3_u05_r1_network.node[8].content_store 	decision_yes[8] 	38
scalar tree_4_3_u05_r1_network.node[8].content_store 	decision_no[8] 	16469
scalar tree_4_3_u05_r1_network.node[8].content_store 	decision_ratio[8] 	0.0023020536741988
scalar tree_4_3_u05_r1_network.node[9].core_layer 	interests[9] 	28881
scalar tree_4_3_u05_r1_network.node[9].core_layer 	data[9] 	25558
scalar tree_4_3_u05_r1_network.node[9].content_store 	p_hit[9] 	0.11505834285516
scalar tree_4_3_u05_r1_network.node[9].content_store 	hits[9] 	3323
scalar tree_4_3_u05_r1_network.node[9].content_store 	misses[9] 	25558
scalar tree_4_3_u05_r1_network.node[9].content_store 	decision_yes[9] 	57
scalar tree_4_3_u05_r1_network.node[9].content_store 	decision_no[9] 	25501
scalar tree_4_3_u05_r1_network.node[9].content_store 	decision_ratio[9] 	0.002230221457078
scalar tree_4_3_u05_r1_network.node[10].core_layer 	interests[10] 	28513
scalar tree_4_3_u05_r1_network.node[10].core_layer 	data[10] 	25956
scalar tree_4_3_u05_r1_network.node[10].content_store 	p_hit[10] 	0.089643320590608
scalar tree_4_3_u05_r1_network.node[10].content_store 	hits[10] 	2556
scalar tree_4_3_u05_r1_network.node[10].content_store 	misses[10] 	25957
scalar tree_4_3_u05_r1_network.node[10].content_store 	decision_yes[10] 	64
scalar tree_4_3_u05_r1_network.node[10].content_store 	decision_no[10] 	25892
scalar tree_4_3_u05_r1_network.node[10].content_store 	decision_ratio[10] 	0.0024657112035753
scalar tree_4_3_u05_r1_network.node[11].core_layer 	interests[11] 	36375
scalar tree_4_3_u05_r1_network.node[11].core_layer 	data[11] 	32664
scalar tree_4_3_u05_r1_network.node[11].content_store 	p_hit[11] 	0.10196563573883
scalar tree_4_3_u05_r1_network.node[11].content_store 	hits[11] 	3709
scalar tree_4_3_u05_r1_network.node[11].content_store 	misses[11] 	32666
scalar tree_4_3_u05_r1_network.node[11].content_store 	decision_yes[11] 	58
scalar tree_4_3_u05_r1_network.node[11].content_store 	decision_no[11] 	32606
scalar tree_4_3_u05_r1_network.node[11].content_store 	decision_ratio[11] 	0.0017756551555229
scalar tree_4_3_u05_r1_network.node[12].core_layer 	interests[12] 	18893
scalar tree_4_3_u05_r1_network.node[12].core_layer 	data[12] 	16891
scalar tree_4_3_u05_r1_network.node[12].content_store 	p_hit[12] 	0.10601810194252
scalar tree_4_3_u05_r1_network.node[12].content_store 	hits[12] 	2003
scalar tree_4_3_u05_r1_network.node[12].content_store 	misses[12] 	16890
scalar tree_4_3_u05_r1_network.node[12].content_store 	decision_yes[12] 	46
scalar tree_4_3_u05_r1_network.node[12].content_store 	decision_no[12] 	16845
scalar tree_4_3_u05_r1_network.node[12].content_store 	decision_ratio[12] 	0.0027233437925522
scalar tree_4_3_u05_r1_network.node[13].core_layer 	interests[13] 	12395
scalar tree_4_3_u05_r1_network.node[13].core_layer 	data[13] 	8793
scalar tree_4_3_u05_r1_network.node[13].content_store 	p_hit[13] 	0.29052037111739
scalar tree_4_3_u05_r1_network.node[13].content_store 	hits[13] 	3601
scalar tree_4_3_u05_r1_network.node[13].content_store 	misses[13] 	8794
scalar tree_4_3_u05_r1_network.node[13].content_store 	decision_yes[13] 	29
scalar tree_4_3_u05_r1_network.node[13].content_store 	decision_no[13] 	8764
scalar tree_4_3_u05_r1_network.node[13].content_store 	decision_ratio[13] 	0.0032980780166041
scalar tree_4_3_u05_r1_network.node[14].core_layer 	interests[14] 	12941
scalar tree_4_3_u05_r1_network.node[14].core_layer 	data[14] 	8896
scalar tree_4_3_u05_r1_network.node[14].content_store 	p_hit[14] 	0.31257244416969
scalar tree_4_3_u05_r1_network.node[14].content_store 	hits[14] 	4045
scalar tree_4_3_u05_r1_network.node[14].content_store 	misses[14] 	8896
scalar tree_4_3_u05_r1_network.node[14].content_store 	decision_yes[14] 	27
scalar tree_4_3_u05_r1_network.node[14].content_store 	decision_no[14] 	8869
scalar tree_4_3_u05_r1_network.node[14].content_store 	decision_ratio[14] 	0.003035071942446
scalar tree_4_3_u05_r1_network.node[15].core_layer 	interests[15] 	12456
scalar tree_4_3_u05_r1_network.node[15].core_layer 	data[15] 	8990
scalar tree_4_3_u05_r1_network.node[15].content_store 	p_hit[15] 	0.27825947334618
scalar tree_4_3_u05_r1_network.node[15].content_store 	hits[15] 	3466
scalar tree_4_3_u05_r1_network.node[15].content_store 	misses[15] 	8990
scalar tree_4_3_u05_r1_network.node[15].content_store 	decision_yes[15] 	26
scalar tree_4_3_u05_r1_network.node[15].content_store 	decision_no[15] 	8964
scalar tree_4_3_u05_r1_network.node[15].content_store 	decision_ratio[15] 	0.0028921023359288
scalar tree_4_3_u05_r1_network.node[16].core_layer 	interests[16] 	12673
scalar tree_4_3_u05_r1_network.node[16].core_layer 	data[16] 	8894
scalar tree_4_3_u05_r1_network.node[16].content_store 	p_hit[16] 	0.29811410084431
scalar tree_4_3_u05_r1_network.node[16].content_store 	hits[16] 	3778
scalar tree_4_3_u05_r1_network.node[16].content_store 	misses[16] 	8895
scalar tree_4_3_u05_r1_network.node[16].content_store 	decision_yes[16] 	24
scalar tree_4_3_u05_r1_network.node[16].content_store 	decision_no[16] 	8870
scalar tree_4_3_u05_r1_network.node[16].content_store 	decision_ratio[16] 	0.0026984483921745
scalar tree_4_3_u05_r1_network.node[17].core_layer 	interests[17] 	12683
scalar tree_4_3_u05_r1_network.node[17].core_layer 	data[17] 	8869
scalar tree_4_3_u05_r1_network.node[17].content_store 	p_hit[17] 	0.3007174958606
scalar tree_4_3_u05_r1_network.node[17].content_store 	hits[17] 	3814
scalar tree_4_3_u05_r1_network.node[17].content_store 	misses[17] 	8869
scalar tree_4_3_u05_r1_network.node[17].content_store 	decision_yes[17] 	20
scalar tree_4_3_u05_r1_network.node[17].content_store 	decision_no[17] 	8849
scalar tree_4_3_u05_r1_network.node[17].content_store 	decision_ratio[17] 	0.0022550456646747
scalar tree_4_3_u05_r1_network.node[18].core_layer 	interests[18] 	12698
scalar tree_4_3_u05_r1_network.node[18].core_layer 	data[18] 	8659
scalar tree_4_3_u05_r1_network.node[18].content_store 	p_hit[18] 	0.3180815876516
scalar tree_4_3_u05_r1_network.node[18].content_store 	hits[18] 	4039
scalar tree_4_3_u05_r1_network.node[18].content_store 	misses[18] 	8659
scalar tree_4_3_u05_r1_network.node[18].content_store 	decision_yes[18] 	26
scalar tree_4_3_u05_r1_network.node[18].content_store 	decision_no[18] 	8633
scalar tree_4_3_u05_r1_network.node[18].content_store 	decision_ratio[18] 	0.0030026561958656
scalar tree_4_3_u05_r1_network.node[19].core_layer 	interests[19] 	12244
scalar tree_4_3_u05_r1_network.node[19].core_layer 	data[19] 	8641
scalar tree_4_3_u05_r1_network.node[19].content_store 	p_hit[19] 	0.29418490689317
scalar tree_4_3_u05_r1_network.node[19].content_store 	hits[19] 	3602
scalar tree_4_3_u05_r1_network.node[19].content_store 	misses[19] 	8642
scalar tree_4_3_u05_r1_network.node[19].content_store 	decision_yes[19] 	29
scalar tree_4_3_u05_r1_network.node[19].content_store 	decision_no[19] 	8612
scalar tree_4_3_u05_r1_network.node[19].content_store 	decision_ratio[19] 	0.0033560930447865
scalar tree_4_3_u05_r1_network.node[20].core_layer 	interests[20] 	12967
scalar tree_4_3_u05_r1_network.node[20].core_layer 	data[20] 	8994
scalar tree_4_3_u05_r1_network.node[20].content_store 	p_hit[20] 	0.30647027068713
scalar tree_4_3_u05_r1_network.node[20].content_store 	hits[20] 	3974
scalar tree_4_3_u05_r1_network.node[20].content_store 	misses[20] 	8993
scalar tree_4_3_u05_r1_network.node[20].content_store 	decision_yes[20] 	14
scalar tree_4_3_u05_r1_network.node[20].content_store 	decision_no[20] 	8980
scalar tree_4_3_u05_r1_network.node[20].content_store 	decision_ratio[20] 	0.0015565932844118
scalar tree_4_3_u05_r1_network.node[21].core_layer 	interests[21] 	12346
scalar tree_4_3_u05_r1_network.node[21].core_layer 	data[21] 	8647
scalar tree_4_3_u05_r1_network.node[21].content_store 	p_hit[21] 	0.29961121010854
scalar tree_4_3_u05_r1_network.node[21].content_store 	hits[21] 	3699
scalar tree_4_3_u05_r1_network.node[21].content_store 	misses[21] 	8647
scalar tree_4_3_u05_r1_network.node[21].content_store 	decision_yes[21] 	17
scalar tree_4_3_u05_r1_network.node[21].content_store 	decision_no[21] 	8630
scalar tree_4_3_u05_r1_network.node[21].content_store 	decision_ratio[21] 	0.0019659997687059
scalar tree_4_3_u05_r1_network.node[22].core_layer 	interests[22] 	12394
scalar tree_4_3_u05_r1_network.node[22].core_layer 	data[22] 	8646
scalar tree_4_3_u05_r1_network.node[22].content_store 	p_hit[22] 	0.30240438922059
scalar tree_4_3_u05_r1_network.node[22].content_store 	hits[22] 	3748
scalar tree_4_3_u05_r1_network.node[22].content_store 	misses[22] 	8646
scalar tree_4_3_u05_r1_network.node[22].content_store 	decision_yes[22] 	22
scalar tree_4_3_u05_r1_network.node[22].content_store 	decision_no[22] 	8624
scalar tree_4_3_u05_r1_network.node[22].content_store 	decision_ratio[22] 	0.0025445292620865
scalar tree_4_3_u05_r1_network.node[23].core_layer 	interests[23] 	12297
scalar tree_4_3_u05_r1_network.node[23].core_layer 	data[23] 	8619
scalar tree_4_3_u05_r1_network.node[23].content_store 	p_hit[23] 	0.29909734081483
scalar tree_4_3_u05_r1_network.node[23].content_store 	hits[23] 	3678
scalar tree_4_3_u05_r1_network.node[23].content_store 	misses[23] 	8619
scalar tree_4_3_u05_r1_network.node[23].content_store 	decision_yes[23] 	21
scalar tree_4_3_u05_r1_network.node[23].content_store 	decision_no[23] 	8598
scalar tree_4_3_u05_r1_network.node[23].content_store 	decision_ratio[23] 	0.0024364775495997
scalar tree_4_3_u05_r1_network.node[24].core_layer 	interests[24] 	13054
scalar tree_4_3_u05_r1_network.node[24].core_layer 	data[24] 	8763
scalar tree_4_3_u05_r1_network.node[24].content_store 	p_hit[24] 	0.32871150605178
scalar tree_4_3_u05_r1_network.node[24].content_store 	hits[24] 	4291
scalar tree_4_3_u05_r1_network.node[24].content_store 	misses[24] 	8763
scalar tree_4_3_u05_r1_network.node[24].content_store 	decision_yes[24] 	27
scalar tree_4_3_u05_r1_network.node[24].content_store 	decision_no[24] 	8736
scalar tree_4_3_u05_r1_network.node[24].content_store 	decision_ratio[24] 	0.0030811365970558
scalar tree_4_3_u05_r1_network.node[25].core_layer 	interests[25] 	12861
scalar tree_4_3_u05_r1_network.node[25].core_layer 	data[25] 	8890
scalar tree_4_3_u05_r1_network.node[25].content_store 	p_hit[25] 	0.30876292667755
scalar tree_4_3_u05_r1_network.node[25].content_store 	hits[25] 	3971
scalar tree_4_3_u05_r1_network.node[25].content_store 	misses[25] 	8890
scalar tree_4_3_u05_r1_network.node[25].content_store 	decision_yes[25] 	20
scalar tree_4_3_u05_r1_network.node[25].content_store 	decision_no[25] 	8870
scalar tree_4_3_u05_r1_network.node[25].content_store 	decision_ratio[25] 	0.0022497187851519
scalar tree_4_3_u05_r1_network.node[26].core_layer 	interests[26] 	12204
scalar tree_4_3_u05_r1_network.node[26].core_layer 	data[26] 	8751
scalar tree_4_3_u05_r1_network.node[26].content_store 	p_hit[26] 	0.28294001966568
scalar tree_4_3_u05_r1_network.node[26].content_store 	hits[26] 	3453
scalar tree_4_3_u05_r1_network.node[26].content_store 	misses[26] 	8751
scalar tree_4_3_u05_r1_network.node[26].content_store 	decision_yes[26] 	21
scalar tree_4_3_u05_r1_network.node[26].content_store 	decision_no[26] 	8730
scalar tree_4_3_u05_r1_network.node[26].content_store 	decision_ratio[26] 	0.0023997257456291
scalar tree_4_3_u05_r1_network.node[27].core_layer 	interests[27] 	13076
scalar tree_4_3_u05_r1_network.node[27].core_layer 	data[27] 	8960
scalar tree_4_3_u05_r1_network.node[27].content_store 	p_hit[27] 	0.31462220862649
scalar tree_4_3_u05_r1_network.node[27].content_store 	hits[27] 	4114
scalar tree_4_3_u05_r1_network.node[27].content_store 	misses[27] 	8962
scalar tree_4_3_u05_r1_network.node[27].content_store 	decision_yes[27] 	23
scalar tree_4_3_u05_r1_network.node[27].content_store 	decision_no[27] 	8937
scalar tree_4_3_u05_r1_network.node[27].content_store 	decision_ratio[27] 	0.0025669642857143
scalar tree_4_3_u05_r1_network.node[28].core_layer 	interests[28] 	12486
scalar tree_4_3_u05_r1_network.node[28].core_layer 	data[28] 	8864
scalar tree_4_3_u05_r1_network.node[28].content_store 	p_hit[28] 	0.29008489508249
scalar tree_4_3_u05_r1_network.node[28].content_store 	hits[28] 	3622
scalar tree_4_3_u05_r1_network.node[28].content_store 	misses[28] 	8864
scalar tree_4_3_u05_r1_network.node[28].content_store 	decision_yes[28] 	31
scalar tree_4_3_u05_r1_network.node[28].content_store 	decision_no[28] 	8833
scalar tree_4_3_u05_r1_network.node[28].content_store 	decision_ratio[28] 	0.0034972924187726
scalar tree_4_3_u05_r1_network.node[29].core_layer 	interests[29] 	12276
scalar tree_4_3_u05_r1_network.node[29].core_layer 	data[29] 	8603
scalar tree_4_3_u05_r1_network.node[29].content_store 	p_hit[29] 	0.29920169436298
scalar tree_4_3_u05_r1_network.node[29].content_store 	hits[29] 	3673
scalar tree_4_3_u05_r1_network.node[29].content_store 	misses[29] 	8603
scalar tree_4_3_u05_r1_network.node[29].content_store 	decision_yes[29] 	25
scalar tree_4_3_u05_r1_network.node[29].content_store 	decision_no[29] 	8578
scalar tree_4_3_u05_r1_network.node[29].content_store 	decision_ratio[29] 	0.0029059630361502
scalar tree_4_3_u05_r1_network.node[30].core_layer 	interests[30] 	12475
scalar tree_4_3_u05_r1_network.node[30].core_layer 	data[30] 	8688
scalar tree_4_3_u05_r1_network.node[30].content_store 	p_hit[30] 	0.30356713426854
scalar tree_4_3_u05_r1_network.node[30].content_store 	hits[30] 	3787
scalar tree_4_3_u05_r1_network.node[30].content_store 	misses[30] 	8688
scalar tree_4_3_u05_r1_network.node[30].content_store 	decision_yes[30] 	22
scalar tree_4_3_u05_r1_network.node[30].content_store 	decision_no[30] 	8666
scalar tree_4_3_u05_r1_network.node[30].content_store 	decision_ratio[30] 	0.0025322283609576
scalar tree_4_3_u05_r1_network.node[31].core_layer 	interests[31] 	12590
scalar tree_4_3_u05_r1_network.node[31].core_layer 	data[31] 	8851
scalar tree_4_3_u05_r1_network.node[31].content_store 	p_hit[31] 	0.29698173153296
scalar tree_4_3_u05_r1_network.node[31].content_store 	hits[31] 	3739
scalar tree_4_3_u05_r1_network.node[31].content_store 	misses[31] 	8851
scalar tree_4_3_u05_r1_network.node[31].content_store 	decision_yes[31] 	25
scalar tree_4_3_u05_r1_network.node[31].content_store 	decision_no[31] 	8826
scalar tree_4_3_u05_r1_network.node[31].content_store 	decision_ratio[31] 	0.0028245396000452
scalar tree_4_3_u05_r1_network.node[32].core_layer 	interests[32] 	12582
scalar tree_4_3_u05_r1_network.node[32].core_layer 	data[32] 	8952
scalar tree_4_3_u05_r1_network.node[32].content_store 	p_hit[32] 	0.28842791289143
scalar tree_4_3_u05_r1_network.node[32].content_store 	hits[32] 	3629
scalar tree_4_3_u05_r1_network.node[32].content_store 	misses[32] 	8953
scalar tree_4_3_u05_r1_network.node[32].content_store 	decision_yes[32] 	25
scalar tree_4_3_u05_r1_network.node[32].content_store 	decision_no[32] 	8927
scalar tree_4_3_u05_r1_network.node[32].content_store 	decision_ratio[32] 	0.002792672028597
scalar tree_4_3_u05_r1_network.node[33].core_layer 	interests[33] 	12601
scalar tree_4_3_u05_r1_network.node[33].core_layer 	data[33] 	8768
scalar tree_4_3_u05_r1_network.node[33].content_store 	p_hit[33] 	0.30418220776129
scalar tree_4_3_u05_r1_network.node[33].content_store 	hits[33] 	3833
scalar tree_4_3_u05_r1_network.node[33].content_store 	misses[33] 	8768
scalar tree_4_3_u05_r1_network.node[33].content_store 	decision_yes[33] 	24
scalar tree_4_3_u05_r1_network.node[33].content_store 	decision_no[33] 	8744
scalar tree_4_3_u05_r1_network.node[33].content_store 	decision_ratio[33] 	0.0027372262773723
scalar tree_4_3_u05_r1_network.node[34].core_layer 	interests[34] 	12802
scalar tree_4_3_u05_r1_network.node[34].core_layer 	data[34] 	8691
scalar tree_4_3_u05_r1_network.node[34].content_store 	p_hit[34] 	0.32112169973442
scalar tree_4_3_u05_r1_network.node[34].content_store 	hits[34] 	4111
scalar tree_4_3_u05_r1_network.node[34].content_store 	misses[34] 	8691
scalar tree_4_3_u05_r1_network.node[34].content_store 	decision_yes[34] 	24
scalar tree_4_3_u05_r1_network.node[34].content_store 	decision_no[34] 	8667
scalar tree_4_3_u05_r1_network.node[34].content_store 	decision_ratio[34] 	0.0027614773904039
scalar tree_4_3_u05_r1_network.node[35].core_layer 	interests[35] 	12558
scalar tree_4_3_u05_r1_network.node[35].core_layer 	data[35] 	8893
scalar tree_4_3_u05_r1_network.node[35].content_store 	p_hit[35] 	0.2918458353241
scalar tree_4_3_u05_r1_network.node[35].content_store 	hits[35] 	3665
scalar tree_4_3_u05_r1_network.node[35].content_store 	misses[35] 	8893
scalar tree_4_3_u05_r1_network.node[35].content_store 	decision_yes[35] 	27
scalar tree_4_3_u05_r1_network.node[35].content_store 	decision_no[35] 	8866
scalar tree_4_3_u05_r1_network.node[35].content_store 	decision_ratio[35] 	0.0030360958056899
scalar tree_4_3_u05_r1_network.node[36].core_layer 	interests[36] 	12350
scalar tree_4_3_u05_r1_network.node[36].core_layer 	data[36] 	8689
scalar tree_4_3_u05_r1_network.node[36].content_store 	p_hit[36] 	0.29643724696356
scalar tree_4_3_u05_r1_network.node[36].content_store 	hits[36] 	3661
scalar tree_4_3_u05_r1_network.node[36].content_store 	misses[36] 	8689
scalar tree_4_3_u05_r1_network.node[36].content_store 	decision_yes[36] 	18
scalar tree_4_3_u05_r1_network.node[36].content_store 	decision_no[36] 	8671
scalar tree_4_3_u05_r1_network.node[36].content_store 	decision_ratio[36] 	0.0020715847623432
scalar tree_4_3_u05_r1_network.node[37].core_layer 	interests[37] 	12400
scalar tree_4_3_u05_r1_network.node[37].core_layer 	data[37] 	8823
scalar tree_4_3_u05_r1_network.node[37].content_store 	p_hit[37] 	0.28854838709677
scalar tree_4_3_u05_r1_network.node[37].content_store 	hits[37] 	3578
scalar tree_4_3_u05_r1_network.node[37].content_store 	misses[37] 	8822
scalar tree_4_3_u05_r1_network.node[37].content_store 	decision_yes[37] 	21
scalar tree_4_3_u05_r1_network.node[37].content_store 	decision_no[37] 	8802
scalar tree_4_3_u05_r1_network.node[37].content_store 	decision_ratio[37] 	0.0023801428085685
scalar tree_4_3_u05_r1_network.node[38].core_layer 	interests[38] 	12744
scalar tree_4_3_u05_r1_network.node[38].core_layer 	data[38] 	8605
scalar tree_4_3_u05_r1_network.node[38].content_store 	p_hit[38] 	0.32470182046453
scalar tree_4_3_u05_r1_network.node[38].content_store 	hits[38] 	4138
scalar tree_4_3_u05_r1_network.node[38].content_store 	misses[38] 	8606
scalar tree_4_3_u05_r1_network.node[38].content_store 	decision_yes[38] 	22
scalar tree_4_3_u05_r1_network.node[38].content_store 	decision_no[38] 	8583
scalar tree_4_3_u05_r1_network.node[38].content_store 	decision_ratio[38] 	0.0025566531086578
scalar tree_4_3_u05_r1_network.node[39].core_layer 	interests[39] 	12162
scalar tree_4_3_u05_r1_network.node[39].core_layer 	data[39] 	8691
scalar tree_4_3_u05_r1_network.node[39].content_store 	p_hit[39] 	0.28539713862852
scalar tree_4_3_u05_r1_network.node[39].content_store 	hits[39] 	3471
scalar tree_4_3_u05_r1_network.node[39].content_store 	misses[39] 	8691
scalar tree_4_3_u05_r1_network.node[39].content_store 	decision_yes[39] 	21
scalar tree_4_3_u05_r1_network.node[39].content_store 	decision_no[39] 	8670
scalar tree_4_3_u05_r1_network.node[39].content_store 	decision_ratio[39] 	0.0024162927166034
scalar tree_4_3_u05_r1_network.client[13] 	hdistance[13] 	2.6469858595882
scalar tree_4_3_u05_r1_network.client[13] 	downloads[13] 	12093
scalar tree_4_3_u05_r1_network.client[13] 	avg_time[13] 	0.004138589542
scalar tree_4_3_u05_r1_network.client[14] 	hdistance[14] 	2.5821666666666
scalar tree_4_3_u05_r1_network.client[14] 	downloads[14] 	12000
scalar tree_4_3_u05_r1_network.client[14] 	avg_time[14] 	0.004051163682
scalar tree_4_3_u05_r1_network.client[15] 	hdistance[15] 	2.708659471039
scalar tree_4_3_u05_r1_network.client[15] 	downloads[15] 	12137
scalar tree_4_3_u05_r1_network.client[15] 	avg_time[15] 	0.004228719054
scalar tree_4_3_u05_r1_network.client[16] 	hdistance[16] 	2.6108281301347
scalar tree_4_3_u05_r1_network.client[16] 	downloads[16] 	12172
scalar tree_4_3_u05_r1_network.client[16] 	avg_time[16] 	0.004111664702
scalar tree_4_3_u05_r1_network.client[17] 	hdistance[17] 	2.6065438321077
scalar tree_4_3_u05_r1_network.client[17] 	downloads[17] 	12103
scalar tree_4_3_u05_r1_network.client[17] 	avg_time[17] 	0.004107408315
scalar tree_4_3_u05_r1_network.client[18] 	hdistance[18] 	2.5384937589009
scalar tree_4_3_u05_r1_network.client[18] 	downloads[18] 	11937
scalar tree_4_3_u05_r1_network.client[18] 	avg_time[18] 	0.003983649731
scalar tree_4_3_u05_r1_network.client[19] 	hdistance[19] 	2.6095053509733
scalar tree_4_3_u05_r1_network.client[19] 	downloads[19] 	11867
scalar tree_4_3_u05_r1_network.client[19] 	avg_time[19] 	0.004118200131
scalar tree_4_3_u05_r1_network.client[20] 	hdistance[20] 	2.5691137566138
scalar tree_4_3_u05_r1_network.client[20] 	downloads[20] 	12096
scalar tree_4_3_u05_r1_network.client[20] 	avg_time[20] 	0.004048442759
scalar tree_4_3_u05_r1_network.client[21] 	hdistance[21] 	2.5984614098169
scalar tree_4_3_u05_r1_network.client[21] 	downloads[21] 	11959
scalar tree_4_3_u05_r1_network.client[21] 	avg_time[21] 	0.004090305589
scalar tree_4_3_u05_r1_network.client[22] 	hdistance[22] 	2.6019540133075
scalar tree_4_3_u05_r1_network.client[22] 	downloads[22] 	11873
scalar tree_4_3_u05_r1_network.client[22] 	avg_time[22] 	0.004105783254
scalar tree_4_3_u05_r1_network.client[23] 	hdistance[23] 	2.6137749915283
scalar tree_4_3_u05_r1_network.client[23] 	downloads[23] 	11804
scalar tree_4_3_u05_r1_network.client[23] 	avg_time[23] 	0.004125547715
scalar tree_4_3_u05_r1_network.client[24] 	hdistance[24] 	2.5468814882485
scalar tree_4_3_u05_r1_network.client[24] 	downloads[24] 	12041
scalar tree_4_3_u05_r1_network.client[24] 	avg_time[24] 	0.003991102598
scalar tree_4_3_u05_r1_network.client[25] 	hdistance[25] 	2.580014840465
scalar tree_4_3_u05_r1_network.client[25] 	downloads[25] 	12129
scalar tree_4_3_u05_r1_network.client[25] 	avg_time[25] 	0.004041880069
scalar tree_4_3_u05_r1_network.client[26] 	hdistance[26] 	2.6606576531464
scalar tree_4_3_u05_r1_network.client[26] 	downloads[26] 	11982
scalar tree_4_3_u05_r1_network.client[26] 	avg_time[26] 	0.004173924577
scalar tree_4_3_u05_r1_network.client[27] 	hdistance[27] 	2.5814466693911
scalar tree_4_3_u05_r1_network.client[27] 	downloads[27] 	12235
scalar tree_4_3_u05_r1_network.client[27] 	avg_time[27] 	0.004035915416
scalar tree_4_3_u05_r1_network.client[28] 	hdistance[28] 	2.6419159691721
scalar tree_4_3_u05_r1_network.client[28] 	downloads[28] 	12067
scalar tree_4_3_u05_r1_network.client[28] 	avg_time[28] 	0.004137230712
scalar tree_4_3_u05_r1_network.client[29] 	hdistance[29] 	2.6173728813559
scalar tree_4_3_u05_r1_network.client[29] 	downloads[29] 	11800
scalar tree_4_3_u05_r1_network.client[29] 	avg_time[29] 	0.004099149583
scalar tree_4_3_u05_r1_network.client[30] 	hdistance[30] 	2.6117411607738
scalar tree_4_3_u05_r1_network.client[30] 	downloads[30] 	11992
scalar tree_4_3_u05_r1_network.client[30] 	avg_time[30] 	0.004093726177
scalar tree_4_3_u05_r1_network.client[31] 	hdistance[31] 	2.6392024388234
scalar tree_4_3_u05_r1_network.client[31] 	downloads[31] 	12137
scalar tree_4_3_u05_r1_network.client[31] 	avg_time[31] 	0.004114512465
scalar tree_4_3_u05_r1_network.client[32] 	hdistance[32] 	2.668316015174
scalar tree_4_3_u05_r1_network.client[32] 	downloads[32] 	12126
scalar tree_4_3_u05_r1_network.client[32] 	avg_time[32] 	0.004161303238
scalar tree_4_3_u05_r1_network.client[33] 	hdistance[33] 	2.6153529023747
scalar tree_4_3_u05_r1_network.client[33] 	downloads[33] 	12128
scalar tree_4_3_u05_r1_network.client[33] 	avg_time[33] 	0.004077503544
scalar tree_4_3_u05_r1_network.client[34] 	hdistance[34] 	2.5722362869198
scalar tree_4_3_u05_r1_network.client[34] 	downloads[34] 	11850
scalar tree_4_3_u05_r1_network.client[34] 	avg_time[34] 	0.00404225174
scalar tree_4_3_u05_r1_network.client[35] 	hdistance[35] 	2.627091963546
scalar tree_4_3_u05_r1_network.client[35] 	downloads[35] 	12070
scalar tree_4_3_u05_r1_network.client[35] 	avg_time[35] 	0.004148132863
scalar tree_4_3_u05_r1_network.client[36] 	hdistance[36] 	2.627598445158
scalar tree_4_3_u05_r1_network.client[36] 	downloads[36] 	11834
scalar tree_4_3_u05_r1_network.client[36] 	avg_time[36] 	0.004148552053
scalar tree_4_3_u05_r1_network.client[37] 	hdistance[37] 	2.6498717630512
scalar tree_4_3_u05_r1_network.client[37] 	downloads[37] 	12087
scalar tree_4_3_u05_r1_network.client[37] 	avg_time[37] 	0.004140974867
scalar tree_4_3_u05_r1_network.client[38] 	hdistance[38] 	2.5346551289591
scalar tree_4_3_u05_r1_network.client[38] 	downloads[38] 	11903
scalar tree_4_3_u05_r1_network.client[38] 	avg_time[38] 	0.003981514281
scalar tree_4_3_u05_r1_network.client[39] 	hdistance[39] 	2.6827336310778
scalar tree_4_3_u05_r1_network.client[39] 	downloads[39] 	11867
scalar tree_4_3_u05_r1_network.client[39] 	avg_time[39] 	0.004182351475
