version 2
run General-117-20160902-21:59:39-4279
attr a 0.9
attr cd ffc0.2
attr configname General
attr cr lru
attr datetime 20160902-21:59:39
attr experiment General
attr fsize 1
attr inifile hw5115/scenario_Y/omnetp.ini
attr iterationvars "$name=tree_4_3, $un=05, $rep=18, $cd=ffc0.2, $cr=lru, $fsize=1, $a=0.9, $sl=nrr, $ttl=1000, $variance=0.05"
attr iterationvars2 "$name=tree_4_3, $un=05, $rep=18, $cd=ffc0.2, $cr=lru, $fsize=1, $a=0.9, $sl=nrr, $ttl=1000, $variance=0.05, $repetition=0"
attr measurement "$name=tree_4_3, $un=05, $rep=18, $cd=ffc0.2, $cr=lru, $fsize=1, $a=0.9, $sl=nrr, $ttl=1000, $variance=0.05"
attr name tree_4_3
attr network networks.${name}_u${un}_r${rep}_network
attr processid 4279
attr rep 18
attr repetition 0
attr replication #0
attr resultdir results
attr runnumber 117
attr seedset 18
attr sl nrr
attr ttl 1000
attr un 05
attr variance 0.05

scalar . 	a 	0.9
scalar . 	fsize 	1
scalar . 	rep 	18
scalar . 	ttl 	1000
scalar . 	un 	05
scalar . 	variance 	0.05
scalar tree_4_3_u05_r18_network.content_distribution 	repo-0 	0
scalar tree_4_3_u05_r18_network.content_distribution 	client-0 	13
scalar tree_4_3_u05_r18_network.content_distribution 	client-1 	14
scalar tree_4_3_u05_r18_network.content_distribution 	client-2 	15
scalar tree_4_3_u05_r18_network.content_distribution 	client-3 	16
scalar tree_4_3_u05_r18_network.content_distribution 	client-4 	17
scalar tree_4_3_u05_r18_network.content_distribution 	client-5 	18
scalar tree_4_3_u05_r18_network.content_distribution 	client-6 	19
scalar tree_4_3_u05_r18_network.content_distribution 	client-7 	20
scalar tree_4_3_u05_r18_network.content_distribution 	client-8 	21
scalar tree_4_3_u05_r18_network.content_distribution 	client-9 	22
scalar tree_4_3_u05_r18_network.content_distribution 	client-10 	23
scalar tree_4_3_u05_r18_network.content_distribution 	client-11 	24
scalar tree_4_3_u05_r18_network.content_distribution 	client-12 	25
scalar tree_4_3_u05_r18_network.content_distribution 	client-13 	26
scalar tree_4_3_u05_r18_network.content_distribution 	client-14 	27
scalar tree_4_3_u05_r18_network.content_distribution 	client-15 	28
scalar tree_4_3_u05_r18_network.content_distribution 	client-16 	29
scalar tree_4_3_u05_r18_network.content_distribution 	client-17 	30
scalar tree_4_3_u05_r18_network.content_distribution 	client-18 	31
scalar tree_4_3_u05_r18_network.content_distribution 	client-19 	32
scalar tree_4_3_u05_r18_network.content_distribution 	client-20 	33
scalar tree_4_3_u05_r18_network.content_distribution 	client-21 	34
scalar tree_4_3_u05_r18_network.content_distribution 	client-22 	35
scalar tree_4_3_u05_r18_network.content_distribution 	client-23 	36
scalar tree_4_3_u05_r18_network.content_distribution 	client-24 	37
scalar tree_4_3_u05_r18_network.content_distribution 	client-25 	38
scalar tree_4_3_u05_r18_network.content_distribution 	client-26 	39
scalar tree_4_3_u05_r18_network.content_distribution 	repo-0_card 	100000
scalar tree_4_3_u05_r18_network.content_distribution 	repo-0_price 	0
scalar tree_4_3_u05_r18_network.statistics 	stabilization_time 	1729.9
scalar tree_4_3_u05_r18_network.statistics 	p_hit 	0.2329069421553
scalar tree_4_3_u05_r18_network.statistics 	interests 	24768.325
scalar tree_4_3_u05_r18_network.statistics 	data 	16660.875
scalar tree_4_3_u05_r18_network.statistics 	hdistance 	2.6161306272814
scalar tree_4_3_u05_r18_network.statistics 	avg_time 	0.004110152907
scalar tree_4_3_u05_r18_network.statistics 	downloads 	324296
scalar tree_4_3_u05_r18_network.statistics 	total_cost 	0
scalar tree_4_3_u05_r18_network.statistics 	total_replicas 	100000
scalar tree_4_3_u05_r18_network.statistics 	inner_hit 	0.43900633988702
scalar tree_4_3_u05_r18_network.node[0].core_layer 	interests[0] 	185431
scalar tree_4_3_u05_r18_network.node[0].core_layer 	repo_load[0] 	181928
scalar tree_4_3_u05_r18_network.node[0].core_layer 	data[0] 	0
scalar tree_4_3_u05_r18_network.node[0].core_layer 	repo_int[0] 	181928
scalar tree_4_3_u05_r18_network.node[0].content_store 	p_hit[0] 	0.018891123922106
scalar tree_4_3_u05_r18_network.node[0].content_store 	hits[0] 	3503
scalar tree_4_3_u05_r18_network.node[0].content_store 	misses[0] 	181928
scalar tree_4_3_u05_r18_network.node[0].content_store 	decision_yes[0] 	156
scalar tree_4_3_u05_r18_network.node[0].content_store 	decision_no[0] 	181772
scalar tree_4_3_u05_r18_network.node[0].content_store 	decision_ratio[0] 	0.00085748208082318
scalar tree_4_3_u05_r18_network.node[1].core_layer 	interests[1] 	126405
scalar tree_4_3_u05_r18_network.node[1].core_layer 	data[1] 	122968
scalar tree_4_3_u05_r18_network.node[1].content_store 	p_hit[1] 	0.027158735809501
scalar tree_4_3_u05_r18_network.node[1].content_store 	hits[1] 	3433
scalar tree_4_3_u05_r18_network.node[1].content_store 	misses[1] 	122972
scalar tree_4_3_u05_r18_network.node[1].content_store 	decision_yes[1] 	151
scalar tree_4_3_u05_r18_network.node[1].content_store 	decision_no[1] 	122817
scalar tree_4_3_u05_r18_network.node[1].content_store 	decision_ratio[1] 	0.0012279617461453
scalar tree_4_3_u05_r18_network.node[2].core_layer 	interests[2] 	66111
scalar tree_4_3_u05_r18_network.node[2].core_layer 	data[2] 	62252
scalar tree_4_3_u05_r18_network.node[2].content_store 	p_hit[2] 	0.05834127452315
scalar tree_4_3_u05_r18_network.node[2].content_store 	hits[2] 	3857
scalar tree_4_3_u05_r18_network.node[2].content_store 	misses[2] 	62254
scalar tree_4_3_u05_r18_network.node[2].content_store 	decision_yes[2] 	87
scalar tree_4_3_u05_r18_network.node[2].content_store 	decision_no[2] 	62165
scalar tree_4_3_u05_r18_network.node[2].content_store 	decision_ratio[2] 	0.0013975454603868
scalar tree_4_3_u05_r18_network.node[3].core_layer 	interests[3] 	19875
scalar tree_4_3_u05_r18_network.node[3].core_layer 	data[3] 	16940
scalar tree_4_3_u05_r18_network.node[3].content_store 	p_hit[3] 	0.14767295597484
scalar tree_4_3_u05_r18_network.node[3].content_store 	hits[3] 	2935
scalar tree_4_3_u05_r18_network.node[3].content_store 	misses[3] 	16940
scalar tree_4_3_u05_r18_network.node[3].content_store 	decision_yes[3] 	49
scalar tree_4_3_u05_r18_network.node[3].content_store 	decision_no[3] 	16891
scalar tree_4_3_u05_r18_network.node[3].content_store 	decision_ratio[3] 	0.0028925619834711
scalar tree_4_3_u05_r18_network.node[4].core_layer 	interests[4] 	26787
scalar tree_4_3_u05_r18_network.node[4].core_layer 	data[4] 	24458
scalar tree_4_3_u05_r18_network.node[4].content_store 	p_hit[4] 	0.086907828424236
scalar tree_4_3_u05_r18_network.node[4].content_store 	hits[4] 	2328
scalar tree_4_3_u05_r18_network.node[4].content_store 	misses[4] 	24459
scalar tree_4_3_u05_r18_network.node[4].content_store 	decision_yes[4] 	46
scalar tree_4_3_u05_r18_network.node[4].content_store 	decision_no[4] 	24412
scalar tree_4_3_u05_r18_network.node[4].content_store 	decision_ratio[4] 	0.0018807752064764
scalar tree_4_3_u05_r18_network.node[5].core_layer 	interests[5] 	27911
scalar tree_4_3_u05_r18_network.node[5].core_layer 	data[5] 	24570
scalar tree_4_3_u05_r18_network.node[5].content_store 	p_hit[5] 	0.11970190964136
scalar tree_4_3_u05_r18_network.node[5].content_store 	hits[5] 	3341
scalar tree_4_3_u05_r18_network.node[5].content_store 	misses[5] 	24570
scalar tree_4_3_u05_r18_network.node[5].content_store 	decision_yes[5] 	54
scalar tree_4_3_u05_r18_network.node[5].content_store 	decision_no[5] 	24516
scalar tree_4_3_u05_r18_network.node[5].content_store 	decision_ratio[5] 	0.0021978021978022
scalar tree_4_3_u05_r18_network.node[6].core_layer 	interests[6] 	30232
scalar tree_4_3_u05_r18_network.node[6].core_layer 	data[6] 	26447
scalar tree_4_3_u05_r18_network.node[6].content_store 	p_hit[6] 	0.1251653876687
scalar tree_4_3_u05_r18_network.node[6].content_store 	hits[6] 	3784
scalar tree_4_3_u05_r18_network.node[6].content_store 	misses[6] 	26448
scalar tree_4_3_u05_r18_network.node[6].content_store 	decision_yes[6] 	78
scalar tree_4_3_u05_r18_network.node[6].content_store 	decision_no[6] 	26369
scalar tree_4_3_u05_r18_network.node[6].content_store 	decision_ratio[6] 	0.0029492948160472
scalar tree_4_3_u05_r18_network.node[7].core_layer 	interests[7] 	28701
scalar tree_4_3_u05_r18_network.node[7].core_layer 	data[7] 	25227
scalar tree_4_3_u05_r18_network.node[7].content_store 	p_hit[7] 	0.12100623671649
scalar tree_4_3_u05_r18_network.node[7].content_store 	hits[7] 	3473
scalar tree_4_3_u05_r18_network.node[7].content_store 	misses[7] 	25228
scalar tree_4_3_u05_r18_network.node[7].content_store 	decision_yes[7] 	63
scalar tree_4_3_u05_r18_network.node[7].content_store 	decision_no[7] 	25164
scalar tree_4_3_u05_r18_network.node[7].content_store 	decision_ratio[7] 	0.0024973242953978
scalar tree_4_3_u05_r18_network.node[8].core_layer 	interests[8] 	27680
scalar tree_4_3_u05_r18_network.node[8].core_layer 	data[8] 	25382
scalar tree_4_3_u05_r18_network.node[8].content_store 	p_hit[8] 	0.082984104046243
scalar tree_4_3_u05_r18_network.node[8].content_store 	hits[8] 	2297
scalar tree_4_3_u05_r18_network.node[8].content_store 	misses[8] 	25383
scalar tree_4_3_u05_r18_network.node[8].content_store 	decision_yes[8] 	54
scalar tree_4_3_u05_r18_network.node[8].content_store 	decision_no[8] 	25328
scalar tree_4_3_u05_r18_network.node[8].content_store 	decision_ratio[8] 	0.0021274919234103
scalar tree_4_3_u05_r18_network.node[9].core_layer 	interests[9] 	28077
scalar tree_4_3_u05_r18_network.node[9].core_layer 	data[9] 	25309
scalar tree_4_3_u05_r18_network.node[9].content_store 	p_hit[9] 	0.098586031271147
scalar tree_4_3_u05_r18_network.node[9].content_store 	hits[9] 	2768
scalar tree_4_3_u05_r18_network.node[9].content_store 	misses[9] 	25309
scalar tree_4_3_u05_r18_network.node[9].content_store 	decision_yes[9] 	55
scalar tree_4_3_u05_r18_network.node[9].content_store 	decision_no[9] 	25254
scalar tree_4_3_u05_r18_network.node[9].content_store 	decision_ratio[9] 	0.002173139989727
scalar tree_4_3_u05_r18_network.node[10].core_layer 	interests[10] 	44361
scalar tree_4_3_u05_r18_network.node[10].core_layer 	data[10] 	40751
scalar tree_4_3_u05_r18_network.node[10].content_store 	p_hit[10] 	0.081400329117919
scalar tree_4_3_u05_r18_network.node[10].content_store 	hits[10] 	3611
scalar tree_4_3_u05_r18_network.node[10].content_store 	misses[10] 	40750
scalar tree_4_3_u05_r18_network.node[10].content_store 	decision_yes[10] 	62
scalar tree_4_3_u05_r18_network.node[10].content_store 	decision_no[10] 	40689
scalar tree_4_3_u05_r18_network.node[10].content_store 	decision_ratio[10] 	0.0015214350568084
scalar tree_4_3_u05_r18_network.node[11].core_layer 	interests[11] 	21088
scalar tree_4_3_u05_r18_network.node[11].core_layer 	data[11] 	17591
scalar tree_4_3_u05_r18_network.node[11].content_store 	p_hit[11] 	0.16578148710167
scalar tree_4_3_u05_r18_network.node[11].content_store 	hits[11] 	3496
scalar tree_4_3_u05_r18_network.node[11].content_store 	misses[11] 	17592
scalar tree_4_3_u05_r18_network.node[11].content_store 	decision_yes[11] 	47
scalar tree_4_3_u05_r18_network.node[11].content_store 	decision_no[11] 	17544
scalar tree_4_3_u05_r18_network.node[11].content_store 	decision_ratio[11] 	0.0026718208174635
scalar tree_4_3_u05_r18_network.node[12].core_layer 	interests[12] 	19390
scalar tree_4_3_u05_r18_network.node[12].core_layer 	data[12] 	17042
scalar tree_4_3_u05_r18_network.node[12].content_store 	p_hit[12] 	0.12109334708613
scalar tree_4_3_u05_r18_network.node[12].content_store 	hits[12] 	2348
scalar tree_4_3_u05_r18_network.node[12].content_store 	misses[12] 	17042
scalar tree_4_3_u05_r18_network.node[12].content_store 	decision_yes[12] 	34
scalar tree_4_3_u05_r18_network.node[12].content_store 	decision_no[12] 	17008
scalar tree_4_3_u05_r18_network.node[12].content_store 	decision_ratio[12] 	0.0019950710010562
scalar tree_4_3_u05_r18_network.node[13].core_layer 	interests[13] 	12477
scalar tree_4_3_u05_r18_network.node[13].core_layer 	data[13] 	8890
scalar tree_4_3_u05_r18_network.node[13].content_store 	p_hit[13] 	0.28740883225134
scalar tree_4_3_u05_r18_network.node[13].content_store 	hits[13] 	3586
scalar tree_4_3_u05_r18_network.node[13].content_store 	misses[13] 	8891
scalar tree_4_3_u05_r18_network.node[13].content_store 	decision_yes[13] 	23
scalar tree_4_3_u05_r18_network.node[13].content_store 	decision_no[13] 	8867
scalar tree_4_3_u05_r18_network.node[13].content_store 	decision_ratio[13] 	0.0025871766029246
scalar tree_4_3_u05_r18_network.node[14].core_layer 	interests[14] 	12350
scalar tree_4_3_u05_r18_network.node[14].core_layer 	data[14] 	8766
scalar tree_4_3_u05_r18_network.node[14].content_store 	p_hit[14] 	0.2902024291498
scalar tree_4_3_u05_r18_network.node[14].content_store 	hits[14] 	3584
scalar tree_4_3_u05_r18_network.node[14].content_store 	misses[14] 	8766
scalar tree_4_3_u05_r18_network.node[14].content_store 	decision_yes[14] 	19
scalar tree_4_3_u05_r18_network.node[14].content_store 	decision_no[14] 	8747
scalar tree_4_3_u05_r18_network.node[14].content_store 	decision_ratio[14] 	0.0021674652064796
scalar tree_4_3_u05_r18_network.node[15].core_layer 	interests[15] 	12790
scalar tree_4_3_u05_r18_network.node[15].core_layer 	data[15] 	8912
scalar tree_4_3_u05_r18_network.node[15].content_store 	p_hit[15] 	0.30320562939797
scalar tree_4_3_u05_r18_network.node[15].content_store 	hits[15] 	3878
scalar tree_4_3_u05_r18_network.node[15].content_store 	misses[15] 	8912
scalar tree_4_3_u05_r18_network.node[15].content_store 	decision_yes[15] 	22
scalar tree_4_3_u05_r18_network.node[15].content_store 	decision_no[15] 	8890
scalar tree_4_3_u05_r18_network.node[15].content_store 	decision_ratio[15] 	0.0024685816876122
scalar tree_4_3_u05_r18_network.node[16].core_layer 	interests[16] 	12470
scalar tree_4_3_u05_r18_network.node[16].core_layer 	data[16] 	8897
scalar tree_4_3_u05_r18_network.node[16].content_store 	p_hit[16] 	0.28652766639936
scalar tree_4_3_u05_r18_network.node[16].content_store 	hits[16] 	3573
scalar tree_4_3_u05_r18_network.node[16].content_store 	misses[16] 	8897
scalar tree_4_3_u05_r18_network.node[16].content_store 	decision_yes[16] 	24
scalar tree_4_3_u05_r18_network.node[16].content_store 	decision_no[16] 	8873
scalar tree_4_3_u05_r18_network.node[16].content_store 	decision_ratio[16] 	0.0026975384961223
scalar tree_4_3_u05_r18_network.node[17].core_layer 	interests[17] 	12147
scalar tree_4_3_u05_r18_network.node[17].core_layer 	data[17] 	8665
scalar tree_4_3_u05_r18_network.node[17].content_store 	p_hit[17] 	0.286737466041
scalar tree_4_3_u05_r18_network.node[17].content_store 	hits[17] 	3483
scalar tree_4_3_u05_r18_network.node[17].content_store 	misses[17] 	8664
scalar tree_4_3_u05_r18_network.node[17].content_store 	decision_yes[17] 	14
scalar tree_4_3_u05_r18_network.node[17].content_store 	decision_no[17] 	8651
scalar tree_4_3_u05_r18_network.node[17].content_store 	decision_ratio[17] 	0.0016156953260242
scalar tree_4_3_u05_r18_network.node[18].core_layer 	interests[18] 	13077
scalar tree_4_3_u05_r18_network.node[18].core_layer 	data[18] 	8862
scalar tree_4_3_u05_r18_network.node[18].content_store 	p_hit[18] 	0.32239810354057
scalar tree_4_3_u05_r18_network.node[18].content_store 	hits[18] 	4216
scalar tree_4_3_u05_r18_network.node[18].content_store 	misses[18] 	8861
scalar tree_4_3_u05_r18_network.node[18].content_store 	decision_yes[18] 	23
scalar tree_4_3_u05_r18_network.node[18].content_store 	decision_no[18] 	8839
scalar tree_4_3_u05_r18_network.node[18].content_store 	decision_ratio[18] 	0.0025953509365832
scalar tree_4_3_u05_r18_network.node[19].core_layer 	interests[19] 	12536
scalar tree_4_3_u05_r18_network.node[19].core_layer 	data[19] 	8631
scalar tree_4_3_u05_r18_network.node[19].content_store 	p_hit[19] 	0.31142310146777
scalar tree_4_3_u05_r18_network.node[19].content_store 	hits[19] 	3904
scalar tree_4_3_u05_r18_network.node[19].content_store 	misses[19] 	8632
scalar tree_4_3_u05_r18_network.node[19].content_store 	decision_yes[19] 	16
scalar tree_4_3_u05_r18_network.node[19].content_store 	decision_no[19] 	8615
scalar tree_4_3_u05_r18_network.node[19].content_store 	decision_ratio[19] 	0.0018537828756807
scalar tree_4_3_u05_r18_network.node[20].core_layer 	interests[20] 	12339
scalar tree_4_3_u05_r18_network.node[20].core_layer 	data[20] 	8723
scalar tree_4_3_u05_r18_network.node[20].content_store 	p_hit[20] 	0.29297349866278
scalar tree_4_3_u05_r18_network.node[20].content_store 	hits[20] 	3615
scalar tree_4_3_u05_r18_network.node[20].content_store 	misses[20] 	8724
scalar tree_4_3_u05_r18_network.node[20].content_store 	decision_yes[20] 	25
scalar tree_4_3_u05_r18_network.node[20].content_store 	decision_no[20] 	8698
scalar tree_4_3_u05_r18_network.node[20].content_store 	decision_ratio[20] 	0.0028659864725438
scalar tree_4_3_u05_r18_network.node[21].core_layer 	interests[21] 	12557
scalar tree_4_3_u05_r18_network.node[21].core_layer 	data[21] 	8892
scalar tree_4_3_u05_r18_network.node[21].content_store 	p_hit[21] 	0.29186907700884
scalar tree_4_3_u05_r18_network.node[21].content_store 	hits[21] 	3665
scalar tree_4_3_u05_r18_network.node[21].content_store 	misses[21] 	8892
scalar tree_4_3_u05_r18_network.node[21].content_store 	decision_yes[21] 	14
scalar tree_4_3_u05_r18_network.node[21].content_store 	decision_no[21] 	8878
scalar tree_4_3_u05_r18_network.node[21].content_store 	decision_ratio[21] 	0.00157444894287
scalar tree_4_3_u05_r18_network.node[22].core_layer 	interests[22] 	12522
scalar tree_4_3_u05_r18_network.node[22].core_layer 	data[22] 	8833
scalar tree_4_3_u05_r18_network.node[22].content_store 	p_hit[22] 	0.29460150135761
scalar tree_4_3_u05_r18_network.node[22].content_store 	hits[22] 	3689
scalar tree_4_3_u05_r18_network.node[22].content_store 	misses[22] 	8833
scalar tree_4_3_u05_r18_network.node[22].content_store 	decision_yes[22] 	25
scalar tree_4_3_u05_r18_network.node[22].content_store 	decision_no[22] 	8808
scalar tree_4_3_u05_r18_network.node[22].content_store 	decision_ratio[22] 	0.0028302954828484
scalar tree_4_3_u05_r18_network.node[23].core_layer 	interests[23] 	12417
scalar tree_4_3_u05_r18_network.node[23].core_layer 	data[23] 	8872
scalar tree_4_3_u05_r18_network.node[23].content_store 	p_hit[23] 	0.28549569139084
scalar tree_4_3_u05_r18_network.node[23].content_store 	hits[23] 	3545
scalar tree_4_3_u05_r18_network.node[23].content_store 	misses[23] 	8872
scalar tree_4_3_u05_r18_network.node[23].content_store 	decision_yes[23] 	15
scalar tree_4_3_u05_r18_network.node[23].content_store 	decision_no[23] 	8857
scalar tree_4_3_u05_r18_network.node[23].content_store 	decision_ratio[23] 	0.0016907123534716
scalar tree_4_3_u05_r18_network.node[24].core_layer 	interests[24] 	12789
scalar tree_4_3_u05_r18_network.node[24].core_layer 	data[24] 	8791
scalar tree_4_3_u05_r18_network.node[24].content_store 	p_hit[24] 	0.31261240128235
scalar tree_4_3_u05_r18_network.node[24].content_store 	hits[24] 	3998
scalar tree_4_3_u05_r18_network.node[24].content_store 	misses[24] 	8791
scalar tree_4_3_u05_r18_network.node[24].content_store 	decision_yes[24] 	22
scalar tree_4_3_u05_r18_network.node[24].content_store 	decision_no[24] 	8769
scalar tree_4_3_u05_r18_network.node[24].content_store 	decision_ratio[24] 	0.0025025594357866
scalar tree_4_3_u05_r18_network.node[25].core_layer 	interests[25] 	12384
scalar tree_4_3_u05_r18_network.node[25].core_layer 	data[25] 	8683
scalar tree_4_3_u05_r18_network.node[25].content_store 	p_hit[25] 	0.29885335917313
scalar tree_4_3_u05_r18_network.node[25].content_store 	hits[25] 	3701
scalar tree_4_3_u05_r18_network.node[25].content_store 	misses[25] 	8683
scalar tree_4_3_u05_r18_network.node[25].content_store 	decision_yes[25] 	14
scalar tree_4_3_u05_r18_network.node[25].content_store 	decision_no[25] 	8669
scalar tree_4_3_u05_r18_network.node[25].content_store 	decision_ratio[25] 	0.0016123459633767
scalar tree_4_3_u05_r18_network.node[26].core_layer 	interests[26] 	12558
scalar tree_4_3_u05_r18_network.node[26].core_layer 	data[26] 	8909
scalar tree_4_3_u05_r18_network.node[26].content_store 	p_hit[26] 	0.29057174709349
scalar tree_4_3_u05_r18_network.node[26].content_store 	hits[26] 	3649
scalar tree_4_3_u05_r18_network.node[26].content_store 	misses[26] 	8909
scalar tree_4_3_u05_r18_network.node[26].content_store 	decision_yes[26] 	26
scalar tree_4_3_u05_r18_network.node[26].content_store 	decision_no[26] 	8883
scalar tree_4_3_u05_r18_network.node[26].content_store 	decision_ratio[26] 	0.0029183971265013
scalar tree_4_3_u05_r18_network.node[27].core_layer 	interests[27] 	12455
scalar tree_4_3_u05_r18_network.node[27].core_layer 	data[27] 	8824
scalar tree_4_3_u05_r18_network.node[27].content_store 	p_hit[27] 	0.2915295062224
scalar tree_4_3_u05_r18_network.node[27].content_store 	hits[27] 	3631
scalar tree_4_3_u05_r18_network.node[27].content_store 	misses[27] 	8824
scalar tree_4_3_u05_r18_network.node[27].content_store 	decision_yes[27] 	25
scalar tree_4_3_u05_r18_network.node[27].content_store 	decision_no[27] 	8799
scalar tree_4_3_u05_r18_network.node[27].content_store 	decision_ratio[27] 	0.0028331822302811
scalar tree_4_3_u05_r18_network.node[28].core_layer 	interests[28] 	12355
scalar tree_4_3_u05_r18_network.node[28].core_layer 	data[28] 	8747
scalar tree_4_3_u05_r18_network.node[28].content_store 	p_hit[28] 	0.29202751922299
scalar tree_4_3_u05_r18_network.node[28].content_store 	hits[28] 	3608
scalar tree_4_3_u05_r18_network.node[28].content_store 	misses[28] 	8747
scalar tree_4_3_u05_r18_network.node[28].content_store 	decision_yes[28] 	31
scalar tree_4_3_u05_r18_network.node[28].content_store 	decision_no[28] 	8716
scalar tree_4_3_u05_r18_network.node[28].content_store 	decision_ratio[28] 	0.003544072253344
scalar tree_4_3_u05_r18_network.node[29].core_layer 	interests[29] 	12568
scalar tree_4_3_u05_r18_network.node[29].core_layer 	data[29] 	8800
scalar tree_4_3_u05_r18_network.node[29].content_store 	p_hit[29] 	0.29980903882877
scalar tree_4_3_u05_r18_network.node[29].content_store 	hits[29] 	3768
scalar tree_4_3_u05_r18_network.node[29].content_store 	misses[29] 	8800
scalar tree_4_3_u05_r18_network.node[29].content_store 	decision_yes[29] 	19
scalar tree_4_3_u05_r18_network.node[29].content_store 	decision_no[29] 	8781
scalar tree_4_3_u05_r18_network.node[29].content_store 	decision_ratio[29] 	0.0021590909090909
scalar tree_4_3_u05_r18_network.node[30].core_layer 	interests[30] 	12270
scalar tree_4_3_u05_r18_network.node[30].core_layer 	data[30] 	8612
scalar tree_4_3_u05_r18_network.node[30].content_store 	p_hit[30] 	0.29812550937245
scalar tree_4_3_u05_r18_network.node[30].content_store 	hits[30] 	3658
scalar tree_4_3_u05_r18_network.node[30].content_store 	misses[30] 	8612
scalar tree_4_3_u05_r18_network.node[30].content_store 	decision_yes[30] 	15
scalar tree_4_3_u05_r18_network.node[30].content_store 	decision_no[30] 	8597
scalar tree_4_3_u05_r18_network.node[30].content_store 	decision_ratio[30] 	0.0017417556897353
scalar tree_4_3_u05_r18_network.node[31].core_layer 	interests[31] 	12345
scalar tree_4_3_u05_r18_network.node[31].core_layer 	data[31] 	8759
scalar tree_4_3_u05_r18_network.node[31].content_store 	p_hit[31] 	0.2906439854192
scalar tree_4_3_u05_r18_network.node[31].content_store 	hits[31] 	3588
scalar tree_4_3_u05_r18_network.node[31].content_store 	misses[31] 	8757
scalar tree_4_3_u05_r18_network.node[31].content_store 	decision_yes[31] 	23
scalar tree_4_3_u05_r18_network.node[31].content_store 	decision_no[31] 	8736
scalar tree_4_3_u05_r18_network.node[31].content_store 	decision_ratio[31] 	0.0026258705331659
scalar tree_4_3_u05_r18_network.node[32].core_layer 	interests[32] 	13071
scalar tree_4_3_u05_r18_network.node[32].core_layer 	data[32] 	8961
scalar tree_4_3_u05_r18_network.node[32].content_store 	p_hit[32] 	0.31443653890291
scalar tree_4_3_u05_r18_network.node[32].content_store 	hits[32] 	4110
scalar tree_4_3_u05_r18_network.node[32].content_store 	misses[32] 	8961
scalar tree_4_3_u05_r18_network.node[32].content_store 	decision_yes[32] 	23
scalar tree_4_3_u05_r18_network.node[32].content_store 	decision_no[32] 	8938
scalar tree_4_3_u05_r18_network.node[32].content_store 	decision_ratio[32] 	0.0025666778261355
scalar tree_4_3_u05_r18_network.node[33].core_layer 	interests[33] 	12621
scalar tree_4_3_u05_r18_network.node[33].core_layer 	data[33] 	8848
scalar tree_4_3_u05_r18_network.node[33].content_store 	p_hit[33] 	0.29894620077648
scalar tree_4_3_u05_r18_network.node[33].content_store 	hits[33] 	3773
scalar tree_4_3_u05_r18_network.node[33].content_store 	misses[33] 	8848
scalar tree_4_3_u05_r18_network.node[33].content_store 	decision_yes[33] 	18
scalar tree_4_3_u05_r18_network.node[33].content_store 	decision_no[33] 	8830
scalar tree_4_3_u05_r18_network.node[33].content_store 	decision_ratio[33] 	0.0020343580470163
scalar tree_4_3_u05_r18_network.node[34].core_layer 	interests[34] 	12853
scalar tree_4_3_u05_r18_network.node[34].core_layer 	data[34] 	8842
scalar tree_4_3_u05_r18_network.node[34].content_store 	p_hit[34] 	0.31198941881273
scalar tree_4_3_u05_r18_network.node[34].content_store 	hits[34] 	4010
scalar tree_4_3_u05_r18_network.node[34].content_store 	misses[34] 	8843
scalar tree_4_3_u05_r18_network.node[34].content_store 	decision_yes[34] 	18
scalar tree_4_3_u05_r18_network.node[34].content_store 	decision_no[34] 	8824
scalar tree_4_3_u05_r18_network.node[34].content_store 	decision_ratio[34] 	0.0020357385206967
scalar tree_4_3_u05_r18_network.node[35].core_layer 	interests[35] 	12427
scalar tree_4_3_u05_r18_network.node[35].core_layer 	data[35] 	8740
scalar tree_4_3_u05_r18_network.node[35].content_store 	p_hit[35] 	0.29669268528205
scalar tree_4_3_u05_r18_network.node[35].content_store 	hits[35] 	3687
scalar tree_4_3_u05_r18_network.node[35].content_store 	misses[35] 	8740
scalar tree_4_3_u05_r18_network.node[35].content_store 	decision_yes[35] 	27
scalar tree_4_3_u05_r18_network.node[35].content_store 	decision_no[35] 	8713
scalar tree_4_3_u05_r18_network.node[35].content_store 	decision_ratio[35] 	0.0030892448512586
scalar tree_4_3_u05_r18_network.node[36].core_layer 	interests[36] 	12973
scalar tree_4_3_u05_r18_network.node[36].core_layer 	data[36] 	8917
scalar tree_4_3_u05_r18_network.node[36].content_store 	p_hit[36] 	0.31257226547445
scalar tree_4_3_u05_r18_network.node[36].content_store 	hits[36] 	4055
scalar tree_4_3_u05_r18_network.node[36].content_store 	misses[36] 	8918
scalar tree_4_3_u05_r18_network.node[36].content_store 	decision_yes[36] 	24
scalar tree_4_3_u05_r18_network.node[36].content_store 	decision_no[36] 	8893
scalar tree_4_3_u05_r18_network.node[36].content_store 	decision_ratio[36] 	0.0026914881686666
scalar tree_4_3_u05_r18_network.node[37].core_layer 	interests[37] 	12844
scalar tree_4_3_u05_r18_network.node[37].core_layer 	data[37] 	8735
scalar tree_4_3_u05_r18_network.node[37].content_store 	p_hit[37] 	0.31991591404547
scalar tree_4_3_u05_r18_network.node[37].content_store 	hits[37] 	4109
scalar tree_4_3_u05_r18_network.node[37].content_store 	misses[37] 	8735
scalar tree_4_3_u05_r18_network.node[37].content_store 	decision_yes[37] 	21
scalar tree_4_3_u05_r18_network.node[37].content_store 	decision_no[37] 	8714
scalar tree_4_3_u05_r18_network.node[37].content_store 	decision_ratio[37] 	0.0024041213508872
scalar tree_4_3_u05_r18_network.node[38].core_layer 	interests[38] 	12238
scalar tree_4_3_u05_r18_network.node[38].core_layer 	data[38] 	8662
scalar tree_4_3_u05_r18_network.node[38].content_store 	p_hit[38] 	0.29220460859618
scalar tree_4_3_u05_r18_network.node[38].content_store 	hits[38] 	3576
scalar tree_4_3_u05_r18_network.node[38].content_store 	misses[38] 	8662
scalar tree_4_3_u05_r18_network.node[38].content_store 	decision_yes[38] 	18
scalar tree_4_3_u05_r18_network.node[38].content_store 	decision_no[38] 	8644
scalar tree_4_3_u05_r18_network.node[38].content_store 	decision_ratio[38] 	0.0020780420226276
scalar tree_4_3_u05_r18_network.node[39].core_layer 	interests[39] 	12251
scalar tree_4_3_u05_r18_network.node[39].core_layer 	data[39] 	8725
scalar tree_4_3_u05_r18_network.node[39].content_store 	p_hit[39] 	0.28781323973553
scalar tree_4_3_u05_r18_network.node[39].content_store 	hits[39] 	3526
scalar tree_4_3_u05_r18_network.node[39].content_store 	misses[39] 	8725
scalar tree_4_3_u05_r18_network.node[39].content_store 	decision_yes[39] 	25
scalar tree_4_3_u05_r18_network.node[39].content_store 	decision_no[39] 	8700
scalar tree_4_3_u05_r18_network.node[39].content_store 	decision_ratio[39] 	0.002865329512894
scalar tree_4_3_u05_r18_network.client[13] 	hdistance[13] 	2.6698710048476
scalar tree_4_3_u05_r18_network.client[13] 	downloads[13] 	12171
scalar tree_4_3_u05_r18_network.client[13] 	avg_time[13] 	0.004195708101
scalar tree_4_3_u05_r18_network.client[14] 	hdistance[14] 	2.6451291420978
scalar tree_4_3_u05_r18_network.client[14] 	downloads[14] 	12041
scalar tree_4_3_u05_r18_network.client[14] 	avg_time[14] 	0.004154801417
scalar tree_4_3_u05_r18_network.client[15] 	hdistance[15] 	2.5878046751518
scalar tree_4_3_u05_r18_network.client[15] 	downloads[15] 	12021
scalar tree_4_3_u05_r18_network.client[15] 	avg_time[15] 	0.004058561179
scalar tree_4_3_u05_r18_network.client[16] 	hdistance[16] 	2.6181011826544
scalar tree_4_3_u05_r18_network.client[16] 	downloads[16] 	12176
scalar tree_4_3_u05_r18_network.client[16] 	avg_time[16] 	0.004138550612
scalar tree_4_3_u05_r18_network.client[17] 	hdistance[17] 	2.6180021953897
scalar tree_4_3_u05_r18_network.client[17] 	downloads[17] 	11843
scalar tree_4_3_u05_r18_network.client[17] 	avg_time[17] 	0.004136617842
scalar tree_4_3_u05_r18_network.client[18] 	hdistance[18] 	2.5395348837209
scalar tree_4_3_u05_r18_network.client[18] 	downloads[18] 	12040
scalar tree_4_3_u05_r18_network.client[18] 	avg_time[18] 	0.003998003632
scalar tree_4_3_u05_r18_network.client[19] 	hdistance[19] 	2.5675833333333
scalar tree_4_3_u05_r18_network.client[19] 	downloads[19] 	12000
scalar tree_4_3_u05_r18_network.client[19] 	avg_time[19] 	0.004036154621
scalar tree_4_3_u05_r18_network.client[20] 	hdistance[20] 	2.5884236245682
scalar tree_4_3_u05_r18_network.client[20] 	downloads[20] 	11869
scalar tree_4_3_u05_r18_network.client[20] 	avg_time[20] 	0.004083629686
scalar tree_4_3_u05_r18_network.client[21] 	hdistance[21] 	2.6252181863519
scalar tree_4_3_u05_r18_network.client[21] 	downloads[21] 	12031
scalar tree_4_3_u05_r18_network.client[21] 	avg_time[21] 	0.004136311493
scalar tree_4_3_u05_r18_network.client[22] 	hdistance[22] 	2.6454206382097
scalar tree_4_3_u05_r18_network.client[22] 	downloads[22] 	12065
scalar tree_4_3_u05_r18_network.client[22] 	avg_time[22] 	0.004168086491
scalar tree_4_3_u05_r18_network.client[23] 	hdistance[23] 	2.6483068474915
scalar tree_4_3_u05_r18_network.client[23] 	downloads[23] 	12019
scalar tree_4_3_u05_r18_network.client[23] 	avg_time[23] 	0.004184704565
scalar tree_4_3_u05_r18_network.client[24] 	hdistance[24] 	2.5586624626618
scalar tree_4_3_u05_r18_network.client[24] 	downloads[24] 	12052
scalar tree_4_3_u05_r18_network.client[24] 	avg_time[24] 	0.004019514316
scalar tree_4_3_u05_r18_network.client[25] 	hdistance[25] 	2.659255516254
scalar tree_4_3_u05_r18_network.client[25] 	downloads[25] 	11874
scalar tree_4_3_u05_r18_network.client[25] 	avg_time[25] 	0.00416321076
scalar tree_4_3_u05_r18_network.client[26] 	hdistance[26] 	2.662181127714
scalar tree_4_3_u05_r18_network.client[26] 	downloads[26] 	12113
scalar tree_4_3_u05_r18_network.client[26] 	avg_time[26] 	0.004174432473
scalar tree_4_3_u05_r18_network.client[27] 	hdistance[27] 	2.6574097239596
scalar tree_4_3_u05_r18_network.client[27] 	downloads[27] 	11991
scalar tree_4_3_u05_r18_network.client[27] 	avg_time[27] 	0.004167956314
scalar tree_4_3_u05_r18_network.client[28] 	hdistance[28] 	2.6499118905765
scalar tree_4_3_u05_r18_network.client[28] 	downloads[28] 	11917
scalar tree_4_3_u05_r18_network.client[28] 	avg_time[28] 	0.004151594887
scalar tree_4_3_u05_r18_network.client[29] 	hdistance[29] 	2.642579256684
scalar tree_4_3_u05_r18_network.client[29] 	downloads[29] 	12081
scalar tree_4_3_u05_r18_network.client[29] 	avg_time[29] 	0.004133926304
scalar tree_4_3_u05_r18_network.client[30] 	hdistance[30] 	2.6428088558391
scalar tree_4_3_u05_r18_network.client[30] 	downloads[30] 	11834
scalar tree_4_3_u05_r18_network.client[30] 	avg_time[30] 	0.004131144588
scalar tree_4_3_u05_r18_network.client[31] 	hdistance[31] 	2.6232980332829
scalar tree_4_3_u05_r18_network.client[31] 	downloads[31] 	11898
scalar tree_4_3_u05_r18_network.client[31] 	avg_time[31] 	0.004122874851
scalar tree_4_3_u05_r18_network.client[32] 	hdistance[32] 	2.5563612392881
scalar tree_4_3_u05_r18_network.client[32] 	downloads[32] 	12136
scalar tree_4_3_u05_r18_network.client[32] 	avg_time[32] 	0.004023728009
scalar tree_4_3_u05_r18_network.client[33] 	hdistance[33] 	2.6195328031809
scalar tree_4_3_u05_r18_network.client[33] 	downloads[33] 	12072
scalar tree_4_3_u05_r18_network.client[33] 	avg_time[33] 	0.004121103652
scalar tree_4_3_u05_r18_network.client[34] 	hdistance[34] 	2.5572791372874
scalar tree_4_3_u05_r18_network.client[34] 	downloads[34] 	12055
scalar tree_4_3_u05_r18_network.client[34] 	avg_time[34] 	0.004020812171
scalar tree_4_3_u05_r18_network.client[35] 	hdistance[35] 	2.606286804346
scalar tree_4_3_u05_r18_network.client[35] 	downloads[35] 	12057
scalar tree_4_3_u05_r18_network.client[35] 	avg_time[35] 	0.004102675917
scalar tree_4_3_u05_r18_network.client[36] 	hdistance[36] 	2.5730032080283
scalar tree_4_3_u05_r18_network.client[36] 	downloads[36] 	12157
scalar tree_4_3_u05_r18_network.client[36] 	avg_time[36] 	0.004038328785
scalar tree_4_3_u05_r18_network.client[37] 	hdistance[37] 	2.5667836843865
scalar tree_4_3_u05_r18_network.client[37] 	downloads[37] 	11964
scalar tree_4_3_u05_r18_network.client[37] 	avg_time[37] 	0.004019657747
scalar tree_4_3_u05_r18_network.client[38] 	hdistance[38] 	2.6401108126259
scalar tree_4_3_u05_r18_network.client[38] 	downloads[38] 	11912
scalar tree_4_3_u05_r18_network.client[38] 	avg_time[38] 	0.004126256232
scalar tree_4_3_u05_r18_network.client[39] 	hdistance[39] 	2.6666666666667
scalar tree_4_3_u05_r18_network.client[39] 	downloads[39] 	11907
scalar tree_4_3_u05_r18_network.client[39] 	avg_time[39] 	0.004165781857
