version 2
run General-48-20160823-13:12:19-12979
attr D wfc0.05
attr F nrr
attr R lru
attr a 0.9
attr configname General
attr datetime 20160823-13:12:19
attr experiment General
attr inifile hw5115/scenario_B/bus.ini
attr iterationvars "$net=bus, $rep=0, $a=0.9, $F=nrr, $D=wfc0.05, $R=lru, $window=60, $variance=0.05, $mytime=600, $test=test"
attr iterationvars2 "$net=bus, $rep=0, $a=0.9, $F=nrr, $D=wfc0.05, $R=lru, $window=60, $variance=0.05, $mytime=600, $test=test, $repetition=0"
attr measurement "$net=bus, $rep=0, $a=0.9, $F=nrr, $D=wfc0.05, $R=lru, $window=60, $variance=0.05, $mytime=600, $test=test"
attr mytime 600
attr net bus
attr network networks.${net=bus}_network
attr processid 12979
attr rep 0
attr repetition 0
attr replication #0
attr resultdir results
attr runnumber 48
attr seedset 0
attr test test
attr variance 0.05
attr window 60

scalar . 	a 	0.9
scalar . 	mytime 	600
scalar . 	rep 	0
scalar . 	variance 	0.05
scalar . 	window 	60
scalar bus_network.content_distribution 	repo-0 	9
scalar bus_network.content_distribution 	client-0 	5
scalar bus_network.content_distribution 	client-1 	8
scalar bus_network.content_distribution 	client-2 	9
scalar bus_network.content_distribution 	client-3 	0
scalar bus_network.content_distribution 	client-4 	1
scalar bus_network.content_distribution 	client-5 	7
scalar bus_network.content_distribution 	client-6 	6
scalar bus_network.content_distribution 	client-7 	2
scalar bus_network.content_distribution 	client-8 	4
scalar bus_network.content_distribution 	client-9 	3
scalar bus_network.content_distribution 	repo-0_card 	100000
scalar bus_network.content_distribution 	repo-0_price 	0
scalar bus_network.statistics 	stabilization_time 	573.6
scalar bus_network.statistics 	p_hit 	0.10290788388712
scalar bus_network.statistics 	interests 	50849.2
scalar bus_network.statistics 	data 	38883.8
scalar bus_network.statistics 	hdistance 	3.9377886505488
scalar bus_network.statistics 	avg_time 	0.006489684856
scalar bus_network.statistics 	downloads 	119668
scalar bus_network.statistics 	total_cost 	0
scalar bus_network.statistics 	total_replicas 	100000
scalar bus_network.statistics 	inner_hit 	0.30766788113781
scalar bus_network.node[0].core_layer 	interests[0] 	12828
scalar bus_network.node[0].core_layer 	data[0] 	9231
scalar bus_network.node[0].core_layer 	repo_int[0] 	82850
scalar bus_network.node[0].content_store 	p_hit[0] 	0.28032429061428
scalar bus_network.node[0].content_store 	hits[0] 	3596
scalar bus_network.node[0].content_store 	misses[0] 	9232
scalar bus_network.node[0].content_store 	decision_yes[0] 	501
scalar bus_network.node[0].content_store 	decision_no[0] 	8730
scalar bus_network.node[0].content_store 	decision_ratio[0] 	0.054273643158921
scalar bus_network.node[1].core_layer 	interests[1] 	22557
scalar bus_network.node[1].core_layer 	data[1] 	18429
scalar bus_network.node[1].content_store 	p_hit[1] 	0.18304739105377
scalar bus_network.node[1].content_store 	hits[1] 	4129
scalar bus_network.node[1].content_store 	misses[1] 	18428
scalar bus_network.node[1].content_store 	decision_yes[1] 	1060
scalar bus_network.node[1].content_store 	decision_no[1] 	17369
scalar bus_network.node[1].content_store 	decision_ratio[1] 	0.057518042216072
scalar bus_network.node[2].core_layer 	interests[2] 	31591
scalar bus_network.node[2].core_layer 	data[2] 	27323
scalar bus_network.node[2].content_store 	p_hit[2] 	0.13503846032098
scalar bus_network.node[2].content_store 	hits[2] 	4266
scalar bus_network.node[2].content_store 	misses[2] 	27325
scalar bus_network.node[2].content_store 	decision_yes[2] 	1544
scalar bus_network.node[2].content_store 	decision_no[2] 	25779
scalar bus_network.node[2].content_store 	decision_ratio[2] 	0.056509168100135
scalar bus_network.node[3].core_layer 	interests[3] 	40170
scalar bus_network.node[3].core_layer 	data[3] 	36088
scalar bus_network.node[3].content_store 	p_hit[3] 	0.10161812297735
scalar bus_network.node[3].content_store 	hits[3] 	4082
scalar bus_network.node[3].content_store 	misses[3] 	36088
scalar bus_network.node[3].content_store 	decision_yes[3] 	1979
scalar bus_network.node[3].content_store 	decision_no[3] 	34109
scalar bus_network.node[3].content_store 	decision_ratio[3] 	0.054838173354023
scalar bus_network.node[4].core_layer 	interests[4] 	48359
scalar bus_network.node[4].core_layer 	data[4] 	44269
scalar bus_network.node[4].content_store 	p_hit[4] 	0.084575777001179
scalar bus_network.node[4].content_store 	hits[4] 	4090
scalar bus_network.node[4].content_store 	misses[4] 	44269
scalar bus_network.node[4].content_store 	decision_yes[4] 	2369
scalar bus_network.node[4].content_store 	decision_no[4] 	41900
scalar bus_network.node[4].content_store 	decision_ratio[4] 	0.053513745510402
scalar bus_network.node[5].core_layer 	interests[5] 	55789
scalar bus_network.node[5].core_layer 	data[5] 	52049
scalar bus_network.node[5].content_store 	p_hit[5] 	0.067074154403198
scalar bus_network.node[5].content_store 	hits[5] 	3742
scalar bus_network.node[5].content_store 	misses[5] 	52047
scalar bus_network.node[5].content_store 	decision_yes[5] 	2733
scalar bus_network.node[5].content_store 	decision_no[5] 	49316
scalar bus_network.node[5].content_store 	decision_ratio[5] 	0.052508213414283
scalar bus_network.node[6].core_layer 	interests[6] 	63118
scalar bus_network.node[6].core_layer 	data[6] 	59465
scalar bus_network.node[6].content_store 	p_hit[6] 	0.057875724832853
scalar bus_network.node[6].content_store 	hits[6] 	3653
scalar bus_network.node[6].content_store 	misses[6] 	59465
scalar bus_network.node[6].content_store 	decision_yes[6] 	3181
scalar bus_network.node[6].content_store 	decision_no[6] 	56284
scalar bus_network.node[6].content_store 	decision_ratio[6] 	0.053493651727907
scalar bus_network.node[7].core_layer 	interests[7] 	70403
scalar bus_network.node[7].core_layer 	data[7] 	67070
scalar bus_network.node[7].content_store 	p_hit[7] 	0.047355936536795
scalar bus_network.node[7].content_store 	hits[7] 	3334
scalar bus_network.node[7].content_store 	misses[7] 	67069
scalar bus_network.node[7].content_store 	decision_yes[7] 	3480
scalar bus_network.node[7].content_store 	decision_no[7] 	63590
scalar bus_network.node[7].content_store 	decision_ratio[7] 	0.051886089160578
scalar bus_network.node[8].core_layer 	interests[8] 	77653
scalar bus_network.node[8].core_layer 	data[8] 	74914
scalar bus_network.node[8].content_store 	p_hit[8] 	0.035272301134534
scalar bus_network.node[8].content_store 	hits[8] 	2739
scalar bus_network.node[8].content_store 	misses[8] 	74914
scalar bus_network.node[8].content_store 	decision_yes[8] 	3789
scalar bus_network.node[8].content_store 	decision_no[8] 	71125
scalar bus_network.node[8].content_store 	decision_ratio[8] 	0.050577996102197
scalar bus_network.node[9].core_layer 	interests[9] 	86024
scalar bus_network.node[9].core_layer 	repo_load[9] 	82850
scalar bus_network.node[9].core_layer 	data[9] 	0
scalar bus_network.node[9].content_store 	p_hit[9] 	0.03689667999628
scalar bus_network.node[9].content_store 	hits[9] 	3174
scalar bus_network.node[9].content_store 	misses[9] 	82850
scalar bus_network.node[9].content_store 	decision_yes[9] 	4948
scalar bus_network.node[9].content_store 	decision_no[9] 	77902
scalar bus_network.node[9].content_store 	decision_ratio[9] 	0.059722389861195
scalar bus_network.client[0] 	hdistance[0] 	6.9886193719887
scalar bus_network.client[0] 	downloads[0] 	12038
scalar bus_network.client[0] 	avg_time[0] 	0.012666173422
scalar bus_network.client[1] 	hdistance[1] 	6.1881965552178
scalar bus_network.client[1] 	downloads[1] 	11844
scalar bus_network.client[1] 	avg_time[1] 	0.011075812665
scalar bus_network.client[2] 	hdistance[2] 	5.4994143239625
scalar bus_network.client[2] 	downloads[2] 	11952
scalar bus_network.client[2] 	avg_time[2] 	0.009698952662
scalar bus_network.client[3] 	hdistance[3] 	4.952736318408
scalar bus_network.client[3] 	downloads[3] 	12060
scalar bus_network.client[3] 	avg_time[3] 	0.00857595054
scalar bus_network.client[4] 	hdistance[4] 	4.2779483774587
scalar bus_network.client[4] 	downloads[4] 	12049
scalar bus_network.client[4] 	avg_time[4] 	0.007231065136
scalar bus_network.client[5] 	hdistance[5] 	3.6495840266223
scalar bus_network.client[5] 	downloads[5] 	12020
scalar bus_network.client[5] 	avg_time[5] 	0.005980030295
scalar bus_network.client[6] 	hdistance[6] 	3.0012463647694
scalar bus_network.client[6] 	downloads[6] 	12035
scalar bus_network.client[6] 	avg_time[6] 	0.004657130897
scalar bus_network.client[7] 	hdistance[7] 	2.3308755760369
scalar bus_network.client[7] 	downloads[7] 	11935
scalar bus_network.client[7] 	avg_time[7] 	0.003251013193
scalar bus_network.client[8] 	hdistance[8] 	1.6352583586626
scalar bus_network.client[8] 	downloads[8] 	11844
scalar bus_network.client[8] 	avg_time[8] 	0.00176071975
scalar bus_network.client[9] 	hdistance[9] 	0.85400723236061
scalar bus_network.client[9] 	downloads[9] 	11891
scalar bus_network.client[9] 	avg_time[9] 	0
